MODEL 1
REMARK VINA RESULT:      -8.7      0.000      0.000
REMARK  8 active torsions:
REMARK  status: ('A' for Active; 'I' for Inactive)
REMARK    1  A    between atoms: C_2  and  O_3 
REMARK    2  A    between atoms: C_2  and  C_4 
REMARK    3  A    between atoms: C_4  and  N_5 
REMARK       I    between atoms: N_5  and  C_6 
REMARK    4  A    between atoms: C_6  and  C_7 
REMARK    5  A    between atoms: C_10  and  O_11 
REMARK    6  A    between atoms: O_11  and  C_12 
REMARK    7  A    between atoms: C_15  and  O_16 
REMARK    8  A    between atoms: O_16  and  C_17 
ROOT
HETATM    1  C   UNL     1      22.350  49.740  48.528  1.00  0.00     0.049 A 
HETATM    2  C   UNL     1      22.542  48.507  49.137  1.00  0.00     0.136 A 
HETATM    3  N   UNL     1      23.758  47.989  49.442  1.00  0.00    -0.236 NA
HETATM    4  C   UNL     1      24.836  48.735  49.108  1.00  0.00     0.169 A 
HETATM    5  C   UNL     1      24.756  49.949  48.445  1.00  0.00     0.059 A 
HETATM    6  C   UNL     1      23.492  50.461  48.160  1.00  0.00     0.023 A 
ENDROOT
BRANCH   4   7
HETATM    7  O   UNL     1      26.106  48.250  49.373  1.00  0.00    -0.292 OA
BRANCH   7   8
HETATM    8  C   UNL     1      26.223  47.169  50.217  1.00  0.00     0.078 A 
HETATM    9  C   UNL     1      26.722  45.997  49.643  1.00  0.00     0.040 A 
HETATM   10  C   UNL     1      26.937  44.864  50.431  1.00  0.00     0.040 A 
HETATM   11  C   UNL     1      26.675  44.903  51.802  1.00  0.00     0.076 A 
HETATM   12  C   UNL     1      26.167  46.071  52.377  1.00  0.00     0.040 A 
HETATM   13  C   UNL     1      25.961  47.207  51.590  1.00  0.00     0.040 A 
BRANCH  11  14
HETATM   14  O   UNL     1      26.884  43.730  52.492  1.00  0.00    -0.311 OA
BRANCH  14  15
HETATM   15  C   UNL     1      28.062  43.588  53.187  1.00  0.00     0.076 A 
HETATM   16  C   UNL     1      29.066  42.823  52.591  1.00  0.00     0.037 A 
HETATM   17  C   UNL     1      30.295  42.671  53.234  1.00  0.00     0.003 A 
HETATM   18  C   UNL     1      30.523  43.296  54.460  1.00  0.00     0.000 A 
HETATM   19  C   UNL     1      29.527  44.083  55.041  1.00  0.00     0.003 A 
HETATM   20  C   UNL     1      28.297  44.239  54.400  1.00  0.00     0.037 A 
ENDBRANCH  14  15
ENDBRANCH  11  14
ENDBRANCH   7   8
ENDBRANCH   4   7
BRANCH   1  21
HETATM   21  C   UNL     1      21.010  50.314  48.241  1.00  0.00     0.253 C 
HETATM   22  N   UNL     1      20.556  51.322  49.070  1.00  0.00    -0.354 N 
HETATM   23  H   UNL     1      21.207  51.780  49.691  1.00  0.00     0.162 HD
HETATM   24  O   UNL     1      20.375  49.904  47.277  1.00  0.00    -0.268 OA
BRANCH  22  25
HETATM   25  C   UNL     1      19.355  52.080  48.751  1.00  0.00     0.154 C 
BRANCH  25  26
HETATM   26  C   UNL     1      18.290  52.161  49.857  1.00  0.00     0.132 C 
HETATM   27  C   UNL     1      17.003  52.827  49.387  1.00  0.00     0.041 C 
BRANCH  26  28
HETATM   28  O   UNL     1      17.978  50.827  50.273  1.00  0.00    -0.394 OA
HETATM   29  H   UNL     1      17.566  50.894  51.152  1.00  0.00     0.210 HD
ENDBRANCH  26  28
ENDBRANCH  25  26
ENDBRANCH  22  25
ENDBRANCH   1  21
TORSDOF 8
ENDMDL
MODEL 2
REMARK VINA RESULT:      -8.7      2.057      3.861
REMARK  8 active torsions:
REMARK  status: ('A' for Active; 'I' for Inactive)
REMARK    1  A    between atoms: C_2  and  O_3 
REMARK    2  A    between atoms: C_2  and  C_4 
REMARK    3  A    between atoms: C_4  and  N_5 
REMARK       I    between atoms: N_5  and  C_6 
REMARK    4  A    between atoms: C_6  and  C_7 
REMARK    5  A    between atoms: C_10  and  O_11 
REMARK    6  A    between atoms: O_11  and  C_12 
REMARK    7  A    between atoms: C_15  and  O_16 
REMARK    8  A    between atoms: O_16  and  C_17 
ROOT
HETATM    1  C   UNL     1      24.228  47.105  50.032  1.00  0.00     0.049 A 
HETATM    2  C   UNL     1      23.895  45.861  49.512  1.00  0.00     0.136 A 
HETATM    3  N   UNL     1      24.212  44.680  50.100  1.00  0.00    -0.236 NA
HETATM    4  C   UNL     1      24.908  44.746  51.258  1.00  0.00     0.169 A 
HETATM    5  C   UNL     1      25.339  45.933  51.829  1.00  0.00     0.059 A 
HETATM    6  C   UNL     1      24.984  47.130  51.209  1.00  0.00     0.023 A 
ENDROOT
BRANCH   4   7
HETATM    7  O   UNL     1      25.280  43.574  51.895  1.00  0.00    -0.292 OA
BRANCH   7   8
HETATM    8  C   UNL     1      26.470  43.564  52.587  1.00  0.00     0.078 A 
HETATM    9  C   UNL     1      27.628  43.487  51.809  1.00  0.00     0.040 A 
HETATM   10  C   UNL     1      28.886  43.533  52.414  1.00  0.00     0.040 A 
HETATM   11  C   UNL     1      28.993  43.680  53.798  1.00  0.00     0.076 A 
HETATM   12  C   UNL     1      27.837  43.748  54.580  1.00  0.00     0.040 A 
HETATM   13  C   UNL     1      26.579  43.711  53.973  1.00  0.00     0.040 A 
BRANCH  11  14
HETATM   14  O   UNL     1      30.273  43.682  54.310  1.00  0.00    -0.311 OA
BRANCH  14  15
HETATM   15  C   UNL     1      30.459  44.158  55.586  1.00  0.00     0.076 A 
HETATM   16  C   UNL     1      31.223  43.377  56.453  1.00  0.00     0.037 A 
HETATM   17  C   UNL     1      31.474  43.824  57.751  1.00  0.00     0.003 A 
HETATM   18  C   UNL     1      30.974  45.057  58.172  1.00  0.00     0.000 A 
HETATM   19  C   UNL     1      30.233  45.849  57.294  1.00  0.00     0.003 A 
HETATM   20  C   UNL     1      29.983  45.406  55.995  1.00  0.00     0.037 A 
ENDBRANCH  14  15
ENDBRANCH  11  14
ENDBRANCH   7   8
ENDBRANCH   4   7
BRANCH   1  21
HETATM   21  C   UNL     1      23.834  48.390  49.399  1.00  0.00     0.253 C 
HETATM   22  N   UNL     1      22.486  48.679  49.325  1.00  0.00    -0.354 N 
HETATM   23  H   UNL     1      21.835  48.138  49.875  1.00  0.00     0.162 HD
HETATM   24  O   UNL     1      24.706  49.153  48.999  1.00  0.00    -0.268 OA
BRANCH  22  25
HETATM   25  C   UNL     1      22.015  49.993  48.910  1.00  0.00     0.154 C 
BRANCH  25  26
HETATM   26  C   UNL     1      21.045  50.701  49.869  1.00  0.00     0.132 C 
HETATM   27  C   UNL     1      20.055  51.604  49.144  1.00  0.00     0.041 C 
BRANCH  26  28
HETATM   28  O   UNL     1      20.304  49.699  50.573  1.00  0.00    -0.394 OA
HETATM   29  H   UNL     1      19.370  49.807  50.319  1.00  0.00     0.210 HD
ENDBRANCH  26  28
ENDBRANCH  25  26
ENDBRANCH  22  25
ENDBRANCH   1  21
TORSDOF 8
ENDMDL
MODEL 3
REMARK VINA RESULT:      -8.2      2.059      2.714
REMARK  8 active torsions:
REMARK  status: ('A' for Active; 'I' for Inactive)
REMARK    1  A    between atoms: C_2  and  O_3 
REMARK    2  A    between atoms: C_2  and  C_4 
REMARK    3  A    between atoms: C_4  and  N_5 
REMARK       I    between atoms: N_5  and  C_6 
REMARK    4  A    between atoms: C_6  and  C_7 
REMARK    5  A    between atoms: C_10  and  O_11 
REMARK    6  A    between atoms: O_11  and  C_12 
REMARK    7  A    between atoms: C_15  and  O_16 
REMARK    8  A    between atoms: O_16  and  C_17 
ROOT
HETATM    1  C   UNL     1      21.596  48.614  48.845  1.00  0.00     0.049 A 
HETATM    2  C   UNL     1      22.379  49.631  49.376  1.00  0.00     0.136 A 
HETATM    3  N   UNL     1      23.706  49.515  49.632  1.00  0.00    -0.236 NA
HETATM    4  C   UNL     1      24.276  48.319  49.357  1.00  0.00     0.169 A 
HETATM    5  C   UNL     1      23.572  47.224  48.882  1.00  0.00     0.059 A 
HETATM    6  C   UNL     1      22.213  47.380  48.615  1.00  0.00     0.023 A 
ENDROOT
BRANCH   4   7
HETATM    7  O   UNL     1      25.623  48.132  49.618  1.00  0.00    -0.292 OA
BRANCH   7   8
HETATM    8  C   UNL     1      25.997  47.004  50.312  1.00  0.00     0.078 A 
HETATM    9  C   UNL     1      25.575  46.939  51.642  1.00  0.00     0.040 A 
HETATM   10  C   UNL     1      25.850  45.806  52.412  1.00  0.00     0.040 A 
HETATM   11  C   UNL     1      26.528  44.724  51.850  1.00  0.00     0.076 A 
HETATM   12  C   UNL     1      26.960  44.790  50.522  1.00  0.00     0.040 A 
HETATM   13  C   UNL     1      26.676  45.919  49.750  1.00  0.00     0.040 A 
BRANCH  11  14
HETATM   14  O   UNL     1      26.785  43.664  52.693  1.00  0.00    -0.311 OA
BRANCH  14  15
HETATM   15  C   UNL     1      28.045  43.555  53.231  1.00  0.00     0.076 A 
HETATM   16  C   UNL     1      28.240  44.072  54.512  1.00  0.00     0.037 A 
HETATM   17  C   UNL     1      29.490  43.961  55.122  1.00  0.00     0.003 A 
HETATM   18  C   UNL     1      30.535  43.319  54.457  1.00  0.00     0.000 A 
HETATM   19  C   UNL     1      30.331  42.778  53.187  1.00  0.00     0.003 A 
HETATM   20  C   UNL     1      29.081  42.886  52.575  1.00  0.00     0.037 A 
ENDBRANCH  14  15
ENDBRANCH  11  14
ENDBRANCH   7   8
ENDBRANCH   4   7
BRANCH   1  21
HETATM   21  C   UNL     1      20.153  48.771  48.528  1.00  0.00     0.253 C 
HETATM   22  N   UNL     1      19.249  48.075  49.306  1.00  0.00    -0.354 N 
HETATM   23  H   UNL     1      19.559  47.666  50.176  1.00  0.00     0.162 HD
HETATM   24  O   UNL     1      19.816  49.524  47.622  1.00  0.00    -0.268 OA
BRANCH  22  25
HETATM   25  C   UNL     1      17.817  48.319  49.204  1.00  0.00     0.154 C 
BRANCH  25  26
HETATM   26  C   UNL     1      17.075  47.556  48.095  1.00  0.00     0.132 C 
HETATM   27  C   UNL     1      17.389  46.066  48.094  1.00  0.00     0.041 C 
BRANCH  26  28
HETATM   28  O   UNL     1      15.669  47.717  48.308  1.00  0.00    -0.394 OA
HETATM   29  H   UNL     1      15.470  47.338  49.183  1.00  0.00     0.210 HD
ENDBRANCH  26  28
ENDBRANCH  25  26
ENDBRANCH  22  25
ENDBRANCH   1  21
TORSDOF 8
ENDMDL
MODEL 4
REMARK VINA RESULT:      -8.1      1.664      2.262
REMARK  8 active torsions:
REMARK  status: ('A' for Active; 'I' for Inactive)
REMARK    1  A    between atoms: C_2  and  O_3 
REMARK    2  A    between atoms: C_2  and  C_4 
REMARK    3  A    between atoms: C_4  and  N_5 
REMARK       I    between atoms: N_5  and  C_6 
REMARK    4  A    between atoms: C_6  and  C_7 
REMARK    5  A    between atoms: C_10  and  O_11 
REMARK    6  A    between atoms: O_11  and  C_12 
REMARK    7  A    between atoms: C_15  and  O_16 
REMARK    8  A    between atoms: O_16  and  C_17 
ROOT
HETATM    1  C   UNL     1      23.237  48.621  49.182  1.00  0.00     0.049 A 
HETATM    2  C   UNL     1      22.753  47.346  48.921  1.00  0.00     0.136 A 
HETATM    3  N   UNL     1      23.512  46.222  48.957  1.00  0.00    -0.236 NA
HETATM    4  C   UNL     1      24.821  46.382  49.257  1.00  0.00     0.169 A 
HETATM    5  C   UNL     1      25.414  47.616  49.475  1.00  0.00     0.059 A 
HETATM    6  C   UNL     1      24.605  48.750  49.445  1.00  0.00     0.023 A 
ENDROOT
BRANCH   4   7
HETATM    7  O   UNL     1      25.652  45.275  49.288  1.00  0.00    -0.292 OA
BRANCH   7   8
HETATM    8  C   UNL     1      25.956  44.728  50.514  1.00  0.00     0.078 A 
HETATM    9  C   UNL     1      27.251  44.223  50.652  1.00  0.00     0.040 A 
HETATM   10  C   UNL     1      27.676  43.705  51.877  1.00  0.00     0.040 A 
HETATM   11  C   UNL     1      26.816  43.709  52.977  1.00  0.00     0.076 A 
HETATM   12  C   UNL     1      25.517  44.205  52.839  1.00  0.00     0.040 A 
HETATM   13  C   UNL     1      25.095  44.732  51.616  1.00  0.00     0.040 A 
BRANCH  11  14
HETATM   14  O   UNL     1      27.309  43.147  54.135  1.00  0.00    -0.311 OA
BRANCH  14  15
HETATM   15  C   UNL     1      28.451  43.684  54.680  1.00  0.00     0.076 A 
HETATM   16  C   UNL     1      28.364  44.976  55.200  1.00  0.00     0.037 A 
HETATM   17  C   UNL     1      29.482  45.561  55.795  1.00  0.00     0.003 A 
HETATM   18  C   UNL     1      30.678  44.848  55.883  1.00  0.00     0.000 A 
HETATM   19  C   UNL     1      30.756  43.546  55.386  1.00  0.00     0.003 A 
HETATM   20  C   UNL     1      29.638  42.957  54.793  1.00  0.00     0.037 A 
ENDBRANCH  14  15
ENDBRANCH  11  14
ENDBRANCH   7   8
ENDBRANCH   4   7
BRANCH   1  21
HETATM   21  C   UNL     1      22.384  49.838  49.182  1.00  0.00     0.253 C 
HETATM   22  N   UNL     1      21.245  49.819  49.963  1.00  0.00    -0.354 N 
HETATM   23  H   UNL     1      21.136  49.096  50.659  1.00  0.00     0.162 HD
HETATM   24  O   UNL     1      22.729  50.812  48.524  1.00  0.00    -0.268 OA
BRANCH  22  25
HETATM   25  C   UNL     1      20.460  51.025  50.185  1.00  0.00     0.154 C 
BRANCH  25  26
HETATM   26  C   UNL     1      18.993  50.975  49.729  1.00  0.00     0.132 C 
HETATM   27  C   UNL     1      18.827  50.355  48.347  1.00  0.00     0.041 C 
BRANCH  26  28
HETATM   28  O   UNL     1      18.262  50.177  50.667  1.00  0.00    -0.394 OA
HETATM   29  H   UNL     1      18.840  50.053  51.442  1.00  0.00     0.210 HD
ENDBRANCH  26  28
ENDBRANCH  25  26
ENDBRANCH  22  25
ENDBRANCH   1  21
TORSDOF 8
ENDMDL
MODEL 5
REMARK VINA RESULT:      -8.1      6.016      9.487
REMARK  8 active torsions:
REMARK  status: ('A' for Active; 'I' for Inactive)
REMARK    1  A    between atoms: C_2  and  O_3 
REMARK    2  A    between atoms: C_2  and  C_4 
REMARK    3  A    between atoms: C_4  and  N_5 
REMARK       I    between atoms: N_5  and  C_6 
REMARK    4  A    between atoms: C_6  and  C_7 
REMARK    5  A    between atoms: C_10  and  O_11 
REMARK    6  A    between atoms: O_11  and  C_12 
REMARK    7  A    between atoms: C_15  and  O_16 
REMARK    8  A    between atoms: O_16  and  C_17 
ROOT
HETATM    1  C   UNL     1      26.715  41.395  50.087  1.00  0.00     0.049 A 
HETATM    2  C   UNL     1      27.519  42.454  50.489  1.00  0.00     0.136 A 
HETATM    3  N   UNL     1      27.059  43.560  51.125  1.00  0.00    -0.236 NA
HETATM    4  C   UNL     1      25.727  43.616  51.359  1.00  0.00     0.169 A 
HETATM    5  C   UNL     1      24.832  42.642  50.945  1.00  0.00     0.059 A 
HETATM    6  C   UNL     1      25.339  41.511  50.307  1.00  0.00     0.023 A 
ENDROOT
BRANCH   4   7
HETATM    7  O   UNL     1      25.194  44.730  51.984  1.00  0.00    -0.292 OA
BRANCH   7   8
HETATM    8  C   UNL     1      25.908  45.298  53.015  1.00  0.00     0.078 A 
HETATM    9  C   UNL     1      26.253  44.441  54.063  1.00  0.00     0.040 A 
HETATM   10  C   UNL     1      27.031  44.906  55.125  1.00  0.00     0.040 A 
HETATM   11  C   UNL     1      27.489  46.225  55.134  1.00  0.00     0.076 A 
HETATM   12  C   UNL     1      27.137  47.088  54.092  1.00  0.00     0.040 A 
HETATM   13  C   UNL     1      26.367  46.619  53.025  1.00  0.00     0.040 A 
BRANCH  11  14
HETATM   14  O   UNL     1      28.221  46.605  56.237  1.00  0.00    -0.311 OA
BRANCH  14  15
HETATM   15  C   UNL     1      29.291  45.824  56.605  1.00  0.00     0.076 A 
HETATM   16  C   UNL     1      29.701  45.888  57.937  1.00  0.00     0.037 A 
HETATM   17  C   UNL     1      30.760  45.094  58.376  1.00  0.00     0.003 A 
HETATM   18  C   UNL     1      31.396  44.227  57.487  1.00  0.00     0.000 A 
HETATM   19  C   UNL     1      30.967  44.145  56.161  1.00  0.00     0.003 A 
HETATM   20  C   UNL     1      29.906  44.936  55.720  1.00  0.00     0.037 A 
ENDBRANCH  14  15
ENDBRANCH  11  14
ENDBRANCH   7   8
ENDBRANCH   4   7
BRANCH   1  21
HETATM   21  C   UNL     1      27.241  40.170  49.431  1.00  0.00     0.253 C 
HETATM   22  N   UNL     1      27.525  39.085  50.237  1.00  0.00    -0.354 N 
HETATM   23  H   UNL     1      27.177  39.071  51.185  1.00  0.00     0.162 HD
HETATM   24  O   UNL     1      27.374  40.152  48.212  1.00  0.00    -0.268 OA
BRANCH  22  25
HETATM   25  C   UNL     1      27.849  37.784  49.670  1.00  0.00     0.154 C 
BRANCH  25  26
HETATM   26  C   UNL     1      29.108  37.096  50.222  1.00  0.00     0.132 C 
HETATM   27  C   UNL     1      29.987  38.041  51.031  1.00  0.00     0.041 C 
BRANCH  26  28
HETATM   28  O   UNL     1      28.691  36.028  51.080  1.00  0.00    -0.394 OA
HETATM   29  H   UNL     1      29.285  35.277  50.904  1.00  0.00     0.210 HD
ENDBRANCH  26  28
ENDBRANCH  25  26
ENDBRANCH  22  25
ENDBRANCH   1  21
TORSDOF 8
ENDMDL
MODEL 6
REMARK VINA RESULT:      -7.9      2.051     10.757
REMARK  8 active torsions:
REMARK  status: ('A' for Active; 'I' for Inactive)
REMARK    1  A    between atoms: C_2  and  O_3 
REMARK    2  A    between atoms: C_2  and  C_4 
REMARK    3  A    between atoms: C_4  and  N_5 
REMARK       I    between atoms: N_5  and  C_6 
REMARK    4  A    between atoms: C_6  and  C_7 
REMARK    5  A    between atoms: C_10  and  O_11 
REMARK    6  A    between atoms: O_11  and  C_12 
REMARK    7  A    between atoms: C_15  and  O_16 
REMARK    8  A    between atoms: O_16  and  C_17 
ROOT
HETATM    1  C   UNL     1      25.102  45.712  51.571  1.00  0.00     0.049 A 
HETATM    2  C   UNL     1      25.310  47.077  51.423  1.00  0.00     0.136 A 
HETATM    3  N   UNL     1      24.774  47.825  50.426  1.00  0.00    -0.236 NA
HETATM    4  C   UNL     1      24.003  47.173  49.525  1.00  0.00     0.169 A 
HETATM    5  C   UNL     1      23.783  45.805  49.549  1.00  0.00     0.059 A 
HETATM    6  C   UNL     1      24.334  45.067  50.595  1.00  0.00     0.023 A 
ENDROOT
BRANCH   4   7
HETATM    7  O   UNL     1      23.447  47.878  48.471  1.00  0.00    -0.292 OA
BRANCH   7   8
HETATM    8  C   UNL     1      22.497  48.832  48.760  1.00  0.00     0.078 A 
HETATM    9  C   UNL     1      22.876  50.158  48.540  1.00  0.00     0.040 A 
HETATM   10  C   UNL     1      21.962  51.194  48.743  1.00  0.00     0.040 A 
HETATM   11  C   UNL     1      20.656  50.907  49.145  1.00  0.00     0.076 A 
HETATM   12  C   UNL     1      20.276  49.582  49.375  1.00  0.00     0.040 A 
HETATM   13  C   UNL     1      21.189  48.546  49.162  1.00  0.00     0.040 A 
BRANCH  11  14
HETATM   14  O   UNL     1      19.834  51.994  49.353  1.00  0.00    -0.311 OA
BRANCH  14  15
HETATM   15  C   UNL     1      18.543  51.928  48.886  1.00  0.00     0.076 A 
HETATM   16  C   UNL     1      17.518  51.980  49.832  1.00  0.00     0.037 A 
HETATM   17  C   UNL     1      16.188  51.951  49.415  1.00  0.00     0.003 A 
HETATM   18  C   UNL     1      15.884  51.885  48.054  1.00  0.00     0.000 A 
HETATM   19  C   UNL     1      16.910  51.859  47.109  1.00  0.00     0.003 A 
HETATM   20  C   UNL     1      18.243  51.892  47.522  1.00  0.00     0.037 A 
ENDBRANCH  14  15
ENDBRANCH  11  14
ENDBRANCH   7   8
ENDBRANCH   4   7
BRANCH   1  21
HETATM   21  C   UNL     1      25.658  44.915  52.694  1.00  0.00     0.253 C 
HETATM   22  N   UNL     1      26.997  45.077  52.991  1.00  0.00    -0.354 N 
HETATM   23  H   UNL     1      27.497  45.863  52.600  1.00  0.00     0.162 HD
HETATM   24  O   UNL     1      24.917  44.174  53.330  1.00  0.00    -0.268 OA
BRANCH  22  25
HETATM   25  C   UNL     1      27.583  44.497  54.191  1.00  0.00     0.154 C 
BRANCH  25  26
HETATM   26  C   UNL     1      28.546  43.319  53.976  1.00  0.00     0.132 C 
HETATM   27  C   UNL     1      29.216  43.349  52.609  1.00  0.00     0.041 C 
BRANCH  26  28
HETATM   28  O   UNL     1      29.567  43.390  54.977  1.00  0.00    -0.394 OA
HETATM   29  H   UNL     1      29.416  44.213  55.477  1.00  0.00     0.210 HD
ENDBRANCH  26  28
ENDBRANCH  25  26
ENDBRANCH  22  25
ENDBRANCH   1  21
TORSDOF 8
ENDMDL
MODEL 7
REMARK VINA RESULT:      -7.8      3.026      3.705
REMARK  8 active torsions:
REMARK  status: ('A' for Active; 'I' for Inactive)
REMARK    1  A    between atoms: C_2  and  O_3 
REMARK    2  A    between atoms: C_2  and  C_4 
REMARK    3  A    between atoms: C_4  and  N_5 
REMARK       I    between atoms: N_5  and  C_6 
REMARK    4  A    between atoms: C_6  and  C_7 
REMARK    5  A    between atoms: C_10  and  O_11 
REMARK    6  A    between atoms: O_11  and  C_12 
REMARK    7  A    between atoms: C_15  and  O_16 
REMARK    8  A    between atoms: O_16  and  C_17 
ROOT
HETATM    1  C   UNL     1      22.358  46.963  48.111  1.00  0.00     0.049 A 
HETATM    2  C   UNL     1      23.040  45.987  48.826  1.00  0.00     0.136 A 
HETATM    3  N   UNL     1      24.055  46.245  49.689  1.00  0.00    -0.236 NA
HETATM    4  C   UNL     1      24.414  47.541  49.833  1.00  0.00     0.169 A 
HETATM    5  C   UNL     1      23.839  48.582  49.122  1.00  0.00     0.059 A 
HETATM    6  C   UNL     1      22.788  48.286  48.255  1.00  0.00     0.023 A 
ENDROOT
BRANCH   4   7
HETATM    7  O   UNL     1      25.459  47.866  50.682  1.00  0.00    -0.292 OA
BRANCH   7   8
HETATM    8  C   UNL     1      25.788  46.970  51.675  1.00  0.00     0.078 A 
HETATM    9  C   UNL     1      26.519  45.851  51.269  1.00  0.00     0.040 A 
HETATM   10  C   UNL     1      26.956  44.917  52.210  1.00  0.00     0.040 A 
HETATM   11  C   UNL     1      26.683  45.109  53.567  1.00  0.00     0.076 A 
HETATM   12  C   UNL     1      25.944  46.222  53.975  1.00  0.00     0.040 A 
HETATM   13  C   UNL     1      25.516  47.161  53.033  1.00  0.00     0.040 A 
BRANCH  11  14
HETATM   14  O   UNL     1      27.124  44.119  54.419  1.00  0.00    -0.311 OA
BRANCH  14  15
HETATM   15  C   UNL     1      28.429  44.166  54.846  1.00  0.00     0.076 A 
HETATM   16  C   UNL     1      28.804  45.255  55.634  1.00  0.00     0.037 A 
HETATM   17  C   UNL     1      30.107  45.339  56.125  1.00  0.00     0.003 A 
HETATM   18  C   UNL     1      31.027  44.329  55.840  1.00  0.00     0.000 A 
HETATM   19  C   UNL     1      30.642  43.228  55.073  1.00  0.00     0.003 A 
HETATM   20  C   UNL     1      29.338  43.139  54.584  1.00  0.00     0.037 A 
ENDBRANCH  14  15
ENDBRANCH  11  14
ENDBRANCH   7   8
ENDBRANCH   4   7
BRANCH   1  21
HETATM   21  C   UNL     1      21.219  46.669  47.204  1.00  0.00     0.253 C 
HETATM   22  N   UNL     1      19.952  46.651  47.754  1.00  0.00    -0.354 N 
HETATM   23  H   UNL     1      19.809  47.039  48.675  1.00  0.00     0.162 HD
HETATM   24  O   UNL     1      21.433  46.485  46.011  1.00  0.00    -0.268 OA
BRANCH  22  25
HETATM   25  C   UNL     1      18.764  46.574  46.916  1.00  0.00     0.154 C 
BRANCH  25  26
HETATM   26  C   UNL     1      18.082  45.199  46.829  1.00  0.00     0.132 C 
HETATM   27  C   UNL     1      18.427  44.452  45.548  1.00  0.00     0.041 C 
BRANCH  26  28
HETATM   28  O   UNL     1      18.525  44.412  47.940  1.00  0.00    -0.394 OA
HETATM   29  H   UNL     1      17.824  44.456  48.615  1.00  0.00     0.210 HD
ENDBRANCH  26  28
ENDBRANCH  25  26
ENDBRANCH  22  25
ENDBRANCH   1  21
TORSDOF 8
ENDMDL
MODEL 8
REMARK VINA RESULT:      -7.7      2.000     10.250
REMARK  8 active torsions:
REMARK  status: ('A' for Active; 'I' for Inactive)
REMARK    1  A    between atoms: C_2  and  O_3 
REMARK    2  A    between atoms: C_2  and  C_4 
REMARK    3  A    between atoms: C_4  and  N_5 
REMARK       I    between atoms: N_5  and  C_6 
REMARK    4  A    between atoms: C_6  and  C_7 
REMARK    5  A    between atoms: C_10  and  O_11 
REMARK    6  A    between atoms: O_11  and  C_12 
REMARK    7  A    between atoms: C_15  and  O_16 
REMARK    8  A    between atoms: O_16  and  C_17 
ROOT
HETATM    1  C   UNL     1      25.959  45.091  51.464  1.00  0.00     0.049 A 
HETATM    2  C   UNL     1      25.691  46.255  52.171  1.00  0.00     0.136 A 
HETATM    3  N   UNL     1      25.583  47.483  51.605  1.00  0.00    -0.236 NA
HETATM    4  C   UNL     1      25.765  47.552  50.266  1.00  0.00     0.169 A 
HETATM    5  C   UNL     1      26.094  46.460  49.478  1.00  0.00     0.059 A 
HETATM    6  C   UNL     1      26.183  45.210  50.088  1.00  0.00     0.023 A 
ENDROOT
BRANCH   4   7
HETATM    7  O   UNL     1      25.689  48.780  49.632  1.00  0.00    -0.292 OA
BRANCH   7   8
HETATM    8  C   UNL     1      24.509  49.115  49.008  1.00  0.00     0.078 A 
HETATM    9  C   UNL     1      23.459  48.206  49.159  1.00  0.00     0.040 A 
HETATM   10  C   UNL     1      22.203  48.485  48.617  1.00  0.00     0.040 A 
HETATM   11  C   UNL     1      21.983  49.687  47.939  1.00  0.00     0.076 A 
HETATM   12  C   UNL     1      23.034  50.594  47.779  1.00  0.00     0.040 A 
HETATM   13  C   UNL     1      24.287  50.318  48.330  1.00  0.00     0.040 A 
BRANCH  11  14
HETATM   14  O   UNL     1      20.723  49.862  47.409  1.00  0.00    -0.311 OA
BRANCH  14  15
HETATM   15  C   UNL     1      19.784  50.514  48.173  1.00  0.00     0.076 A 
HETATM   16  C   UNL     1      19.009  49.736  49.033  1.00  0.00     0.037 A 
HETATM   17  C   UNL     1      18.063  50.346  49.856  1.00  0.00     0.003 A 
HETATM   18  C   UNL     1      17.904  51.732  49.828  1.00  0.00     0.000 A 
HETATM   19  C   UNL     1      18.699  52.511  48.986  1.00  0.00     0.003 A 
HETATM   20  C   UNL     1      19.649  51.904  48.164  1.00  0.00     0.037 A 
ENDBRANCH  14  15
ENDBRANCH  11  14
ENDBRANCH   7   8
ENDBRANCH   4   7
BRANCH   1  21
HETATM   21  C   UNL     1      26.030  43.747  52.093  1.00  0.00     0.253 C 
HETATM   22  N   UNL     1      26.933  42.843  51.569  1.00  0.00    -0.354 N 
HETATM   23  H   UNL     1      27.651  43.172  50.940  1.00  0.00     0.162 HD
HETATM   24  O   UNL     1      25.318  43.498  53.059  1.00  0.00    -0.268 OA
BRANCH  22  25
HETATM   25  C   UNL     1      27.218  41.582  52.238  1.00  0.00     0.154 C 
BRANCH  25  26
HETATM   26  C   UNL     1      28.702  41.265  52.488  1.00  0.00     0.132 C 
HETATM   27  C   UNL     1      29.510  42.497  52.874  1.00  0.00     0.041 C 
BRANCH  26  28
HETATM   28  O   UNL     1      28.780  40.322  53.563  1.00  0.00    -0.394 OA
HETATM   29  H   UNL     1      28.639  39.440  53.175  1.00  0.00     0.210 HD
ENDBRANCH  26  28
ENDBRANCH  25  26
ENDBRANCH  22  25
ENDBRANCH   1  21
TORSDOF 8
ENDMDL
MODEL 9
REMARK VINA RESULT:      -7.7      3.205     10.495
REMARK  8 active torsions:
REMARK  status: ('A' for Active; 'I' for Inactive)
REMARK    1  A    between atoms: C_2  and  O_3 
REMARK    2  A    between atoms: C_2  and  C_4 
REMARK    3  A    between atoms: C_4  and  N_5 
REMARK       I    between atoms: N_5  and  C_6 
REMARK    4  A    between atoms: C_6  and  C_7 
REMARK    5  A    between atoms: C_10  and  O_11 
REMARK    6  A    between atoms: O_11  and  C_12 
REMARK    7  A    between atoms: C_15  and  O_16 
REMARK    8  A    between atoms: O_16  and  C_17 
ROOT
HETATM    1  C   UNL     1      27.746  43.219  52.727  1.00  0.00     0.049 A 
HETATM    2  C   UNL     1      26.737  43.929  53.365  1.00  0.00     0.136 A 
HETATM    3  N   UNL     1      25.473  44.052  52.887  1.00  0.00    -0.236 NA
HETATM    4  C   UNL     1      25.209  43.446  51.707  1.00  0.00     0.169 A 
HETATM    5  C   UNL     1      26.159  42.765  50.963  1.00  0.00     0.059 A 
HETATM    6  C   UNL     1      27.444  42.644  51.488  1.00  0.00     0.023 A 
ENDROOT
BRANCH   4   7
HETATM    7  O   UNL     1      23.943  43.554  51.157  1.00  0.00    -0.292 OA
BRANCH   7   8
HETATM    8  C   UNL     1      23.692  44.614  50.315  1.00  0.00     0.078 A 
HETATM    9  C   UNL     1      22.650  44.434  49.402  1.00  0.00     0.040 A 
HETATM   10  C   UNL     1      22.276  45.474  48.547  1.00  0.00     0.040 A 
HETATM   11  C   UNL     1      22.927  46.707  48.617  1.00  0.00     0.076 A 
HETATM   12  C   UNL     1      23.976  46.887  49.523  1.00  0.00     0.040 A 
HETATM   13  C   UNL     1      24.343  45.850  50.384  1.00  0.00     0.040 A 
BRANCH  11  14
HETATM   14  O   UNL     1      22.515  47.663  47.714  1.00  0.00    -0.311 OA
BRANCH  14  15
HETATM   15  C   UNL     1      21.916  48.799  48.202  1.00  0.00     0.076 A 
HETATM   16  C   UNL     1      22.473  50.024  47.832  1.00  0.00     0.037 A 
HETATM   17  C   UNL     1      21.888  51.212  48.270  1.00  0.00     0.003 A 
HETATM   18  C   UNL     1      20.740  51.174  49.061  1.00  0.00     0.000 A 
HETATM   19  C   UNL     1      20.169  49.949  49.408  1.00  0.00     0.003 A 
HETATM   20  C   UNL     1      20.749  48.758  48.969  1.00  0.00     0.037 A 
ENDBRANCH  14  15
ENDBRANCH  11  14
ENDBRANCH   7   8
ENDBRANCH   4   7
BRANCH   1  21
HETATM   21  C   UNL     1      29.113  43.056  53.286  1.00  0.00     0.253 C 
HETATM   22  N   UNL     1      29.415  43.740  54.446  1.00  0.00    -0.354 N 
HETATM   23  H   UNL     1      28.666  44.145  54.989  1.00  0.00     0.162 HD
HETATM   24  O   UNL     1      29.905  42.307  52.724  1.00  0.00    -0.268 OA
BRANCH  22  25
HETATM   25  C   UNL     1      30.650  43.488  55.174  1.00  0.00     0.154 C 
BRANCH  25  26
HETATM   26  C   UNL     1      30.703  44.003  56.622  1.00  0.00     0.132 C 
HETATM   27  C   UNL     1      31.952  43.546  57.364  1.00  0.00     0.041 C 
BRANCH  26  28
HETATM   28  O   UNL     1      30.704  45.435  56.585  1.00  0.00    -0.394 OA
HETATM   29  H   UNL     1      31.254  45.736  57.329  1.00  0.00     0.210 HD
ENDBRANCH  26  28
ENDBRANCH  25  26
ENDBRANCH  22  25
ENDBRANCH   1  21
TORSDOF 8
ENDMDL
MODEL 10
REMARK VINA RESULT:      -7.7      4.505      7.588
REMARK  8 active torsions:
REMARK  status: ('A' for Active; 'I' for Inactive)
REMARK    1  A    between atoms: C_2  and  O_3 
REMARK    2  A    between atoms: C_2  and  C_4 
REMARK    3  A    between atoms: C_4  and  N_5 
REMARK       I    between atoms: N_5  and  C_6 
REMARK    4  A    between atoms: C_6  and  C_7 
REMARK    5  A    between atoms: C_10  and  O_11 
REMARK    6  A    between atoms: O_11  and  C_12 
REMARK    7  A    between atoms: C_15  and  O_16 
REMARK    8  A    between atoms: O_16  and  C_17 
ROOT
HETATM    1  C   UNL     1      15.626  52.476  48.718  1.00  0.00     0.049 A 
HETATM    2  C   UNL     1      16.448  52.608  49.829  1.00  0.00     0.136 A 
HETATM    3  N   UNL     1      17.413  51.718  50.172  1.00  0.00    -0.236 NA
HETATM    4  C   UNL     1      17.554  50.637  49.371  1.00  0.00     0.169 A 
HETATM    5  C   UNL     1      16.746  50.382  48.274  1.00  0.00     0.059 A 
HETATM    6  C   UNL     1      15.773  51.323  47.940  1.00  0.00     0.023 A 
ENDROOT
BRANCH   4   7
HETATM    7  O   UNL     1      18.507  49.681  49.682  1.00  0.00    -0.292 OA
BRANCH   7   8
HETATM    8  C   UNL     1      19.783  49.860  49.199  1.00  0.00     0.078 A 
HETATM    9  C   UNL     1      20.301  48.808  48.439  1.00  0.00     0.040 A 
HETATM   10  C   UNL     1      21.563  48.920  47.852  1.00  0.00     0.040 A 
HETATM   11  C   UNL     1      22.306  50.093  48.003  1.00  0.00     0.076 A 
HETATM   12  C   UNL     1      21.795  51.143  48.771  1.00  0.00     0.040 A 
HETATM   13  C   UNL     1      20.527  51.034  49.349  1.00  0.00     0.040 A 
BRANCH  11  14
HETATM   14  O   UNL     1      23.553  50.100  47.418  1.00  0.00    -0.311 OA
BRANCH  14  15
HETATM   15  C   UNL     1      24.604  49.568  48.126  1.00  0.00     0.076 A 
HETATM   16  C   UNL     1      25.863  50.134  47.922  1.00  0.00     0.037 A 
HETATM   17  C   UNL     1      26.962  49.658  48.638  1.00  0.00     0.003 A 
HETATM   18  C   UNL     1      26.797  48.628  49.565  1.00  0.00     0.000 A 
HETATM   19  C   UNL     1      25.532  48.081  49.787  1.00  0.00     0.003 A 
HETATM   20  C   UNL     1      24.430  48.558  49.075  1.00  0.00     0.037 A 
ENDBRANCH  14  15
ENDBRANCH  11  14
ENDBRANCH   7   8
ENDBRANCH   4   7
BRANCH   1  21
HETATM   21  C   UNL     1      14.603  53.482  48.330  1.00  0.00     0.253 C 
HETATM   22  N   UNL     1      13.953  54.156  49.345  1.00  0.00    -0.354 N 
HETATM   23  H   UNL     1      14.326  54.113  50.283  1.00  0.00     0.162 HD
HETATM   24  O   UNL     1      14.396  53.699  47.142  1.00  0.00    -0.268 OA
BRANCH  22  25
HETATM   25  C   UNL     1      13.089  55.294  49.066  1.00  0.00     0.154 C 
BRANCH  25  26
HETATM   26  C   UNL     1      13.475  56.622  49.738  1.00  0.00     0.132 C 
HETATM   27  C   UNL     1      14.106  56.425  51.110  1.00  0.00     0.041 C 
BRANCH  26  28
HETATM   28  O   UNL     1      14.427  57.284  48.899  1.00  0.00    -0.394 OA
HETATM   29  H   UNL     1      13.929  57.918  48.352  1.00  0.00     0.210 HD
ENDBRANCH  26  28
ENDBRANCH  25  26
ENDBRANCH  22  25
ENDBRANCH   1  21
TORSDOF 8
ENDMDL
