MODEL 1
REMARK VINA RESULT:      -8.7      0.000      0.000
REMARK  7 active torsions:
REMARK  status: ('A' for Active; 'I' for Inactive)
REMARK    1  A    between atoms: C_2  and  O_3 
REMARK    2  A    between atoms: O_3  and  C_4 
REMARK    3  A    between atoms: C_4  and  C_5 
REMARK    4  A    between atoms: C_6  and  C_7 
REMARK    5  A    between atoms: C_18  and  S_19 
REMARK    6  A    between atoms: S_19  and  C_20 
REMARK    7  A    between atoms: C_20  and  C_21 
ROOT
HETATM    1  C   UNL     1      24.622  48.964  49.014  1.00  0.00     0.070 A 
HETATM    2  C   UNL     1      23.840  47.832  49.677  1.00  0.00     0.203 A 
HETATM    3  N   UNL     1      24.738  46.791  50.196  1.00  0.00    -0.082 N 
HETATM    4  C   UNL     1      26.101  46.847  50.121  1.00  0.00     0.726 A 
HETATM    5  N   UNL     1      26.688  47.916  49.555  1.00  0.00    -0.192 N 
HETATM    6  N   UNL     1      24.330  45.680  50.841  1.00  0.00    -0.128 NA
HETATM    7  C   UNL     1      25.501  45.061  51.039  1.00  0.00     0.226 A 
HETATM    8  N   UNL     1      26.613  45.763  50.643  1.00  0.00    -0.035 NA
HETATM    9  C   UNL     1      25.979  48.968  48.988  1.00  0.00     0.037 A 
HETATM   10  C   UNL     1      26.821  50.073  48.394  1.00  0.00     0.070 C 
HETATM   11  H   UNL     1      27.702  47.939  49.484  1.00  0.00     0.184 HD
ENDROOT
BRANCH   7  12
HETATM   12  S   UNL     1      25.564  43.465  51.730  1.00  0.00    -0.083 SA
BRANCH  12  13
HETATM   13  C   UNL     1      25.689  43.887  53.490  1.00  0.00     0.123 C 
BRANCH  13  14
HETATM   14  C   UNL     1      27.120  43.839  53.974  1.00  0.00    -0.027 A 
HETATM   15  C   UNL     1      27.796  44.969  54.464  1.00  0.00     0.041 A 
HETATM   16 CL   UNL     1      27.041  46.521  54.566  1.00  0.00    -0.084 Cl
HETATM   17  C   UNL     1      29.123  44.873  54.896  1.00  0.00     0.024 A 
HETATM   18  C   UNL     1      29.798  43.653  54.832  1.00  0.00     0.002 A 
HETATM   19  C   UNL     1      29.146  42.528  54.336  1.00  0.00     0.001 A 
HETATM   20  C   UNL     1      27.819  42.619  53.911  1.00  0.00     0.009 A 
ENDBRANCH  13  14
ENDBRANCH  12  13
ENDBRANCH   7  12
BRANCH   2  21
HETATM   21  C   UNL     1      22.781  47.195  48.777  1.00  0.00    -0.028 A 
HETATM   22  C   UNL     1      23.100  46.172  47.867  1.00  0.00     0.011 A 
HETATM   23  C   UNL     1      22.108  45.614  47.054  1.00  0.00     0.024 A 
HETATM   24  C   UNL     1      20.794  46.065  47.151  1.00  0.00     0.034 A 
HETATM   25 CL   UNL     1      19.577  45.377  46.148  1.00  0.00    -0.084 Cl
HETATM   26  C   UNL     1      20.457  47.068  48.056  1.00  0.00     0.024 A 
HETATM   27  C   UNL     1      21.445  47.629  48.867  1.00  0.00     0.011 A 
ENDBRANCH   2  21
BRANCH   1  28
HETATM   28  C   UNL     1      23.837  50.022  48.340  1.00  0.00     0.293 C 
HETATM   29  O   UNL     1      23.700  50.105  47.129  1.00  0.00    -0.259 OA
BRANCH  28  30
HETATM   30  O   UNL     1      23.282  50.848  49.260  1.00  0.00    -0.318 OA
BRANCH  30  31
HETATM   31  C   UNL     1      21.923  51.233  48.996  1.00  0.00     0.174 C 
HETATM   32  C   UNL     1      21.038  50.937  50.194  1.00  0.00     0.034 C 
ENDBRANCH  30  31
ENDBRANCH  28  30
ENDBRANCH   1  28
TORSDOF 7
ENDMDL
MODEL 2
REMARK VINA RESULT:      -8.5      3.285      4.651
REMARK  7 active torsions:
REMARK  status: ('A' for Active; 'I' for Inactive)
REMARK    1  A    between atoms: C_2  and  O_3 
REMARK    2  A    between atoms: O_3  and  C_4 
REMARK    3  A    between atoms: C_4  and  C_5 
REMARK    4  A    between atoms: C_6  and  C_7 
REMARK    5  A    between atoms: C_18  and  S_19 
REMARK    6  A    between atoms: S_19  and  C_20 
REMARK    7  A    between atoms: C_20  and  C_21 
ROOT
HETATM    1  C   UNL     1      23.377  45.419  49.407  1.00  0.00     0.070 A 
HETATM    2  C   UNL     1      24.001  44.664  50.578  1.00  0.00     0.203 A 
HETATM    3  N   UNL     1      24.701  45.576  51.494  1.00  0.00    -0.082 N 
HETATM    4  C   UNL     1      24.757  46.931  51.332  1.00  0.00     0.726 A 
HETATM    5  N   UNL     1      24.130  47.497  50.286  1.00  0.00    -0.192 N 
HETATM    6  N   UNL     1      25.335  45.193  52.620  1.00  0.00    -0.128 NA
HETATM    7  C   UNL     1      25.836  46.362  53.035  1.00  0.00     0.226 A 
HETATM    8  N   UNL     1      25.473  47.457  52.291  1.00  0.00    -0.035 NA
HETATM    9  C   UNL     1      23.454  46.771  49.312  1.00  0.00     0.037 A 
HETATM   10  C   UNL     1      22.823  47.591  48.212  1.00  0.00     0.070 C 
HETATM   11  H   UNL     1      24.196  48.505  50.161  1.00  0.00     0.184 HD
ENDROOT
BRANCH   7  12
HETATM   12  S   UNL     1      26.894  46.443  54.415  1.00  0.00    -0.083 SA
BRANCH  12  13
HETATM   13  C   UNL     1      26.914  44.695  54.900  1.00  0.00     0.123 C 
BRANCH  13  14
HETATM   14  C   UNL     1      28.089  43.962  54.296  1.00  0.00    -0.027 A 
HETATM   15  C   UNL     1      29.394  44.061  54.808  1.00  0.00     0.041 A 
HETATM   16 CL   UNL     1      29.769  45.031  56.189  1.00  0.00    -0.084 Cl
HETATM   17  C   UNL     1      30.450  43.366  54.208  1.00  0.00     0.024 A 
HETATM   18  C   UNL     1      30.221  42.573  53.083  1.00  0.00     0.002 A 
HETATM   19  C   UNL     1      28.936  42.475  52.556  1.00  0.00     0.001 A 
HETATM   20  C   UNL     1      27.880  43.163  53.156  1.00  0.00     0.009 A 
ENDBRANCH  13  14
ENDBRANCH  12  13
ENDBRANCH   7  12
BRANCH   2  21
HETATM   21  C   UNL     1      24.942  43.534  50.160  1.00  0.00    -0.028 A 
HETATM   22  C   UNL     1      26.196  43.790  49.580  1.00  0.00     0.011 A 
HETATM   23  C   UNL     1      27.032  42.733  49.205  1.00  0.00     0.024 A 
HETATM   24  C   UNL     1      26.626  41.417  49.415  1.00  0.00     0.034 A 
HETATM   25 CL   UNL     1      27.655  40.120  48.950  1.00  0.00    -0.084 Cl
HETATM   26  C   UNL     1      25.393  41.145  50.001  1.00  0.00     0.024 A 
HETATM   27  C   UNL     1      24.556  42.198  50.374  1.00  0.00     0.011 A 
ENDBRANCH   2  21
BRANCH   1  28
HETATM   28  C   UNL     1      22.744  44.610  48.341  1.00  0.00     0.293 C 
HETATM   29  O   UNL     1      23.309  44.270  47.314  1.00  0.00    -0.259 OA
BRANCH  28  30
HETATM   30  O   UNL     1      21.475  44.288  48.694  1.00  0.00    -0.318 OA
BRANCH  30  31
HETATM   31  C   UNL     1      20.453  44.758  47.800  1.00  0.00     0.174 C 
HETATM   32  C   UNL     1      19.612  45.834  48.464  1.00  0.00     0.034 C 
ENDBRANCH  30  31
ENDBRANCH  28  30
ENDBRANCH   1  28
TORSDOF 7
ENDMDL
MODEL 3
REMARK VINA RESULT:      -8.2      3.845      5.871
REMARK  7 active torsions:
REMARK  status: ('A' for Active; 'I' for Inactive)
REMARK    1  A    between atoms: C_2  and  O_3 
REMARK    2  A    between atoms: O_3  and  C_4 
REMARK    3  A    between atoms: C_4  and  C_5 
REMARK    4  A    between atoms: C_6  and  C_7 
REMARK    5  A    between atoms: C_18  and  S_19 
REMARK    6  A    between atoms: S_19  and  C_20 
REMARK    7  A    between atoms: C_20  and  C_21 
ROOT
HETATM    1  C   UNL     1      20.517  49.407  49.256  1.00  0.00     0.070 A 
HETATM    2  C   UNL     1      21.379  48.754  48.177  1.00  0.00     0.203 A 
HETATM    3  N   UNL     1      21.067  47.325  48.032  1.00  0.00    -0.082 N 
HETATM    4  C   UNL     1      20.105  46.674  48.752  1.00  0.00     0.726 A 
HETATM    5  N   UNL     1      19.371  47.360  49.646  1.00  0.00    -0.192 N 
HETATM    6  N   UNL     1      21.660  46.497  47.150  1.00  0.00    -0.128 NA
HETATM    7  C   UNL     1      21.074  45.335  47.463  1.00  0.00     0.226 A 
HETATM    8  N   UNL     1      20.088  45.410  48.416  1.00  0.00    -0.035 NA
HETATM    9  C   UNL     1      19.566  48.708  49.924  1.00  0.00     0.037 A 
HETATM   10  C   UNL     1      18.645  49.294  50.968  1.00  0.00     0.070 C 
HETATM   11  H   UNL     1      18.673  46.861  50.192  1.00  0.00     0.184 HD
ENDROOT
BRANCH   7  12
HETATM   12  S   UNL     1      21.574  43.849  46.709  1.00  0.00    -0.083 SA
BRANCH  12  13
HETATM   13  C   UNL     1      23.373  43.989  46.897  1.00  0.00     0.123 C 
BRANCH  13  14
HETATM   14  C   UNL     1      23.820  43.608  48.289  1.00  0.00    -0.027 A 
HETATM   15  C   UNL     1      24.041  42.277  48.680  1.00  0.00     0.041 A 
HETATM   16 CL   UNL     1      23.828  40.951  47.592  1.00  0.00    -0.084 Cl
HETATM   17  C   UNL     1      24.449  41.976  49.984  1.00  0.00     0.024 A 
HETATM   18  C   UNL     1      24.630  42.996  50.918  1.00  0.00     0.002 A 
HETATM   19  C   UNL     1      24.402  44.319  50.550  1.00  0.00     0.001 A 
HETATM   20  C   UNL     1      24.001  44.623  49.248  1.00  0.00     0.009 A 
ENDBRANCH  13  14
ENDBRANCH  12  13
ENDBRANCH   7  12
BRANCH   2  21
HETATM   21  C   UNL     1      22.883  48.932  48.388  1.00  0.00    -0.028 A 
HETATM   22  C   UNL     1      23.616  49.916  47.702  1.00  0.00     0.011 A 
HETATM   23  C   UNL     1      24.991  50.049  47.915  1.00  0.00     0.024 A 
HETATM   24  C   UNL     1      25.641  49.211  48.818  1.00  0.00     0.034 A 
HETATM   25 CL   UNL     1      27.333  49.377  49.075  1.00  0.00    -0.084 Cl
HETATM   26  C   UNL     1      24.928  48.241  49.516  1.00  0.00     0.024 A 
HETATM   27  C   UNL     1      23.555  48.103  49.305  1.00  0.00     0.011 A 
ENDBRANCH   2  21
BRANCH   1  28
HETATM   28  C   UNL     1      20.811  50.818  49.592  1.00  0.00     0.293 C 
HETATM   29  O   UNL     1      21.332  51.178  50.636  1.00  0.00    -0.259 OA
BRANCH  28  30
HETATM   30  O   UNL     1      20.447  51.626  48.566  1.00  0.00    -0.318 OA
BRANCH  30  31
HETATM   31  C   UNL     1      19.216  52.343  48.760  1.00  0.00     0.174 C 
HETATM   32  C   UNL     1      18.225  52.016  47.656  1.00  0.00     0.034 C 
ENDBRANCH  30  31
ENDBRANCH  28  30
ENDBRANCH   1  28
TORSDOF 7
ENDMDL
MODEL 4
REMARK VINA RESULT:      -8.2      2.909      4.105
REMARK  7 active torsions:
REMARK  status: ('A' for Active; 'I' for Inactive)
REMARK    1  A    between atoms: C_2  and  O_3 
REMARK    2  A    between atoms: O_3  and  C_4 
REMARK    3  A    between atoms: C_4  and  C_5 
REMARK    4  A    between atoms: C_6  and  C_7 
REMARK    5  A    between atoms: C_18  and  S_19 
REMARK    6  A    between atoms: S_19  and  C_20 
REMARK    7  A    between atoms: C_20  and  C_21 
ROOT
HETATM    1  C   UNL     1      23.306  45.891  49.446  1.00  0.00     0.070 A 
HETATM    2  C   UNL     1      23.467  44.646  50.316  1.00  0.00     0.203 A 
HETATM    3  N   UNL     1      24.453  44.862  51.384  1.00  0.00    -0.082 N 
HETATM    4  C   UNL     1      25.117  46.039  51.589  1.00  0.00     0.726 A 
HETATM    5  N   UNL     1      24.863  47.088  50.788  1.00  0.00    -0.192 N 
HETATM    6  N   UNL     1      24.791  43.943  52.311  1.00  0.00    -0.128 NA
HETATM    7  C   UNL     1      25.741  44.605  52.985  1.00  0.00     0.226 A 
HETATM    8  N   UNL     1      25.943  45.905  52.594  1.00  0.00    -0.035 NA
HETATM    9  C   UNL     1      23.984  47.036  49.713  1.00  0.00     0.037 A 
HETATM   10  C   UNL     1      23.842  48.319  48.928  1.00  0.00     0.070 C 
HETATM   11  H   UNL     1      25.378  47.953  50.935  1.00  0.00     0.184 HD
ENDROOT
BRANCH   7  12
HETATM   12  S   UNL     1      26.652  43.824  54.245  1.00  0.00    -0.083 SA
BRANCH  12  13
HETATM   13  C   UNL     1      28.339  44.181  53.682  1.00  0.00     0.123 C 
BRANCH  13  14
HETATM   14  C   UNL     1      29.306  44.269  54.839  1.00  0.00    -0.027 A 
HETATM   15  C   UNL     1      29.399  45.398  55.671  1.00  0.00     0.041 A 
HETATM   16 CL   UNL     1      28.401  46.790  55.445  1.00  0.00    -0.084 Cl
HETATM   17  C   UNL     1      30.317  45.431  56.726  1.00  0.00     0.024 A 
HETATM   18  C   UNL     1      31.161  44.346  56.960  1.00  0.00     0.002 A 
HETATM   19  C   UNL     1      31.091  43.225  56.137  1.00  0.00     0.001 A 
HETATM   20  C   UNL     1      30.172  43.186  55.087  1.00  0.00     0.009 A 
ENDBRANCH  13  14
ENDBRANCH  12  13
ENDBRANCH   7  12
BRANCH   2  21
HETATM   21  C   UNL     1      23.825  43.382  49.535  1.00  0.00    -0.028 A 
HETATM   22  C   UNL     1      22.852  42.437  49.168  1.00  0.00     0.011 A 
HETATM   23  C   UNL     1      23.213  41.288  48.457  1.00  0.00     0.024 A 
HETATM   24  C   UNL     1      24.544  41.080  48.100  1.00  0.00     0.034 A 
HETATM   25 CL   UNL     1      24.985  39.665  47.229  1.00  0.00    -0.084 Cl
HETATM   26  C   UNL     1      25.519  42.012  48.444  1.00  0.00     0.024 A 
HETATM   27  C   UNL     1      25.162  43.158  49.155  1.00  0.00     0.011 A 
ENDBRANCH   2  21
BRANCH   1  28
HETATM   28  C   UNL     1      22.433  45.775  48.256  1.00  0.00     0.293 C 
HETATM   29  O   UNL     1      22.813  45.377  47.165  1.00  0.00    -0.259 OA
BRANCH  28  30
HETATM   30  O   UNL     1      21.167  46.142  48.571  1.00  0.00    -0.318 OA
BRANCH  30  31
HETATM   31  C   UNL     1      20.205  45.074  48.580  1.00  0.00     0.174 C 
HETATM   32  C   UNL     1      19.295  45.160  47.367  1.00  0.00     0.034 C 
ENDBRANCH  30  31
ENDBRANCH  28  30
ENDBRANCH   1  28
TORSDOF 7
ENDMDL
MODEL 5
REMARK VINA RESULT:      -8.1      3.675      8.232
REMARK  7 active torsions:
REMARK  status: ('A' for Active; 'I' for Inactive)
REMARK    1  A    between atoms: C_2  and  O_3 
REMARK    2  A    between atoms: O_3  and  C_4 
REMARK    3  A    between atoms: C_4  and  C_5 
REMARK    4  A    between atoms: C_6  and  C_7 
REMARK    5  A    between atoms: C_18  and  S_19 
REMARK    6  A    between atoms: S_19  and  C_20 
REMARK    7  A    between atoms: C_20  and  C_21 
ROOT
HETATM    1  C   UNL     1      26.379  42.502  50.760  1.00  0.00     0.070 A 
HETATM    2  C   UNL     1      25.139  43.218  51.289  1.00  0.00     0.203 A 
HETATM    3  N   UNL     1      24.236  43.606  50.196  1.00  0.00    -0.082 N 
HETATM    4  C   UNL     1      24.466  43.333  48.877  1.00  0.00     0.726 A 
HETATM    5  N   UNL     1      25.572  42.654  48.527  1.00  0.00    -0.192 N 
HETATM    6  N   UNL     1      23.059  44.242  50.364  1.00  0.00    -0.128 NA
HETATM    7  C   UNL     1      22.679  44.407  49.091  1.00  0.00     0.226 A 
HETATM    8  N   UNL     1      23.499  43.832  48.152  1.00  0.00    -0.035 NA
HETATM    9  C   UNL     1      26.541  42.245  49.437  1.00  0.00     0.037 A 
HETATM   10  C   UNL     1      27.715  41.502  48.845  1.00  0.00     0.070 C 
HETATM   11  H   UNL     1      25.746  42.474  47.541  1.00  0.00     0.184 HD
ENDROOT
BRANCH   7  12
HETATM   12  S   UNL     1      21.252  45.320  48.695  1.00  0.00    -0.083 SA
BRANCH  12  13
HETATM   13  C   UNL     1      21.956  46.517  47.527  1.00  0.00     0.123 C 
BRANCH  13  14
HETATM   14  C   UNL     1      21.738  47.939  47.987  1.00  0.00    -0.027 A 
HETATM   15  C   UNL     1      22.585  48.582  48.905  1.00  0.00     0.041 A 
HETATM   16 CL   UNL     1      23.967  47.798  49.586  1.00  0.00    -0.084 Cl
HETATM   17  C   UNL     1      22.336  49.900  49.303  1.00  0.00     0.024 A 
HETATM   18  C   UNL     1      21.232  50.589  48.802  1.00  0.00     0.002 A 
HETATM   19  C   UNL     1      20.375  49.962  47.902  1.00  0.00     0.001 A 
HETATM   20  C   UNL     1      20.624  48.650  47.498  1.00  0.00     0.009 A 
ENDBRANCH  13  14
ENDBRANCH  12  13
ENDBRANCH   7  12
BRANCH   2  21
HETATM   21  C   UNL     1      25.446  44.436  52.159  1.00  0.00    -0.028 A 
HETATM   22  C   UNL     1      25.891  45.649  51.607  1.00  0.00     0.011 A 
HETATM   23  C   UNL     1      26.167  46.744  52.432  1.00  0.00     0.024 A 
HETATM   24  C   UNL     1      25.992  46.638  53.810  1.00  0.00     0.034 A 
HETATM   25 CL   UNL     1      26.336  47.985  54.822  1.00  0.00    -0.084 Cl
HETATM   26  C   UNL     1      25.540  45.448  54.374  1.00  0.00     0.024 A 
HETATM   27  C   UNL     1      25.266  44.353  53.553  1.00  0.00     0.011 A 
ENDBRANCH   2  21
BRANCH   1  28
HETATM   28  C   UNL     1      27.433  42.161  51.742  1.00  0.00     0.293 C 
HETATM   29  O   UNL     1      27.451  41.130  52.396  1.00  0.00    -0.259 OA
BRANCH  28  30
HETATM   30  O   UNL     1      28.372  43.139  51.774  1.00  0.00    -0.318 OA
BRANCH  30  31
HETATM   31  C   UNL     1      29.348  43.014  52.822  1.00  0.00     0.174 C 
HETATM   32  C   UNL     1      29.003  43.925  53.988  1.00  0.00     0.034 C 
ENDBRANCH  30  31
ENDBRANCH  28  30
ENDBRANCH   1  28
TORSDOF 7
ENDMDL
MODEL 6
REMARK VINA RESULT:      -8.0      4.393      6.318
REMARK  7 active torsions:
REMARK  status: ('A' for Active; 'I' for Inactive)
REMARK    1  A    between atoms: C_2  and  O_3 
REMARK    2  A    between atoms: O_3  and  C_4 
REMARK    3  A    between atoms: C_4  and  C_5 
REMARK    4  A    between atoms: C_6  and  C_7 
REMARK    5  A    between atoms: C_18  and  S_19 
REMARK    6  A    between atoms: S_19  and  C_20 
REMARK    7  A    between atoms: C_20  and  C_21 
ROOT
HETATM    1  C   UNL     1      23.438  43.035  49.219  1.00  0.00     0.070 A 
HETATM    2  C   UNL     1      24.319  42.600  50.387  1.00  0.00     0.203 A 
HETATM    3  N   UNL     1      24.726  43.747  51.210  1.00  0.00    -0.082 N 
HETATM    4  C   UNL     1      24.337  45.036  50.974  1.00  0.00     0.726 A 
HETATM    5  N   UNL     1      23.519  45.300  49.941  1.00  0.00    -0.192 N 
HETATM    6  N   UNL     1      25.495  43.664  52.313  1.00  0.00    -0.128 NA
HETATM    7  C   UNL     1      25.612  44.959  52.636  1.00  0.00     0.226 A 
HETATM    8  N   UNL     1      24.886  45.827  51.859  1.00  0.00    -0.035 NA
HETATM    9  C   UNL     1      23.073  44.331  49.050  1.00  0.00     0.037 A 
HETATM   10  C   UNL     1      22.167  44.830  47.949  1.00  0.00     0.070 C 
HETATM   11  H   UNL     1      23.253  46.265  49.760  1.00  0.00     0.184 HD
ENDROOT
BRANCH   7  12
HETATM   12  S   UNL     1      26.644  45.466  53.942  1.00  0.00    -0.083 SA
BRANCH  12  13
HETATM   13  C   UNL     1      28.163  44.574  53.509  1.00  0.00     0.123 C 
BRANCH  13  14
HETATM   14  C   UNL     1      29.135  44.534  54.665  1.00  0.00    -0.027 A 
HETATM   15  C   UNL     1      30.171  43.590  54.756  1.00  0.00     0.041 A 
HETATM   16 CL   UNL     1      30.431  42.388  53.541  1.00  0.00    -0.084 Cl
HETATM   17  C   UNL     1      31.042  43.592  55.851  1.00  0.00     0.024 A 
HETATM   18  C   UNL     1      30.885  44.527  56.874  1.00  0.00     0.002 A 
HETATM   19  C   UNL     1      29.855  45.461  56.805  1.00  0.00     0.001 A 
HETATM   20  C   UNL     1      28.988  45.465  55.711  1.00  0.00     0.009 A 
ENDBRANCH  13  14
ENDBRANCH  12  13
ENDBRANCH   7  12
BRANCH   2  21
HETATM   21  C   UNL     1      25.556  41.802  49.972  1.00  0.00    -0.028 A 
HETATM   22  C   UNL     1      26.506  42.320  49.075  1.00  0.00     0.011 A 
HETATM   23  C   UNL     1      27.623  41.562  48.712  1.00  0.00     0.024 A 
HETATM   24  C   UNL     1      27.805  40.289  49.249  1.00  0.00     0.034 A 
HETATM   25 CL   UNL     1      29.180  39.359  48.797  1.00  0.00    -0.084 Cl
HETATM   26  C   UNL     1      26.881  39.765  50.148  1.00  0.00     0.024 A 
HETATM   27  C   UNL     1      25.763  40.518  50.510  1.00  0.00     0.011 A 
ENDBRANCH   2  21
BRANCH   1  28
HETATM   28  C   UNL     1      23.055  41.995  48.237  1.00  0.00     0.293 C 
HETATM   29  O   UNL     1      22.210  41.138  48.444  1.00  0.00    -0.259 OA
BRANCH  28  30
HETATM   30  O   UNL     1      23.751  42.163  47.086  1.00  0.00    -0.318 OA
BRANCH  30  31
HETATM   31  C   UNL     1      23.068  41.747  45.892  1.00  0.00     0.174 C 
HETATM   32  C   UNL     1      23.482  42.605  44.710  1.00  0.00     0.034 C 
ENDBRANCH  30  31
ENDBRANCH  28  30
ENDBRANCH   1  28
TORSDOF 7
ENDMDL
MODEL 7
REMARK VINA RESULT:      -8.0      3.727      8.227
REMARK  7 active torsions:
REMARK  status: ('A' for Active; 'I' for Inactive)
REMARK    1  A    between atoms: C_2  and  O_3 
REMARK    2  A    between atoms: O_3  and  C_4 
REMARK    3  A    between atoms: C_4  and  C_5 
REMARK    4  A    between atoms: C_6  and  C_7 
REMARK    5  A    between atoms: C_18  and  S_19 
REMARK    6  A    between atoms: S_19  and  C_20 
REMARK    7  A    between atoms: C_20  and  C_21 
ROOT
HETATM    1  C   UNL     1      27.320  44.327  52.486  1.00  0.00     0.070 A 
HETATM    2  C   UNL     1      27.081  44.663  51.016  1.00  0.00     0.203 A 
HETATM    3  N   UNL     1      26.319  45.911  50.867  1.00  0.00    -0.082 N 
HETATM    4  C   UNL     1      25.905  46.686  51.913  1.00  0.00     0.726 A 
HETATM    5  N   UNL     1      26.211  46.318  53.169  1.00  0.00    -0.192 N 
HETATM    6  N   UNL     1      25.972  46.459  49.686  1.00  0.00    -0.128 NA
HETATM    7  C   UNL     1      25.262  47.517  50.099  1.00  0.00     0.226 A 
HETATM    8  N   UNL     1      25.228  47.709  51.458  1.00  0.00    -0.035 NA
HETATM    9  C   UNL     1      26.896  45.149  53.480  1.00  0.00     0.037 A 
HETATM   10  C   UNL     1      27.135  44.909  54.951  1.00  0.00     0.070 C 
HETATM   11  H   UNL     1      25.879  46.890  53.942  1.00  0.00     0.184 HD
ENDROOT
BRANCH   7  12
HETATM   12  S   UNL     1      24.431  48.537  48.960  1.00  0.00    -0.083 SA
BRANCH  12  13
HETATM   13  C   UNL     1      22.740  47.908  49.147  1.00  0.00     0.123 C 
BRANCH  13  14
HETATM   14  C   UNL     1      21.713  48.997  48.943  1.00  0.00    -0.027 A 
HETATM   15  C   UNL     1      20.335  48.739  48.863  1.00  0.00     0.041 A 
HETATM   16 CL   UNL     1      19.688  47.142  49.001  1.00  0.00    -0.084 Cl
HETATM   17  C   UNL     1      19.425  49.783  48.666  1.00  0.00     0.024 A 
HETATM   18  C   UNL     1      19.878  51.096  48.535  1.00  0.00     0.002 A 
HETATM   19  C   UNL     1      21.242  51.367  48.599  1.00  0.00     0.001 A 
HETATM   20  C   UNL     1      22.152  50.328  48.801  1.00  0.00     0.009 A 
ENDBRANCH  13  14
ENDBRANCH  12  13
ENDBRANCH   7  12
BRANCH   2  21
HETATM   21  C   UNL     1      26.399  43.547  50.224  1.00  0.00    -0.028 A 
HETATM   22  C   UNL     1      27.090  42.793  49.260  1.00  0.00     0.011 A 
HETATM   23  C   UNL     1      26.435  41.782  48.550  1.00  0.00     0.024 A 
HETATM   24  C   UNL     1      25.093  41.510  48.805  1.00  0.00     0.034 A 
HETATM   25 CL   UNL     1      24.290  40.267  47.927  1.00  0.00    -0.084 Cl
HETATM   26  C   UNL     1      24.397  42.237  49.766  1.00  0.00     0.024 A 
HETATM   27  C   UNL     1      25.046  43.249  50.474  1.00  0.00     0.011 A 
ENDBRANCH   2  21
BRANCH   1  28
HETATM   28  C   UNL     1      27.971  43.032  52.787  1.00  0.00     0.293 C 
HETATM   29  O   UNL     1      27.401  42.084  53.304  1.00  0.00    -0.259 OA
BRANCH  28  30
HETATM   30  O   UNL     1      29.263  43.055  52.376  1.00  0.00    -0.318 OA
BRANCH  30  31
HETATM   31  C   UNL     1      30.198  42.427  53.268  1.00  0.00     0.174 C 
HETATM   32  C   UNL     1      30.387  43.260  54.524  1.00  0.00     0.034 C 
ENDBRANCH  30  31
ENDBRANCH  28  30
ENDBRANCH   1  28
TORSDOF 7
ENDMDL
MODEL 8
REMARK VINA RESULT:      -7.8      2.799      4.385
REMARK  7 active torsions:
REMARK  status: ('A' for Active; 'I' for Inactive)
REMARK    1  A    between atoms: C_2  and  O_3 
REMARK    2  A    between atoms: O_3  and  C_4 
REMARK    3  A    between atoms: C_4  and  C_5 
REMARK    4  A    between atoms: C_6  and  C_7 
REMARK    5  A    between atoms: C_18  and  S_19 
REMARK    6  A    between atoms: S_19  and  C_20 
REMARK    7  A    between atoms: C_20  and  C_21 
ROOT
HETATM    1  C   UNL     1      20.071  49.560  48.812  1.00  0.00     0.070 A 
HETATM    2  C   UNL     1      20.921  48.338  49.153  1.00  0.00     0.203 A 
HETATM    3  N   UNL     1      22.348  48.680  49.223  1.00  0.00    -0.082 N 
HETATM    4  C   UNL     1      22.846  49.939  49.037  1.00  0.00     0.726 A 
HETATM    5  N   UNL     1      21.999  50.953  48.786  1.00  0.00    -0.192 N 
HETATM    6  N   UNL     1      23.332  47.806  49.518  1.00  0.00    -0.128 NA
HETATM    7  C   UNL     1      24.410  48.590  49.393  1.00  0.00     0.226 A 
HETATM    8  N   UNL     1      24.149  49.913  49.134  1.00  0.00    -0.035 NA
HETATM    9  C   UNL     1      20.625  50.789  48.655  1.00  0.00     0.037 A 
HETATM   10  C   UNL     1      19.846  52.050  48.364  1.00  0.00     0.070 C 
HETATM   11  H   UNL     1      22.380  51.882  48.627  1.00  0.00     0.184 HD
ENDROOT
BRANCH   7  12
HETATM   12  S   UNL     1      26.015  47.933  49.530  1.00  0.00    -0.083 SA
BRANCH  12  13
HETATM   13  C   UNL     1      25.623  46.262  50.117  1.00  0.00     0.123 C 
BRANCH  13  14
HETATM   14  C   UNL     1      26.050  46.060  51.552  1.00  0.00    -0.027 A 
HETATM   15  C   UNL     1      26.821  44.963  51.971  1.00  0.00     0.041 A 
HETATM   16 CL   UNL     1      27.360  43.744  50.870  1.00  0.00    -0.084 Cl
HETATM   17  C   UNL     1      27.185  44.819  53.314  1.00  0.00     0.024 A 
HETATM   18  C   UNL     1      26.776  45.760  54.259  1.00  0.00     0.002 A 
HETATM   19  C   UNL     1      26.000  46.846  53.862  1.00  0.00     0.001 A 
HETATM   20  C   UNL     1      25.639  46.995  52.522  1.00  0.00     0.009 A 
ENDBRANCH  13  14
ENDBRANCH  12  13
ENDBRANCH   7  12
BRANCH   2  21
HETATM   21  C   UNL     1      20.722  47.156  48.205  1.00  0.00    -0.028 A 
HETATM   22  C   UNL     1      20.021  46.002  48.595  1.00  0.00     0.011 A 
HETATM   23  C   UNL     1      19.861  44.936  47.704  1.00  0.00     0.024 A 
HETATM   24  C   UNL     1      20.390  45.019  46.418  1.00  0.00     0.034 A 
HETATM   25 CL   UNL     1      20.193  43.704  45.326  1.00  0.00    -0.084 Cl
HETATM   26  C   UNL     1      21.075  46.159  46.009  1.00  0.00     0.024 A 
HETATM   27  C   UNL     1      21.239  47.224  46.897  1.00  0.00     0.011 A 
ENDBRANCH   2  21
BRANCH   1  28
HETATM   28  C   UNL     1      18.625  49.336  48.589  1.00  0.00     0.293 C 
HETATM   29  O   UNL     1      17.803  49.230  49.486  1.00  0.00    -0.259 OA
BRANCH  28  30
HETATM   30  O   UNL     1      18.359  49.300  47.260  1.00  0.00    -0.318 OA
BRANCH  30  31
HETATM   31  C   UNL     1      17.455  48.263  46.845  1.00  0.00     0.174 C 
HETATM   32  C   UNL     1      17.814  47.760  45.458  1.00  0.00     0.034 C 
ENDBRANCH  30  31
ENDBRANCH  28  30
ENDBRANCH   1  28
TORSDOF 7
ENDMDL
MODEL 9
REMARK VINA RESULT:      -7.8      1.637      2.246
REMARK  7 active torsions:
REMARK  status: ('A' for Active; 'I' for Inactive)
REMARK    1  A    between atoms: C_2  and  O_3 
REMARK    2  A    between atoms: O_3  and  C_4 
REMARK    3  A    between atoms: C_4  and  C_5 
REMARK    4  A    between atoms: C_6  and  C_7 
REMARK    5  A    between atoms: C_18  and  S_19 
REMARK    6  A    between atoms: S_19  and  C_20 
REMARK    7  A    between atoms: C_20  and  C_21 
ROOT
HETATM    1  C   UNL     1      22.152  49.011  48.735  1.00  0.00     0.070 A 
HETATM    2  C   UNL     1      22.271  47.568  49.221  1.00  0.00     0.203 A 
HETATM    3  N   UNL     1      23.672  47.193  49.453  1.00  0.00    -0.082 N 
HETATM    4  C   UNL     1      24.731  48.040  49.284  1.00  0.00     0.726 A 
HETATM    5  N   UNL     1      24.507  49.307  48.895  1.00  0.00    -0.192 N 
HETATM    6  N   UNL     1      24.079  45.987  49.897  1.00  0.00    -0.128 NA
HETATM    7  C   UNL     1      25.408  46.147  49.877  1.00  0.00     0.226 A 
HETATM    8  N   UNL     1      25.845  47.404  49.540  1.00  0.00    -0.035 NA
HETATM    9  C   UNL     1      23.243  49.807  48.603  1.00  0.00     0.037 A 
HETATM   10  C   UNL     1      23.201  51.254  48.174  1.00  0.00     0.070 C 
HETATM   11  H   UNL     1      25.303  49.923  48.750  1.00  0.00     0.184 HD
ENDROOT
BRANCH   7  12
HETATM   12  S   UNL     1      26.475  44.819  50.233  1.00  0.00    -0.083 SA
BRANCH  12  13
HETATM   13  C   UNL     1      25.841  44.333  51.861  1.00  0.00     0.123 C 
BRANCH  13  14
HETATM   14  C   UNL     1      26.833  44.638  52.959  1.00  0.00    -0.027 A 
HETATM   15  C   UNL     1      26.841  45.855  53.662  1.00  0.00     0.041 A 
HETATM   16 CL   UNL     1      25.703  47.114  53.334  1.00  0.00    -0.084 Cl
HETATM   17  C   UNL     1      27.785  46.091  54.667  1.00  0.00     0.024 A 
HETATM   18  C   UNL     1      28.740  45.122  54.977  1.00  0.00     0.002 A 
HETATM   19  C   UNL     1      28.754  43.917  54.281  1.00  0.00     0.001 A 
HETATM   20  C   UNL     1      27.809  43.676  53.281  1.00  0.00     0.009 A 
ENDBRANCH  13  14
ENDBRANCH  12  13
ENDBRANCH   7  12
BRANCH   2  21
HETATM   21  C   UNL     1      21.610  46.543  48.299  1.00  0.00    -0.028 A 
HETATM   22  C   UNL     1      20.442  45.856  48.670  1.00  0.00     0.011 A 
HETATM   23  C   UNL     1      19.865  44.922  47.804  1.00  0.00     0.024 A 
HETATM   24  C   UNL     1      20.445  44.674  46.562  1.00  0.00     0.034 A 
HETATM   25 CL   UNL     1      19.734  43.521  45.501  1.00  0.00    -0.084 Cl
HETATM   26  C   UNL     1      21.594  45.355  46.172  1.00  0.00     0.024 A 
HETATM   27  C   UNL     1      22.174  46.286  47.035  1.00  0.00     0.011 A 
ENDBRANCH   2  21
BRANCH   1  28
HETATM   28  C   UNL     1      20.805  49.484  48.345  1.00  0.00     0.293 C 
HETATM   29  O   UNL     1      20.460  49.692  47.192  1.00  0.00    -0.259 OA
BRANCH  28  30
HETATM   30  O   UNL     1      20.023  49.616  49.444  1.00  0.00    -0.318 OA
BRANCH  30  31
HETATM   31  C   UNL     1      20.100  50.893  50.100  1.00  0.00     0.174 C 
HETATM   32  C   UNL     1      19.121  51.875  49.479  1.00  0.00     0.034 C 
ENDBRANCH  30  31
ENDBRANCH  28  30
ENDBRANCH   1  28
TORSDOF 7
ENDMDL
MODEL 10
REMARK VINA RESULT:      -7.7      2.902      4.558
REMARK  7 active torsions:
REMARK  status: ('A' for Active; 'I' for Inactive)
REMARK    1  A    between atoms: C_2  and  O_3 
REMARK    2  A    between atoms: O_3  and  C_4 
REMARK    3  A    between atoms: C_4  and  C_5 
REMARK    4  A    between atoms: C_6  and  C_7 
REMARK    5  A    between atoms: C_18  and  S_19 
REMARK    6  A    between atoms: S_19  and  C_20 
REMARK    7  A    between atoms: C_20  and  C_21 
ROOT
HETATM    1  C   UNL     1      21.054  46.397  47.004  1.00  0.00     0.070 A 
HETATM    2  C   UNL     1      21.917  47.526  47.563  1.00  0.00     0.203 A 
HETATM    3  N   UNL     1      22.881  47.025  48.552  1.00  0.00    -0.082 N 
HETATM    4  C   UNL     1      23.008  45.710  48.902  1.00  0.00     0.726 A 
HETATM    5  N   UNL     1      22.225  44.791  48.310  1.00  0.00    -0.192 N 
HETATM    6  N   UNL     1      23.780  47.791  49.202  1.00  0.00    -0.128 NA
HETATM    7  C   UNL     1      24.351  46.883  50.004  1.00  0.00     0.226 A 
HETATM    8  N   UNL     1      23.928  45.589  49.823  1.00  0.00    -0.035 NA
HETATM    9  C   UNL     1      21.241  45.107  47.380  1.00  0.00     0.037 A 
HETATM   10  C   UNL     1      20.461  43.934  46.837  1.00  0.00     0.070 C 
HETATM   11  H   UNL     1      22.311  43.818  48.593  1.00  0.00     0.184 HD
ENDROOT
BRANCH   7  12
HETATM   12  S   UNL     1      25.524  47.356  51.199  1.00  0.00    -0.083 SA
BRANCH  12  13
HETATM   13  C   UNL     1      25.491  45.892  52.270  1.00  0.00     0.123 C 
BRANCH  13  14
HETATM   14  C   UNL     1      26.549  45.964  53.345  1.00  0.00    -0.027 A 
HETATM   15  C   UNL     1      27.263  44.838  53.788  1.00  0.00     0.041 A 
HETATM   16 CL   UNL     1      26.996  43.262  53.131  1.00  0.00    -0.084 Cl
HETATM   17  C   UNL     1      28.230  44.957  54.792  1.00  0.00     0.024 A 
HETATM   18  C   UNL     1      28.490  46.197  55.376  1.00  0.00     0.002 A 
HETATM   19  C   UNL     1      27.782  47.320  54.957  1.00  0.00     0.001 A 
HETATM   20  C   UNL     1      26.821  47.206  53.951  1.00  0.00     0.009 A 
ENDBRANCH  13  14
ENDBRANCH  12  13
ENDBRANCH   7  12
BRANCH   2  21
HETATM   21  C   UNL     1      21.118  48.682  48.165  1.00  0.00    -0.028 A 
HETATM   22  C   UNL     1      21.159  49.976  47.618  1.00  0.00     0.011 A 
HETATM   23  C   UNL     1      20.419  51.012  48.196  1.00  0.00     0.024 A 
HETATM   24  C   UNL     1      19.627  50.763  49.314  1.00  0.00     0.034 A 
HETATM   25 CL   UNL     1      18.721  52.041  50.023  1.00  0.00    -0.084 Cl
HETATM   26  C   UNL     1      19.564  49.484  49.861  1.00  0.00     0.024 A 
HETATM   27  C   UNL     1      20.303  48.448  49.289  1.00  0.00     0.011 A 
ENDBRANCH   2  21
BRANCH   1  28
HETATM   28  C   UNL     1      19.956  46.777  46.086  1.00  0.00     0.293 C 
HETATM   29  O   UNL     1      20.093  46.928  44.882  1.00  0.00    -0.259 OA
BRANCH  28  30
HETATM   30  O   UNL     1      18.794  46.897  46.774  1.00  0.00    -0.318 OA
BRANCH  30  31
HETATM   31  C   UNL     1      17.753  47.618  46.096  1.00  0.00     0.174 C 
HETATM   32  C   UNL     1      17.571  48.998  46.704  1.00  0.00     0.034 C 
ENDBRANCH  30  31
ENDBRANCH  28  30
ENDBRANCH   1  28
TORSDOF 7
ENDMDL
