MODEL 1
REMARK VINA RESULT:      -9.3      0.000      0.000
REMARK  5 active torsions:
REMARK  status: ('A' for Active; 'I' for Inactive)
REMARK    1  A    between atoms: C_2  and  N_3 
REMARK    2  A    between atoms: C_2  and  C_14 
REMARK       I    between atoms: N_3  and  C_4 
REMARK       I    between atoms: C_4  and  N_5 
REMARK    3  A    between atoms: N_5  and  C_6 
REMARK    4  A    between atoms: C_6  and  C_7 
REMARK    5  A    between atoms: C_16  and  C_17 
ROOT
HETATM    1  C   UNL     1      25.744  48.477  49.376  1.00  0.00     0.041 C 
HETATM    2  C   UNL     1      24.745  47.332  49.523  1.00  0.00     0.153 C 
ENDROOT
BRANCH   2   3
HETATM    3  N   UNL     1      23.431  47.825  49.884  1.00  0.00    -0.332 N 
HETATM    4  C   UNL     1      22.438  47.926  48.952  1.00  0.00     0.317 C 
HETATM    5  N   UNL     1      21.332  48.555  49.446  1.00  0.00    -0.339 N 
HETATM    6  O   UNL     1      22.540  47.505  47.807  1.00  0.00    -0.247 OA
HETATM    7  H   UNL     1      21.198  48.517  50.445  1.00  0.00     0.164 HD
HETATM    8  H   UNL     1      23.384  48.420  50.700  1.00  0.00     0.165 HD
BRANCH   5   9
HETATM    9  C   UNL     1      20.140  48.663  48.637  1.00  0.00     0.162 C 
BRANCH   9  10
HETATM   10  C   UNL     1      19.454  49.986  48.853  1.00  0.00    -0.040 A 
HETATM   11  C   UNL     1      18.301  50.057  49.651  1.00  0.00     0.009 A 
HETATM   12  C   UNL     1      17.665  51.279  49.872  1.00  0.00     0.001 A 
HETATM   13  C   UNL     1      18.173  52.441  49.296  1.00  0.00     0.000 A 
HETATM   14  C   UNL     1      19.314  52.384  48.498  1.00  0.00     0.001 A 
HETATM   15  C   UNL     1      19.952  51.161  48.275  1.00  0.00     0.009 A 
ENDBRANCH   9  10
ENDBRANCH   5   9
ENDBRANCH   2   3
BRANCH   2  16
HETATM   16  C   UNL     1      25.181  46.385  50.590  1.00  0.00     0.145 A 
HETATM   17  N   UNL     1      26.376  46.238  51.125  1.00  0.00    -0.210 NA
HETATM   18  C   UNL     1      26.201  45.229  52.051  1.00  0.00     0.181 A 
HETATM   19  N   UNL     1      24.947  44.750  52.095  1.00  0.00    -0.152 NA
HETATM   20  N   UNL     1      24.325  45.500  51.176  1.00  0.00    -0.261 N 
HETATM   21  H   UNL     1      23.336  45.357  51.004  1.00  0.00     0.190 HD
BRANCH  18  22
HETATM   22  C   UNL     1      27.289  44.742  52.896  1.00  0.00     0.014 A 
HETATM   23  C   UNL     1      28.184  43.774  52.414  1.00  0.00     0.017 A 
HETATM   24  C   UNL     1      29.232  43.312  53.216  1.00  0.00     0.025 A 
HETATM   25  C   UNL     1      29.391  43.813  54.505  1.00  0.00     0.034 A 
HETATM   26 CL   UNL     1      30.682  43.245  55.491  1.00  0.00    -0.084 Cl
HETATM   27  C   UNL     1      28.512  44.773  55.002  1.00  0.00     0.025 A 
HETATM   28  C   UNL     1      27.464  45.235  54.199  1.00  0.00     0.017 A 
ENDBRANCH  18  22
ENDBRANCH   2  16
TORSDOF 5
ENDMDL
MODEL 2
REMARK VINA RESULT:      -9.1      3.848      9.867
REMARK  5 active torsions:
REMARK  status: ('A' for Active; 'I' for Inactive)
REMARK    1  A    between atoms: C_2  and  N_3 
REMARK    2  A    between atoms: C_2  and  C_14 
REMARK       I    between atoms: N_3  and  C_4 
REMARK       I    between atoms: C_4  and  N_5 
REMARK    3  A    between atoms: N_5  and  C_6 
REMARK    4  A    between atoms: C_6  and  C_7 
REMARK    5  A    between atoms: C_16  and  C_17 
ROOT
HETATM    1  C   UNL     1      27.787  48.925  48.927  1.00  0.00     0.041 C 
HETATM    2  C   UNL     1      26.503  48.668  49.714  1.00  0.00     0.153 C 
ENDROOT
BRANCH   2   3
HETATM    3  N   UNL     1      26.282  47.249  49.910  1.00  0.00    -0.332 N 
HETATM    4  C   UNL     1      26.201  46.718  51.165  1.00  0.00     0.317 C 
HETATM    5  N   UNL     1      26.151  45.354  51.143  1.00  0.00    -0.339 N 
HETATM    6  O   UNL     1      26.185  47.394  52.186  1.00  0.00    -0.247 OA
HETATM    7  H   UNL     1      25.795  44.928  50.301  1.00  0.00     0.164 HD
HETATM    8  H   UNL     1      26.561  46.644  49.150  1.00  0.00     0.165 HD
BRANCH   5   9
HETATM    9  C   UNL     1      25.959  44.618  52.372  1.00  0.00     0.162 C 
BRANCH   9  10
HETATM   10  C   UNL     1      27.277  44.173  52.949  1.00  0.00    -0.040 A 
HETATM   11  C   UNL     1      28.167  43.419  52.168  1.00  0.00     0.009 A 
HETATM   12  C   UNL     1      29.397  43.014  52.686  1.00  0.00     0.001 A 
HETATM   13  C   UNL     1      29.750  43.356  53.989  1.00  0.00     0.000 A 
HETATM   14  C   UNL     1      28.874  44.099  54.777  1.00  0.00     0.001 A 
HETATM   15  C   UNL     1      27.641  44.506  54.261  1.00  0.00     0.009 A 
ENDBRANCH   9  10
ENDBRANCH   5   9
ENDBRANCH   2   3
BRANCH   2  16
HETATM   16  C   UNL     1      25.320  49.213  48.986  1.00  0.00     0.145 A 
HETATM   17  N   UNL     1      24.042  49.108  49.292  1.00  0.00    -0.210 NA
HETATM   18  C   UNL     1      23.404  49.795  48.278  1.00  0.00     0.181 A 
HETATM   19  N   UNL     1      24.243  50.306  47.363  1.00  0.00    -0.152 NA
HETATM   20  N   UNL     1      25.439  49.936  47.837  1.00  0.00    -0.261 N 
HETATM   21  H   UNL     1      26.278  50.206  47.334  1.00  0.00     0.190 HD
BRANCH  18  22
HETATM   22  C   UNL     1      21.951  49.942  48.225  1.00  0.00     0.014 A 
HETATM   23  C   UNL     1      21.136  48.835  47.944  1.00  0.00     0.017 A 
HETATM   24  C   UNL     1      19.744  48.969  47.900  1.00  0.00     0.025 A 
HETATM   25  C   UNL     1      19.160  50.210  48.135  1.00  0.00     0.034 A 
HETATM   26 CL   UNL     1      17.448  50.375  48.084  1.00  0.00    -0.084 Cl
HETATM   27  C   UNL     1      19.953  51.321  48.413  1.00  0.00     0.025 A 
HETATM   28  C   UNL     1      21.345  51.186  48.458  1.00  0.00     0.017 A 
ENDBRANCH  18  22
ENDBRANCH   2  16
TORSDOF 5
ENDMDL
MODEL 3
REMARK VINA RESULT:      -9.1      3.894      5.534
REMARK  5 active torsions:
REMARK  status: ('A' for Active; 'I' for Inactive)
REMARK    1  A    between atoms: C_2  and  N_3 
REMARK    2  A    between atoms: C_2  and  C_14 
REMARK       I    between atoms: N_3  and  C_4 
REMARK       I    between atoms: C_4  and  N_5 
REMARK    3  A    between atoms: N_5  and  C_6 
REMARK    4  A    between atoms: C_6  and  C_7 
REMARK    5  A    between atoms: C_16  and  C_17 
ROOT
HETATM    1  C   UNL     1      26.267  41.126  50.573  1.00  0.00     0.041 C 
HETATM    2  C   UNL     1      26.181  42.431  51.363  1.00  0.00     0.153 C 
ENDROOT
BRANCH   2   3
HETATM    3  N   UNL     1      26.046  43.571  50.478  1.00  0.00    -0.332 N 
HETATM    4  C   UNL     1      25.318  44.665  50.848  1.00  0.00     0.317 C 
HETATM    5  N   UNL     1      25.179  45.559  49.826  1.00  0.00    -0.339 N 
HETATM    6  O   UNL     1      24.843  44.814  51.966  1.00  0.00    -0.247 OA
HETATM    7  H   UNL     1      25.888  45.540  49.110  1.00  0.00     0.164 HD
HETATM    8  H   UNL     1      26.170  43.389  49.492  1.00  0.00     0.165 HD
BRANCH   5   9
HETATM    9  C   UNL     1      24.527  46.827  50.059  1.00  0.00     0.162 C 
BRANCH   9  10
HETATM   10  C   UNL     1      25.325  47.963  49.477  1.00  0.00    -0.040 A 
HETATM   11  C   UNL     1      24.673  48.997  48.786  1.00  0.00     0.009 A 
HETATM   12  C   UNL     1      25.399  50.064  48.255  1.00  0.00     0.001 A 
HETATM   13  C   UNL     1      26.783  50.108  48.407  1.00  0.00     0.000 A 
HETATM   14  C   UNL     1      27.443  49.085  49.086  1.00  0.00     0.001 A 
HETATM   15  C   UNL     1      26.718  48.015  49.618  1.00  0.00     0.009 A 
ENDBRANCH   9  10
ENDBRANCH   5   9
ENDBRANCH   2   3
BRANCH   2  16
HETATM   16  C   UNL     1      27.412  42.635  52.180  1.00  0.00     0.145 A 
HETATM   17  N   UNL     1      27.559  43.328  53.292  1.00  0.00    -0.210 NA
HETATM   18  C   UNL     1      28.895  43.172  53.603  1.00  0.00     0.181 A 
HETATM   19  N   UNL     1      29.569  42.418  52.719  1.00  0.00    -0.152 NA
HETATM   20  N   UNL     1      28.612  42.085  51.843  1.00  0.00    -0.261 N 
HETATM   21  H   UNL     1      28.845  41.492  51.053  1.00  0.00     0.190 HD
BRANCH  18  22
HETATM   22  C   UNL     1      29.500  43.776  54.787  1.00  0.00     0.014 A 
HETATM   23  C   UNL     1      29.010  44.989  55.294  1.00  0.00     0.017 A 
HETATM   24  C   UNL     1      29.581  45.567  56.432  1.00  0.00     0.025 A 
HETATM   25  C   UNL     1      30.646  44.937  57.070  1.00  0.00     0.034 A 
HETATM   26 CL   UNL     1      31.346  45.647  58.473  1.00  0.00    -0.084 Cl
HETATM   27  C   UNL     1      31.147  43.733  56.580  1.00  0.00     0.025 A 
HETATM   28  C   UNL     1      30.575  43.155  55.442  1.00  0.00     0.017 A 
ENDBRANCH  18  22
ENDBRANCH   2  16
TORSDOF 5
ENDMDL
MODEL 4
REMARK VINA RESULT:      -9.0      3.893      9.898
REMARK  5 active torsions:
REMARK  status: ('A' for Active; 'I' for Inactive)
REMARK    1  A    between atoms: C_2  and  N_3 
REMARK    2  A    between atoms: C_2  and  C_14 
REMARK       I    between atoms: N_3  and  C_4 
REMARK       I    between atoms: C_4  and  N_5 
REMARK    3  A    between atoms: N_5  and  C_6 
REMARK    4  A    between atoms: C_6  and  C_7 
REMARK    5  A    between atoms: C_16  and  C_17 
ROOT
HETATM    1  C   UNL     1      24.295  43.744  49.344  1.00  0.00     0.041 C 
HETATM    2  C   UNL     1      25.423  44.623  49.880  1.00  0.00     0.153 C 
ENDROOT
BRANCH   2   3
HETATM    3  N   UNL     1      25.679  44.352  51.280  1.00  0.00    -0.332 N 
HETATM    4  C   UNL     1      26.701  43.530  51.661  1.00  0.00     0.317 C 
HETATM    5  N   UNL     1      26.683  43.274  53.002  1.00  0.00    -0.339 N 
HETATM    6  O   UNL     1      27.528  43.074  50.882  1.00  0.00    -0.247 OA
HETATM    7  H   UNL     1      26.232  43.961  53.586  1.00  0.00     0.164 HD
HETATM    8  H   UNL     1      24.896  44.465  51.909  1.00  0.00     0.165 HD
BRANCH   5   9
HETATM    9  C   UNL     1      27.747  42.507  53.606  1.00  0.00     0.162 C 
BRANCH   9  10
HETATM   10  C   UNL     1      28.657  43.388  54.420  1.00  0.00    -0.040 A 
HETATM   11  C   UNL     1      28.236  44.672  54.800  1.00  0.00     0.009 A 
HETATM   12  C   UNL     1      29.063  45.492  55.568  1.00  0.00     0.001 A 
HETATM   13  C   UNL     1      30.320  45.038  55.963  1.00  0.00     0.000 A 
HETATM   14  C   UNL     1      30.752  43.767  55.588  1.00  0.00     0.001 A 
HETATM   15  C   UNL     1      29.925  42.945  54.818  1.00  0.00     0.009 A 
ENDBRANCH   9  10
ENDBRANCH   5   9
ENDBRANCH   2   3
BRANCH   2  16
HETATM   16  C   UNL     1      25.071  46.068  49.757  1.00  0.00     0.145 A 
HETATM   17  N   UNL     1      23.913  46.611  49.438  1.00  0.00    -0.210 NA
HETATM   18  C   UNL     1      24.164  47.968  49.476  1.00  0.00     0.181 A 
HETATM   19  N   UNL     1      25.432  48.272  49.798  1.00  0.00    -0.152 NA
HETATM   20  N   UNL     1      25.976  47.062  49.980  1.00  0.00    -0.261 N 
HETATM   21  H   UNL     1      26.951  46.991  50.249  1.00  0.00     0.190 HD
BRANCH  18  22
HETATM   22  C   UNL     1      23.134  48.964  49.192  1.00  0.00     0.014 A 
HETATM   23  C   UNL     1      21.782  48.592  49.138  1.00  0.00     0.017 A 
HETATM   24  C   UNL     1      20.791  49.543  48.874  1.00  0.00     0.025 A 
HETATM   25  C   UNL     1      21.146  50.873  48.662  1.00  0.00     0.034 A 
HETATM   26 CL   UNL     1      19.928  52.044  48.341  1.00  0.00    -0.084 Cl
HETATM   27  C   UNL     1      22.484  51.261  48.710  1.00  0.00     0.025 A 
HETATM   28  C   UNL     1      23.474  50.309  48.974  1.00  0.00     0.017 A 
ENDBRANCH  18  22
ENDBRANCH   2  16
TORSDOF 5
ENDMDL
MODEL 5
REMARK VINA RESULT:      -8.8      1.606      2.662
REMARK  5 active torsions:
REMARK  status: ('A' for Active; 'I' for Inactive)
REMARK    1  A    between atoms: C_2  and  N_3 
REMARK    2  A    between atoms: C_2  and  C_14 
REMARK       I    between atoms: N_3  and  C_4 
REMARK       I    between atoms: C_4  and  N_5 
REMARK    3  A    between atoms: N_5  and  C_6 
REMARK    4  A    between atoms: C_6  and  C_7 
REMARK    5  A    between atoms: C_16  and  C_17 
ROOT
HETATM    1  C   UNL     1      25.964  44.826  49.890  1.00  0.00     0.041 C 
HETATM    2  C   UNL     1      25.179  45.530  50.995  1.00  0.00     0.153 C 
ENDROOT
BRANCH   2   3
HETATM    3  N   UNL     1      24.792  46.867  50.594  1.00  0.00    -0.332 N 
HETATM    4  C   UNL     1      23.865  47.065  49.611  1.00  0.00     0.317 C 
HETATM    5  N   UNL     1      23.752  48.382  49.268  1.00  0.00    -0.339 N 
HETATM    6  O   UNL     1      23.220  46.160  49.097  1.00  0.00    -0.247 OA
HETATM    7  H   UNL     1      24.018  49.056  49.970  1.00  0.00     0.164 HD
HETATM    8  H   UNL     1      25.464  47.600  50.773  1.00  0.00     0.165 HD
BRANCH   5   9
HETATM    9  C   UNL     1      22.748  48.798  48.318  1.00  0.00     0.162 C 
BRANCH   9  10
HETATM   10  C   UNL     1      21.515  49.305  49.018  1.00  0.00    -0.040 A 
HETATM   11  C   UNL     1      21.449  50.640  49.446  1.00  0.00     0.009 A 
HETATM   12  C   UNL     1      20.307  51.127  50.082  1.00  0.00     0.001 A 
HETATM   13  C   UNL     1      19.219  50.284  50.298  1.00  0.00     0.000 A 
HETATM   14  C   UNL     1      19.273  48.955  49.882  1.00  0.00     0.001 A 
HETATM   15  C   UNL     1      20.417  48.465  49.246  1.00  0.00     0.009 A 
ENDBRANCH   9  10
ENDBRANCH   5   9
ENDBRANCH   2   3
BRANCH   2  16
HETATM   16  C   UNL     1      26.002  45.649  52.233  1.00  0.00     0.145 A 
HETATM   17  N   UNL     1      27.043  44.931  52.605  1.00  0.00    -0.210 NA
HETATM   18  C   UNL     1      27.402  45.476  53.822  1.00  0.00     0.181 A 
HETATM   19  N   UNL     1      26.614  46.494  54.209  1.00  0.00    -0.152 NA
HETATM   20  N   UNL     1      25.752  46.588  53.189  1.00  0.00    -0.261 N 
HETATM   21  H   UNL     1      25.032  47.302  53.212  1.00  0.00     0.190 HD
BRANCH  18  22
HETATM   22  C   UNL     1      28.535  44.981  54.599  1.00  0.00     0.014 A 
HETATM   23  C   UNL     1      29.034  45.726  55.679  1.00  0.00     0.017 A 
HETATM   24  C   UNL     1      30.114  45.252  56.432  1.00  0.00     0.025 A 
HETATM   25  C   UNL     1      30.702  44.032  56.109  1.00  0.00     0.034 A 
HETATM   26 CL   UNL     1      32.028  43.448  57.037  1.00  0.00    -0.084 Cl
HETATM   27  C   UNL     1      30.221  43.280  55.039  1.00  0.00     0.025 A 
HETATM   28  C   UNL     1      29.141  43.754  54.287  1.00  0.00     0.017 A 
ENDBRANCH  18  22
ENDBRANCH   2  16
TORSDOF 5
ENDMDL
MODEL 6
REMARK VINA RESULT:      -8.8      2.145      3.415
REMARK  5 active torsions:
REMARK  status: ('A' for Active; 'I' for Inactive)
REMARK    1  A    between atoms: C_2  and  N_3 
REMARK    2  A    between atoms: C_2  and  C_14 
REMARK       I    between atoms: N_3  and  C_4 
REMARK       I    between atoms: C_4  and  N_5 
REMARK    3  A    between atoms: N_5  and  C_6 
REMARK    4  A    between atoms: C_6  and  C_7 
REMARK    5  A    between atoms: C_16  and  C_17 
ROOT
HETATM    1  C   UNL     1      24.178  43.420  51.132  1.00  0.00     0.041 C 
HETATM    2  C   UNL     1      24.890  44.726  51.479  1.00  0.00     0.153 C 
ENDROOT
BRANCH   2   3
HETATM    3  N   UNL     1      25.021  45.577  50.313  1.00  0.00    -0.332 N 
HETATM    4  C   UNL     1      24.896  46.933  50.415  1.00  0.00     0.317 C 
HETATM    5  N   UNL     1      24.893  47.542  49.194  1.00  0.00    -0.339 N 
HETATM    6  O   UNL     1      24.791  47.523  51.482  1.00  0.00    -0.247 OA
HETATM    7  H   UNL     1      25.350  47.049  48.442  1.00  0.00     0.164 HD
HETATM    8  H   UNL     1      24.830  45.145  49.419  1.00  0.00     0.165 HD
BRANCH   5   9
HETATM    9  C   UNL     1      24.873  48.984  49.106  1.00  0.00     0.162 C 
BRANCH   9  10
HETATM   10  C   UNL     1      23.511  49.485  48.703  1.00  0.00    -0.040 A 
HETATM   11  C   UNL     1      22.565  48.595  48.169  1.00  0.00     0.009 A 
HETATM   12  C   UNL     1      21.295  49.043  47.807  1.00  0.00     0.001 A 
HETATM   13  C   UNL     1      20.956  50.384  47.973  1.00  0.00     0.000 A 
HETATM   14  C   UNL     1      21.888  51.279  48.497  1.00  0.00     0.001 A 
HETATM   15  C   UNL     1      23.161  50.832  48.860  1.00  0.00     0.009 A 
ENDBRANCH   9  10
ENDBRANCH   5   9
ENDBRANCH   2   3
BRANCH   2  16
HETATM   16  C   UNL     1      26.262  44.457  51.998  1.00  0.00     0.145 A 
HETATM   17  N   UNL     1      26.732  44.632  53.217  1.00  0.00    -0.210 NA
HETATM   18  C   UNL     1      28.048  44.224  53.125  1.00  0.00     0.181 A 
HETATM   19  N   UNL     1      28.399  43.815  51.894  1.00  0.00    -0.152 NA
HETATM   20  N   UNL     1      27.258  43.961  51.210  1.00  0.00    -0.261 N 
HETATM   21  H   UNL     1      27.231  43.709  50.228  1.00  0.00     0.190 HD
BRANCH  18  22
HETATM   22  C   UNL     1      28.956  44.241  54.269  1.00  0.00     0.014 A 
HETATM   23  C   UNL     1      29.827  43.165  54.500  1.00  0.00     0.017 A 
HETATM   24  C   UNL     1      30.704  43.180  55.588  1.00  0.00     0.025 A 
HETATM   25  C   UNL     1      30.716  44.270  56.454  1.00  0.00     0.034 A 
HETATM   26 CL   UNL     1      31.797  44.290  57.792  1.00  0.00    -0.084 Cl
HETATM   27  C   UNL     1      29.858  45.347  56.242  1.00  0.00     0.025 A 
HETATM   28  C   UNL     1      28.981  45.332  55.153  1.00  0.00     0.017 A 
ENDBRANCH  18  22
ENDBRANCH   2  16
TORSDOF 5
ENDMDL
MODEL 7
REMARK VINA RESULT:      -8.1      1.953      3.265
REMARK  5 active torsions:
REMARK  status: ('A' for Active; 'I' for Inactive)
REMARK    1  A    between atoms: C_2  and  N_3 
REMARK    2  A    between atoms: C_2  and  C_14 
REMARK       I    between atoms: N_3  and  C_4 
REMARK       I    between atoms: C_4  and  N_5 
REMARK    3  A    between atoms: N_5  and  C_6 
REMARK    4  A    between atoms: C_6  and  C_7 
REMARK    5  A    between atoms: C_16  and  C_17 
ROOT
HETATM    1  C   UNL     1      24.308  43.232  49.310  1.00  0.00     0.041 C 
HETATM    2  C   UNL     1      24.396  43.809  50.721  1.00  0.00     0.153 C 
ENDROOT
BRANCH   2   3
HETATM    3  N   UNL     1      23.891  45.167  50.765  1.00  0.00    -0.332 N 
HETATM    4  C   UNL     1      24.398  46.132  49.943  1.00  0.00     0.317 C 
HETATM    5  N   UNL     1      23.908  47.370  50.242  1.00  0.00    -0.339 N 
HETATM    6  O   UNL     1      25.204  45.905  49.050  1.00  0.00    -0.247 OA
HETATM    7  H   UNL     1      23.012  47.403  50.703  1.00  0.00     0.164 HD
HETATM    8  H   UNL     1      23.457  45.455  51.631  1.00  0.00     0.165 HD
BRANCH   5   9
HETATM    9  C   UNL     1      24.252  48.503  49.413  1.00  0.00     0.162 C 
BRANCH   9  10
HETATM   10  C   UNL     1      23.017  49.176  48.875  1.00  0.00    -0.040 A 
HETATM   11  C   UNL     1      22.859  50.565  49.012  1.00  0.00     0.009 A 
HETATM   12  C   UNL     1      21.727  51.203  48.505  1.00  0.00     0.001 A 
HETATM   13  C   UNL     1      20.742  50.462  47.857  1.00  0.00     0.000 A 
HETATM   14  C   UNL     1      20.884  49.082  47.718  1.00  0.00     0.001 A 
HETATM   15  C   UNL     1      22.017  48.441  48.226  1.00  0.00     0.009 A 
ENDBRANCH   9  10
ENDBRANCH   5   9
ENDBRANCH   2   3
BRANCH   2  16
HETATM   16  C   UNL     1      25.811  43.837  51.192  1.00  0.00     0.145 A 
HETATM   17  N   UNL     1      26.270  43.906  52.426  1.00  0.00    -0.210 NA
HETATM   18  C   UNL     1      27.641  43.900  52.269  1.00  0.00     0.181 A 
HETATM   19  N   UNL     1      28.036  43.839  50.986  1.00  0.00    -0.152 NA
HETATM   20  N   UNL     1      26.868  43.789  50.333  1.00  0.00    -0.261 N 
HETATM   21  H   UNL     1      26.868  43.726  49.320  1.00  0.00     0.190 HD
BRANCH  18  22
HETATM   22  C   UNL     1      28.560  43.954  53.403  1.00  0.00     0.014 A 
HETATM   23  C   UNL     1      28.390  44.917  54.409  1.00  0.00     0.017 A 
HETATM   24  C   UNL     1      29.263  44.968  55.501  1.00  0.00     0.025 A 
HETATM   25  C   UNL     1      30.312  44.057  55.593  1.00  0.00     0.034 A 
HETATM   26 CL   UNL     1      31.383  44.117  56.938  1.00  0.00    -0.084 Cl
HETATM   27  C   UNL     1      30.498  43.095  54.602  1.00  0.00     0.025 A 
HETATM   28  C   UNL     1      29.624  43.044  53.511  1.00  0.00     0.017 A 
ENDBRANCH  18  22
ENDBRANCH   2  16
TORSDOF 5
ENDMDL
MODEL 8
REMARK VINA RESULT:      -8.1      5.233      9.007
REMARK  5 active torsions:
REMARK  status: ('A' for Active; 'I' for Inactive)
REMARK    1  A    between atoms: C_2  and  N_3 
REMARK    2  A    between atoms: C_2  and  C_14 
REMARK       I    between atoms: N_3  and  C_4 
REMARK       I    between atoms: C_4  and  N_5 
REMARK    3  A    between atoms: N_5  and  C_6 
REMARK    4  A    between atoms: C_6  and  C_7 
REMARK    5  A    between atoms: C_16  and  C_17 
ROOT
HETATM    1  C   UNL     1      24.165  44.801  50.658  1.00  0.00     0.041 C 
HETATM    2  C   UNL     1      25.496  44.052  50.648  1.00  0.00     0.153 C 
ENDROOT
BRANCH   2   3
HETATM    3  N   UNL     1      25.323  42.683  50.203  1.00  0.00    -0.332 N 
HETATM    4  C   UNL     1      26.169  42.131  49.284  1.00  0.00     0.317 C 
HETATM    5  N   UNL     1      25.752  40.896  48.879  1.00  0.00    -0.339 N 
HETATM    6  O   UNL     1      27.177  42.689  48.872  1.00  0.00    -0.247 OA
HETATM    7  H   UNL     1      25.166  40.384  49.520  1.00  0.00     0.164 HD
HETATM    8  H   UNL     1      24.393  42.298  50.290  1.00  0.00     0.165 HD
BRANCH   5   9
HETATM    9  C   UNL     1      26.574  40.113  47.986  1.00  0.00     0.162 C 
BRANCH   9  10
HETATM   10  C   UNL     1      27.392  39.102  48.746  1.00  0.00    -0.040 A 
HETATM   11  C   UNL     1      28.736  39.371  49.048  1.00  0.00     0.009 A 
HETATM   12  C   UNL     1      29.501  38.450  49.764  1.00  0.00     0.001 A 
HETATM   13  C   UNL     1      28.931  37.251  50.185  1.00  0.00     0.000 A 
HETATM   14  C   UNL     1      27.599  36.969  49.888  1.00  0.00     0.001 A 
HETATM   15  C   UNL     1      26.832  37.890  49.169  1.00  0.00     0.009 A 
ENDBRANCH   9  10
ENDBRANCH   5   9
ENDBRANCH   2   3
BRANCH   2  16
HETATM   16  C   UNL     1      26.089  44.011  52.015  1.00  0.00     0.145 A 
HETATM   17  N   UNL     1      27.360  44.036  52.365  1.00  0.00    -0.210 NA
HETATM   18  C   UNL     1      27.324  43.975  53.743  1.00  0.00     0.181 A 
HETATM   19  N   UNL     1      26.080  43.907  54.247  1.00  0.00    -0.152 NA
HETATM   20  N   UNL     1      25.325  43.943  53.142  1.00  0.00    -0.261 N 
HETATM   21  H   UNL     1      24.315  43.916  53.229  1.00  0.00     0.190 HD
BRANCH  18  22
HETATM   22  C   UNL     1      28.534  43.987  54.561  1.00  0.00     0.014 A 
HETATM   23  C   UNL     1      28.832  45.092  55.373  1.00  0.00     0.017 A 
HETATM   24  C   UNL     1      29.985  45.104  56.164  1.00  0.00     0.025 A 
HETATM   25  C   UNL     1      30.849  44.013  56.147  1.00  0.00     0.034 A 
HETATM   26 CL   UNL     1      32.267  44.027  57.122  1.00  0.00    -0.084 Cl
HETATM   27  C   UNL     1      30.571  42.907  55.346  1.00  0.00     0.025 A 
HETATM   28  C   UNL     1      29.418  42.895  54.555  1.00  0.00     0.017 A 
ENDBRANCH  18  22
ENDBRANCH   2  16
TORSDOF 5
ENDMDL
MODEL 9
REMARK VINA RESULT:      -8.1      1.515      2.422
REMARK  5 active torsions:
REMARK  status: ('A' for Active; 'I' for Inactive)
REMARK    1  A    between atoms: C_2  and  N_3 
REMARK    2  A    between atoms: C_2  and  C_14 
REMARK       I    between atoms: N_3  and  C_4 
REMARK       I    between atoms: C_4  and  N_5 
REMARK    3  A    between atoms: N_5  and  C_6 
REMARK    4  A    between atoms: C_6  and  C_7 
REMARK    5  A    between atoms: C_16  and  C_17 
ROOT
HETATM    1  C   UNL     1      25.421  48.414  49.458  1.00  0.00     0.041 C 
HETATM    2  C   UNL     1      24.544  47.165  49.521  1.00  0.00     0.153 C 
ENDROOT
BRANCH   2   3
HETATM    3  N   UNL     1      23.165  47.507  49.807  1.00  0.00    -0.332 N 
HETATM    4  C   UNL     1      22.375  48.094  48.861  1.00  0.00     0.317 C 
HETATM    5  N   UNL     1      21.167  48.480  49.366  1.00  0.00    -0.339 N 
HETATM    6  O   UNL     1      22.721  48.258  47.698  1.00  0.00    -0.247 OA
HETATM    7  H   UNL     1      20.839  47.983  50.181  1.00  0.00     0.164 HD
HETATM    8  H   UNL     1      22.932  47.649  50.781  1.00  0.00     0.165 HD
BRANCH   5   9
HETATM    9  C   UNL     1      20.158  49.027  48.490  1.00  0.00     0.162 C 
BRANCH   9  10
HETATM   10  C   UNL     1      19.266  47.943  47.945  1.00  0.00    -0.040 A 
HETATM   11  C   UNL     1      18.316  47.331  48.779  1.00  0.00     0.009 A 
HETATM   12  C   UNL     1      17.473  46.336  48.283  1.00  0.00     0.001 A 
HETATM   13  C   UNL     1      17.572  45.941  46.951  1.00  0.00     0.000 A 
HETATM   14  C   UNL     1      18.514  46.536  46.114  1.00  0.00     0.001 A 
HETATM   15  C   UNL     1      19.360  47.532  46.609  1.00  0.00     0.009 A 
ENDBRANCH   9  10
ENDBRANCH   5   9
ENDBRANCH   2   3
BRANCH   2  16
HETATM   16  C   UNL     1      25.014  46.243  50.594  1.00  0.00     0.145 A 
HETATM   17  N   UNL     1      26.225  46.112  51.099  1.00  0.00    -0.210 NA
HETATM   18  C   UNL     1      26.080  45.123  52.050  1.00  0.00     0.181 A 
HETATM   19  N   UNL     1      24.829  44.640  52.140  1.00  0.00    -0.152 NA
HETATM   20  N   UNL     1      24.179  45.368  51.223  1.00  0.00    -0.261 N 
HETATM   21  H   UNL     1      23.186  45.217  51.082  1.00  0.00     0.190 HD
BRANCH  18  22
HETATM   22  C   UNL     1      27.193  44.658  52.874  1.00  0.00     0.014 A 
HETATM   23  C   UNL     1      28.056  43.657  52.403  1.00  0.00     0.017 A 
HETATM   24  C   UNL     1      29.128  43.215  53.185  1.00  0.00     0.025 A 
HETATM   25  C   UNL     1      29.344  43.771  54.443  1.00  0.00     0.034 A 
HETATM   26 CL   UNL     1      30.664  43.229  55.404  1.00  0.00    -0.084 Cl
HETATM   27  C   UNL     1      28.497  44.765  54.929  1.00  0.00     0.025 A 
HETATM   28  C   UNL     1      27.425  45.207  54.146  1.00  0.00     0.017 A 
ENDBRANCH  18  22
ENDBRANCH   2  16
TORSDOF 5
ENDMDL
MODEL 10
REMARK VINA RESULT:      -8.0      2.022      2.659
REMARK  5 active torsions:
REMARK  status: ('A' for Active; 'I' for Inactive)
REMARK    1  A    between atoms: C_2  and  N_3 
REMARK    2  A    between atoms: C_2  and  C_14 
REMARK       I    between atoms: N_3  and  C_4 
REMARK       I    between atoms: C_4  and  N_5 
REMARK    3  A    between atoms: N_5  and  C_6 
REMARK    4  A    between atoms: C_6  and  C_7 
REMARK    5  A    between atoms: C_16  and  C_17 
ROOT
HETATM    1  C   UNL     1      23.568  43.017  48.339  1.00  0.00     0.041 C 
HETATM    2  C   UNL     1      23.691  43.850  49.613  1.00  0.00     0.153 C 
ENDROOT
BRANCH   2   3
HETATM    3  N   UNL     1      23.249  45.212  49.394  1.00  0.00    -0.332 N 
HETATM    4  C   UNL     1      21.947  45.487  49.089  1.00  0.00     0.317 C 
HETATM    5  N   UNL     1      21.761  46.801  48.766  1.00  0.00    -0.339 N 
HETATM    6  O   UNL     1      21.058  44.646  49.098  1.00  0.00    -0.247 OA
HETATM    7  H   UNL     1      22.427  47.457  49.142  1.00  0.00     0.164 HD
HETATM    8  H   UNL     1      23.958  45.873  49.107  1.00  0.00     0.165 HD
BRANCH   5   9
HETATM    9  C   UNL     1      20.430  47.302  48.513  1.00  0.00     0.162 C 
BRANCH   9  10
HETATM   10  C   UNL     1      20.410  48.807  48.495  1.00  0.00    -0.040 A 
HETATM   11  C   UNL     1      19.336  49.488  47.901  1.00  0.00     0.009 A 
HETATM   12  C   UNL     1      19.298  50.883  47.891  1.00  0.00     0.001 A 
HETATM   13  C   UNL     1      20.333  51.611  48.473  1.00  0.00     0.000 A 
HETATM   14  C   UNL     1      21.408  50.947  49.062  1.00  0.00     0.001 A 
HETATM   15  C   UNL     1      21.448  49.550  49.072  1.00  0.00     0.009 A 
ENDBRANCH   9  10
ENDBRANCH   5   9
ENDBRANCH   2   3
BRANCH   2  16
HETATM   16  C   UNL     1      25.109  43.904  50.074  1.00  0.00     0.145 A 
HETATM   17  N   UNL     1      25.593  43.688  51.281  1.00  0.00    -0.210 NA
HETATM   18  C   UNL     1      26.953  43.873  51.128  1.00  0.00     0.181 A 
HETATM   19  N   UNL     1      27.314  44.200  49.876  1.00  0.00    -0.152 NA
HETATM   20  N   UNL     1      26.139  44.202  49.234  1.00  0.00    -0.261 N 
HETATM   21  H   UNL     1      26.116  44.411  48.241  1.00  0.00     0.190 HD
BRANCH  18  22
HETATM   22  C   UNL     1      27.894  43.721  52.235  1.00  0.00     0.014 A 
HETATM   23  C   UNL     1      27.714  44.442  53.424  1.00  0.00     0.017 A 
HETATM   24  C   UNL     1      28.608  44.294  54.490  1.00  0.00     0.025 A 
HETATM   25  C   UNL     1      29.688  43.423  54.372  1.00  0.00     0.034 A 
HETATM   26 CL   UNL     1      30.786  43.238  55.683  1.00  0.00    -0.084 Cl
HETATM   27  C   UNL     1      29.884  42.700  53.197  1.00  0.00     0.025 A 
HETATM   28  C   UNL     1      28.990  42.848  52.133  1.00  0.00     0.017 A 
ENDBRANCH  18  22
ENDBRANCH   2  16
TORSDOF 5
ENDMDL
