MODEL 1
REMARK VINA RESULT:      -9.6      0.000      0.000
REMARK  9 active torsions:
REMARK  status: ('A' for Active; 'I' for Inactive)
REMARK    1  A    between atoms: O_2  and  C_3 
REMARK    2  A    between atoms: C_4  and  O_5 
REMARK    3  A    between atoms: C_6  and  C_7 
REMARK    4  A    between atoms: N_8  and  N_9 
REMARK       I    between atoms: N_9  and  C_10 
REMARK    5  A    between atoms: C_10  and  C_11 
REMARK    6  A    between atoms: C_11  and  N_12 
REMARK       I    between atoms: N_12  and  C_13 
REMARK    7  A    between atoms: C_13  and  C_14 
REMARK    8  A    between atoms: C_15  and  C_16 
REMARK    9  A    between atoms: C_15  and  C_22 
ROOT
HETATM    1  N   UNL     1      28.726  41.436  51.548  1.00  0.00    -0.352 N 
HETATM    2  C   UNL     1      28.893  41.284  52.901  1.00  0.00     0.223 C 
HETATM    3  O   UNL     1      28.307  40.435  53.561  1.00  0.00    -0.273 OA
HETATM    4  H   UNL     1      29.170  42.206  51.066  1.00  0.00     0.162 HD
ENDROOT
BRANCH   1   5
HETATM    5  C   UNL     1      27.972  40.481  50.763  1.00  0.00     0.227 C 
BRANCH   5   6
HETATM    6  C   UNL     1      26.795  41.095  50.009  1.00  0.00     0.255 C 
HETATM    7  N   UNL     1      26.888  42.475  49.914  1.00  0.00    -0.246 N 
HETATM    8  H   UNL     1      27.761  42.941  50.181  1.00  0.00     0.192 HD
HETATM    9  O   UNL     1      25.870  40.401  49.589  1.00  0.00    -0.270 OA
BRANCH   7  10
HETATM   10  N   UNL     1      25.813  43.207  49.516  1.00  0.00    -0.184 NA
HETATM   11  C   UNL     1      25.945  44.491  49.644  1.00  0.00     0.153 C 
BRANCH  11  12
HETATM   12  C   UNL     1      24.836  45.412  49.323  1.00  0.00     0.019 A 
HETATM   13  C   UNL     1      24.946  46.774  49.608  1.00  0.00     0.110 A 
HETATM   14  C   UNL     1      23.879  47.650  49.357  1.00  0.00     0.102 A 
HETATM   15  C   UNL     1      22.701  47.151  48.798  1.00  0.00     0.040 A 
HETATM   16  C   UNL     1      22.589  45.788  48.502  1.00  0.00     0.004 A 
HETATM   17  C   UNL     1      23.650  44.920  48.768  1.00  0.00     0.016 A 
BRANCH  13  18
HETATM   18  O   UNL     1      26.096  47.278  50.163  1.00  0.00    -0.357 OA
HETATM   19  H   UNL     1      26.788  47.140  49.485  1.00  0.00     0.218 HD
ENDBRANCH  13  18
BRANCH  14  20
HETATM   20  O   UNL     1      24.113  48.957  49.706  1.00  0.00    -0.353 OA
HETATM   21  C   UNL     1      24.228  49.890  48.636  1.00  0.00     0.210 C 
ENDBRANCH  14  20
ENDBRANCH  11  12
ENDBRANCH   7  10
ENDBRANCH   5   6
ENDBRANCH   1   5
BRANCH   2  22
HETATM   22  C   UNL     1      29.857  42.244  53.487  1.00  0.00     0.097 A 
HETATM   23  C   UNL     1      29.372  43.540  54.158  1.00  0.00     0.027 A 
HETATM   24  C   UNL     1      30.173  43.563  52.855  1.00  0.00     0.035 A 
BRANCH  23  25
HETATM   25  C   UNL     1      27.923  44.031  54.050  1.00  0.00    -0.044 A 
HETATM   26  C   UNL     1      26.875  43.453  54.790  1.00  0.00     0.008 A 
HETATM   27  C   UNL     1      25.564  43.926  54.693  1.00  0.00     0.001 A 
HETATM   28  C   UNL     1      25.270  45.004  53.863  1.00  0.00     0.000 A 
HETATM   29  C   UNL     1      26.287  45.609  53.133  1.00  0.00     0.001 A 
HETATM   30  C   UNL     1      27.594  45.128  53.230  1.00  0.00     0.008 A 
ENDBRANCH  23  25
BRANCH  23  31
HETATM   31  C   UNL     1      30.064  43.882  55.481  1.00  0.00    -0.044 A 
HETATM   32  C   UNL     1      31.022  43.034  56.063  1.00  0.00     0.008 A 
HETATM   33  C   UNL     1      31.656  43.367  57.263  1.00  0.00     0.001 A 
HETATM   34  C   UNL     1      31.348  44.561  57.908  1.00  0.00     0.000 A 
HETATM   35  C   UNL     1      30.410  45.424  57.352  1.00  0.00     0.001 A 
HETATM   36  C   UNL     1      29.779  45.087  56.152  1.00  0.00     0.008 A 
ENDBRANCH  23  31
ENDBRANCH   2  22
TORSDOF 9
ENDMDL
MODEL 2
REMARK VINA RESULT:      -9.5      2.564      4.524
REMARK  9 active torsions:
REMARK  status: ('A' for Active; 'I' for Inactive)
REMARK    1  A    between atoms: O_2  and  C_3 
REMARK    2  A    between atoms: C_4  and  O_5 
REMARK    3  A    between atoms: C_6  and  C_7 
REMARK    4  A    between atoms: N_8  and  N_9 
REMARK       I    between atoms: N_9  and  C_10 
REMARK    5  A    between atoms: C_10  and  C_11 
REMARK    6  A    between atoms: C_11  and  N_12 
REMARK       I    between atoms: N_12  and  C_13 
REMARK    7  A    between atoms: C_13  and  C_14 
REMARK    8  A    between atoms: C_15  and  C_16 
REMARK    9  A    between atoms: C_15  and  C_22 
ROOT
HETATM    1  N   UNL     1      24.423  42.598  49.374  1.00  0.00    -0.352 N 
HETATM    2  C   UNL     1      24.726  42.667  50.710  1.00  0.00     0.223 C 
HETATM    3  O   UNL     1      23.891  42.881  51.579  1.00  0.00    -0.273 OA
HETATM    4  H   UNL     1      25.163  42.503  48.691  1.00  0.00     0.162 HD
ENDROOT
BRANCH   1   5
HETATM    5  C   UNL     1      23.053  42.594  48.904  1.00  0.00     0.227 C 
BRANCH   5   6
HETATM    6  C   UNL     1      22.414  43.979  48.855  1.00  0.00     0.255 C 
HETATM    7  N   UNL     1      23.326  44.993  49.108  1.00  0.00    -0.246 N 
HETATM    8  H   UNL     1      24.326  44.776  49.133  1.00  0.00     0.192 HD
HETATM    9  O   UNL     1      21.209  44.123  48.652  1.00  0.00    -0.270 OA
BRANCH   7  10
HETATM   10  N   UNL     1      22.890  46.256  49.366  1.00  0.00    -0.184 NA
HETATM   11  C   UNL     1      23.018  47.092  48.383  1.00  0.00     0.153 C 
BRANCH  11  12
HETATM   12  C   UNL     1      22.657  48.516  48.536  1.00  0.00     0.019 A 
HETATM   13  C   UNL     1      21.439  48.876  49.114  1.00  0.00     0.110 A 
HETATM   14  C   UNL     1      21.062  50.224  49.216  1.00  0.00     0.102 A 
HETATM   15  C   UNL     1      21.929  51.214  48.749  1.00  0.00     0.040 A 
HETATM   16  C   UNL     1      23.154  50.858  48.176  1.00  0.00     0.004 A 
HETATM   17  C   UNL     1      23.517  49.514  48.065  1.00  0.00     0.016 A 
BRANCH  13  18
HETATM   18  O   UNL     1      20.575  47.914  49.574  1.00  0.00    -0.357 OA
HETATM   19  H   UNL     1      19.984  47.719  48.819  1.00  0.00     0.218 HD
ENDBRANCH  13  18
BRANCH  14  20
HETATM   20  O   UNL     1      19.830  50.436  49.784  1.00  0.00    -0.353 OA
HETATM   21  C   UNL     1      19.261  51.728  49.604  1.00  0.00     0.210 C 
ENDBRANCH  14  20
ENDBRANCH  11  12
ENDBRANCH   7  10
ENDBRANCH   5   6
ENDBRANCH   1   5
BRANCH   2  22
HETATM   22  C   UNL     1      26.163  42.455  50.999  1.00  0.00     0.097 A 
HETATM   23  C   UNL     1      27.107  43.647  51.232  1.00  0.00     0.027 A 
HETATM   24  C   UNL     1      27.243  42.745  50.005  1.00  0.00     0.035 A 
BRANCH  23  25
HETATM   25  C   UNL     1      26.691  45.095  50.944  1.00  0.00    -0.044 A 
HETATM   26  C   UNL     1      25.940  45.858  51.856  1.00  0.00     0.008 A 
HETATM   27  C   UNL     1      25.587  47.183  51.584  1.00  0.00     0.001 A 
HETATM   28  C   UNL     1      25.991  47.784  50.396  1.00  0.00     0.000 A 
HETATM   29  C   UNL     1      26.751  47.062  49.482  1.00  0.00     0.001 A 
HETATM   30  C   UNL     1      27.095  45.736  49.757  1.00  0.00     0.008 A 
ENDBRANCH  23  25
BRANCH  23  31
HETATM   31  C   UNL     1      28.078  43.485  52.405  1.00  0.00    -0.044 A 
HETATM   32  C   UNL     1      27.758  43.918  53.704  1.00  0.00     0.008 A 
HETATM   33  C   UNL     1      28.649  43.750  54.767  1.00  0.00     0.001 A 
HETATM   34  C   UNL     1      29.882  43.139  54.556  1.00  0.00     0.000 A 
HETATM   35  C   UNL     1      30.222  42.691  53.284  1.00  0.00     0.001 A 
HETATM   36  C   UNL     1      29.328  42.862  52.225  1.00  0.00     0.008 A 
ENDBRANCH  23  31
ENDBRANCH   2  22
TORSDOF 9
ENDMDL
MODEL 3
REMARK VINA RESULT:      -9.2      1.577      2.229
REMARK  9 active torsions:
REMARK  status: ('A' for Active; 'I' for Inactive)
REMARK    1  A    between atoms: O_2  and  C_3 
REMARK    2  A    between atoms: C_4  and  O_5 
REMARK    3  A    between atoms: C_6  and  C_7 
REMARK    4  A    between atoms: N_8  and  N_9 
REMARK       I    between atoms: N_9  and  C_10 
REMARK    5  A    between atoms: C_10  and  C_11 
REMARK    6  A    between atoms: C_11  and  N_12 
REMARK       I    between atoms: N_12  and  C_13 
REMARK    7  A    between atoms: C_13  and  C_14 
REMARK    8  A    between atoms: C_15  and  C_16 
REMARK    9  A    between atoms: C_15  and  C_22 
ROOT
HETATM    1  N   UNL     1      28.760  41.250  51.535  1.00  0.00    -0.352 N 
HETATM    2  C   UNL     1      28.810  41.238  52.905  1.00  0.00     0.223 C 
HETATM    3  O   UNL     1      28.113  40.508  53.598  1.00  0.00    -0.273 OA
HETATM    4  H   UNL     1      29.296  41.931  51.015  1.00  0.00     0.162 HD
ENDROOT
BRANCH   1   5
HETATM    5  C   UNL     1      28.001  40.265  50.793  1.00  0.00     0.227 C 
BRANCH   5   6
HETATM    6  C   UNL     1      26.956  40.868  49.858  1.00  0.00     0.255 C 
HETATM    7  N   UNL     1      27.223  42.192  49.548  1.00  0.00    -0.246 N 
HETATM    8  H   UNL     1      28.129  42.596  49.803  1.00  0.00     0.192 HD
HETATM    9  O   UNL     1      25.979  40.219  49.485  1.00  0.00    -0.270 OA
BRANCH   7  10
HETATM   10  N   UNL     1      26.271  42.960  48.951  1.00  0.00    -0.184 NA
HETATM   11  C   UNL     1      25.667  43.795  49.739  1.00  0.00     0.153 C 
BRANCH  11  12
HETATM   12  C   UNL     1      24.560  44.643  49.253  1.00  0.00     0.019 A 
HETATM   13  C   UNL     1      23.620  44.130  48.357  1.00  0.00     0.110 A 
HETATM   14  C   UNL     1      22.595  44.941  47.848  1.00  0.00     0.102 A 
HETATM   15  C   UNL     1      22.507  46.272  48.260  1.00  0.00     0.040 A 
HETATM   16  C   UNL     1      23.441  46.788  49.164  1.00  0.00     0.004 A 
HETATM   17  C   UNL     1      24.467  45.979  49.656  1.00  0.00     0.016 A 
BRANCH  13  18
HETATM   18  O   UNL     1      23.697  42.825  47.940  1.00  0.00    -0.357 OA
HETATM   19  H   UNL     1      22.887  42.678  47.411  1.00  0.00     0.218 HD
ENDBRANCH  13  18
BRANCH  14  20
HETATM   20  O   UNL     1      21.755  44.317  46.960  1.00  0.00    -0.353 OA
HETATM   21  C   UNL     1      20.364  44.585  47.103  1.00  0.00     0.210 C 
ENDBRANCH  14  20
ENDBRANCH  11  12
ENDBRANCH   7  10
ENDBRANCH   5   6
ENDBRANCH   1   5
BRANCH   2  22
HETATM   22  C   UNL     1      29.793  42.193  53.467  1.00  0.00     0.097 A 
HETATM   23  C   UNL     1      29.337  43.528  54.079  1.00  0.00     0.027 A 
HETATM   24  C   UNL     1      30.156  43.476  52.789  1.00  0.00     0.035 A 
BRANCH  23  25
HETATM   25  C   UNL     1      27.905  44.056  53.930  1.00  0.00    -0.044 A 
HETATM   26  C   UNL     1      26.844  43.591  54.729  1.00  0.00     0.008 A 
HETATM   27  C   UNL     1      25.549  44.097  54.591  1.00  0.00     0.001 A 
HETATM   28  C   UNL     1      25.285  45.097  53.660  1.00  0.00     0.000 A 
HETATM   29  C   UNL     1      26.316  45.591  52.868  1.00  0.00     0.001 A 
HETATM   30  C   UNL     1      27.607  45.077  53.006  1.00  0.00     0.008 A 
ENDBRANCH  23  25
BRANCH  23  31
HETATM   31  C   UNL     1      30.020  43.903  55.398  1.00  0.00    -0.044 A 
HETATM   32  C   UNL     1      29.753  45.116  56.057  1.00  0.00     0.008 A 
HETATM   33  C   UNL     1      30.373  45.438  57.267  1.00  0.00     0.001 A 
HETATM   34  C   UNL     1      31.273  44.550  57.850  1.00  0.00     0.000 A 
HETATM   35  C   UNL     1      31.550  43.338  57.225  1.00  0.00     0.001 A 
HETATM   36  C   UNL     1      30.927  43.021  56.016  1.00  0.00     0.008 A 
ENDBRANCH  23  31
ENDBRANCH   2  22
TORSDOF 9
ENDMDL
MODEL 4
REMARK VINA RESULT:      -9.0      3.661      4.838
REMARK  9 active torsions:
REMARK  status: ('A' for Active; 'I' for Inactive)
REMARK    1  A    between atoms: O_2  and  C_3 
REMARK    2  A    between atoms: C_4  and  O_5 
REMARK    3  A    between atoms: C_6  and  C_7 
REMARK    4  A    between atoms: N_8  and  N_9 
REMARK       I    between atoms: N_9  and  C_10 
REMARK    5  A    between atoms: C_10  and  C_11 
REMARK    6  A    between atoms: C_11  and  N_12 
REMARK       I    between atoms: N_12  and  C_13 
REMARK    7  A    between atoms: C_13  and  C_14 
REMARK    8  A    between atoms: C_15  and  C_16 
REMARK    9  A    between atoms: C_15  and  C_22 
ROOT
HETATM    1  N   UNL     1      28.806  41.318  51.466  1.00  0.00    -0.352 N 
HETATM    2  C   UNL     1      28.925  41.231  52.829  1.00  0.00     0.223 C 
HETATM    3  O   UNL     1      28.324  40.406  53.506  1.00  0.00    -0.273 OA
HETATM    4  H   UNL     1      29.259  42.071  50.965  1.00  0.00     0.162 HD
ENDROOT
BRANCH   1   5
HETATM    5  C   UNL     1      28.092  40.319  50.699  1.00  0.00     0.227 C 
BRANCH   5   6
HETATM    6  C   UNL     1      27.544  40.835  49.372  1.00  0.00     0.255 C 
HETATM    7  N   UNL     1      28.376  40.539  48.303  1.00  0.00    -0.246 N 
HETATM    8  H   UNL     1      29.156  39.889  48.437  1.00  0.00     0.192 HD
HETATM    9  O   UNL     1      26.496  41.477  49.317  1.00  0.00    -0.270 OA
BRANCH   7  10
HETATM   10  N   UNL     1      28.185  41.144  47.099  1.00  0.00    -0.184 NA
HETATM   11  C   UNL     1      28.175  40.344  46.079  1.00  0.00     0.153 C 
BRANCH  11  12
HETATM   12  C   UNL     1      28.052  40.860  44.701  1.00  0.00     0.019 A 
HETATM   13  C   UNL     1      26.892  41.525  44.298  1.00  0.00     0.110 A 
HETATM   14  C   UNL     1      26.741  41.973  42.977  1.00  0.00     0.102 A 
HETATM   15  C   UNL     1      27.776  41.766  42.063  1.00  0.00     0.040 A 
HETATM   16  C   UNL     1      28.943  41.108  42.463  1.00  0.00     0.004 A 
HETATM   17  C   UNL     1      29.080  40.653  43.776  1.00  0.00     0.016 A 
BRANCH  13  18
HETATM   18  O   UNL     1      25.866  41.732  45.186  1.00  0.00    -0.357 OA
HETATM   19  H   UNL     1      25.981  41.047  45.874  1.00  0.00     0.218 HD
ENDBRANCH  13  18
BRANCH  14  20
HETATM   20  O   UNL     1      25.544  42.590  42.711  1.00  0.00    -0.353 OA
HETATM   21  C   UNL     1      25.590  43.992  42.468  1.00  0.00     0.210 C 
ENDBRANCH  14  20
ENDBRANCH  11  12
ENDBRANCH   7  10
ENDBRANCH   5   6
ENDBRANCH   1   5
BRANCH   2  22
HETATM   22  C   UNL     1      29.856  42.229  53.404  1.00  0.00     0.097 A 
HETATM   23  C   UNL     1      29.331  43.536  54.021  1.00  0.00     0.027 A 
HETATM   24  C   UNL     1      30.161  43.533  52.737  1.00  0.00     0.035 A 
BRANCH  23  25
HETATM   25  C   UNL     1      27.875  43.994  53.864  1.00  0.00    -0.044 A 
HETATM   26  C   UNL     1      26.861  43.594  54.753  1.00  0.00     0.008 A 
HETATM   27  C   UNL     1      25.543  44.037  54.605  1.00  0.00     0.001 A 
HETATM   28  C   UNL     1      25.210  44.906  53.570  1.00  0.00     0.000 A 
HETATM   29  C   UNL     1      26.194  45.335  52.687  1.00  0.00     0.001 A 
HETATM   30  C   UNL     1      27.508  44.884  52.836  1.00  0.00     0.008 A 
ENDBRANCH  23  25
BRANCH  23  31
HETATM   31  C   UNL     1      29.985  43.936  55.347  1.00  0.00    -0.044 A 
HETATM   32  C   UNL     1      29.697  45.157  55.982  1.00  0.00     0.008 A 
HETATM   33  C   UNL     1      30.290  45.502  57.199  1.00  0.00     0.001 A 
HETATM   34  C   UNL     1      31.184  44.629  57.813  1.00  0.00     0.000 A 
HETATM   35  C   UNL     1      31.481  43.409  57.213  1.00  0.00     0.001 A 
HETATM   36  C   UNL     1      30.885  43.070  55.997  1.00  0.00     0.008 A 
ENDBRANCH  23  31
ENDBRANCH   2  22
TORSDOF 9
ENDMDL
MODEL 5
REMARK VINA RESULT:      -8.6      3.301     10.261
REMARK  9 active torsions:
REMARK  status: ('A' for Active; 'I' for Inactive)
REMARK    1  A    between atoms: O_2  and  C_3 
REMARK    2  A    between atoms: C_4  and  O_5 
REMARK    3  A    between atoms: C_6  and  C_7 
REMARK    4  A    between atoms: N_8  and  N_9 
REMARK       I    between atoms: N_9  and  C_10 
REMARK    5  A    between atoms: C_10  and  C_11 
REMARK    6  A    between atoms: C_11  and  N_12 
REMARK       I    between atoms: N_12  and  C_13 
REMARK    7  A    between atoms: C_13  and  C_14 
REMARK    8  A    between atoms: C_15  and  C_16 
REMARK    9  A    between atoms: C_15  and  C_22 
ROOT
HETATM    1  N   UNL     1      21.156  45.632  48.682  1.00  0.00    -0.352 N 
HETATM    2  C   UNL     1      20.815  46.516  47.691  1.00  0.00     0.223 C 
HETATM    3  O   UNL     1      21.179  46.396  46.527  1.00  0.00    -0.273 OA
HETATM    4  H   UNL     1      20.899  45.824  49.641  1.00  0.00     0.162 HD
ENDROOT
BRANCH   1   5
HETATM    5  C   UNL     1      21.831  44.385  48.390  1.00  0.00     0.227 C 
BRANCH   5   6
HETATM    6  C   UNL     1      22.521  43.759  49.600  1.00  0.00     0.255 C 
HETATM    7  N   UNL     1      23.061  44.709  50.452  1.00  0.00    -0.246 N 
HETATM    8  H   UNL     1      22.828  45.697  50.319  1.00  0.00     0.192 HD
HETATM    9  O   UNL     1      22.598  42.538  49.734  1.00  0.00    -0.270 OA
BRANCH   7  10
HETATM   10  N   UNL     1      23.932  44.335  51.429  1.00  0.00    -0.184 NA
HETATM   11  C   UNL     1      24.898  45.171  51.651  1.00  0.00     0.153 C 
BRANCH  11  12
HETATM   12  C   UNL     1      25.963  44.869  52.629  1.00  0.00     0.019 A 
HETATM   13  C   UNL     1      26.518  43.590  52.695  1.00  0.00     0.110 A 
HETATM   14  C   UNL     1      27.492  43.276  53.654  1.00  0.00     0.102 A 
HETATM   15  C   UNL     1      27.922  44.266  54.541  1.00  0.00     0.040 A 
HETATM   16  C   UNL     1      27.376  45.551  54.474  1.00  0.00     0.004 A 
HETATM   17  C   UNL     1      26.396  45.852  53.525  1.00  0.00     0.016 A 
BRANCH  13  18
HETATM   18  O   UNL     1      26.102  42.606  51.832  1.00  0.00    -0.357 OA
HETATM   19  H   UNL     1      25.724  43.082  51.066  1.00  0.00     0.218 HD
ENDBRANCH  13  18
BRANCH  14  20
HETATM   20  O   UNL     1      27.935  41.977  53.622  1.00  0.00    -0.353 OA
HETATM   21  C   UNL     1      29.227  41.759  53.064  1.00  0.00     0.210 C 
ENDBRANCH  14  20
ENDBRANCH  11  12
ENDBRANCH   7  10
ENDBRANCH   5   6
ENDBRANCH   1   5
BRANCH   2  22
HETATM   22  C   UNL     1      19.959  47.628  48.162  1.00  0.00     0.097 A 
HETATM   23  C   UNL     1      20.546  49.029  48.407  1.00  0.00     0.027 A 
HETATM   24  C   UNL     1      20.023  48.166  49.557  1.00  0.00     0.035 A 
BRANCH  23  25
HETATM   25  C   UNL     1      22.055  49.298  48.418  1.00  0.00    -0.044 A 
HETATM   26  C   UNL     1      22.651  50.278  47.604  1.00  0.00     0.008 A 
HETATM   27  C   UNL     1      24.027  50.523  47.642  1.00  0.00     0.001 A 
HETATM   28  C   UNL     1      24.841  49.802  48.511  1.00  0.00     0.000 A 
HETATM   29  C   UNL     1      24.279  48.839  49.342  1.00  0.00     0.001 A 
HETATM   30  C   UNL     1      22.905  48.595  49.295  1.00  0.00     0.008 A 
ENDBRANCH  23  25
BRANCH  23  31
HETATM   31  C   UNL     1      19.696  50.189  47.880  1.00  0.00    -0.044 A 
HETATM   32  C   UNL     1      19.083  50.150  46.616  1.00  0.00     0.008 A 
HETATM   33  C   UNL     1      18.297  51.210  46.154  1.00  0.00     0.001 A 
HETATM   34  C   UNL     1      18.104  52.334  46.952  1.00  0.00     0.000 A 
HETATM   35  C   UNL     1      18.690  52.398  48.211  1.00  0.00     0.001 A 
HETATM   36  C   UNL     1      19.474  51.335  48.667  1.00  0.00     0.008 A 
ENDBRANCH  23  31
ENDBRANCH   2  22
TORSDOF 9
ENDMDL
MODEL 6
REMARK VINA RESULT:      -8.5      4.283      6.619
REMARK  9 active torsions:
REMARK  status: ('A' for Active; 'I' for Inactive)
REMARK    1  A    between atoms: O_2  and  C_3 
REMARK    2  A    between atoms: C_4  and  O_5 
REMARK    3  A    between atoms: C_6  and  C_7 
REMARK    4  A    between atoms: N_8  and  N_9 
REMARK       I    between atoms: N_9  and  C_10 
REMARK    5  A    between atoms: C_10  and  C_11 
REMARK    6  A    between atoms: C_11  and  N_12 
REMARK       I    between atoms: N_12  and  C_13 
REMARK    7  A    between atoms: C_13  and  C_14 
REMARK    8  A    between atoms: C_15  and  C_16 
REMARK    9  A    between atoms: C_15  and  C_22 
ROOT
HETATM    1  N   UNL     1      24.526  46.507  50.267  1.00  0.00    -0.352 N 
HETATM    2  C   UNL     1      25.879  46.331  50.403  1.00  0.00     0.223 C 
HETATM    3  O   UNL     1      26.681  46.559  49.507  1.00  0.00    -0.273 OA
HETATM    4  H   UNL     1      23.901  46.224  51.010  1.00  0.00     0.162 HD
ENDROOT
BRANCH   1   5
HETATM    5  C   UNL     1      23.956  47.151  49.102  1.00  0.00     0.227 C 
BRANCH   5   6
HETATM    6  C   UNL     1      23.168  48.419  49.422  1.00  0.00     0.255 C 
HETATM    7  N   UNL     1      21.799  48.238  49.298  1.00  0.00    -0.246 N 
HETATM    8  H   UNL     1      21.424  47.292  49.183  1.00  0.00     0.192 HD
HETATM    9  O   UNL     1      23.736  49.472  49.710  1.00  0.00    -0.270 OA
BRANCH   7  10
HETATM   10  N   UNL     1      20.966  49.314  49.284  1.00  0.00    -0.184 NA
HETATM   11  C   UNL     1      19.930  49.195  48.513  1.00  0.00     0.153 C 
BRANCH  11  12
HETATM   12  C   UNL     1      18.974  50.307  48.336  1.00  0.00     0.019 A 
HETATM   13  C   UNL     1      18.162  50.714  49.396  1.00  0.00     0.110 A 
HETATM   14  C   UNL     1      17.213  51.733  49.225  1.00  0.00     0.102 A 
HETATM   15  C   UNL     1      17.098  52.358  47.982  1.00  0.00     0.040 A 
HETATM   16  C   UNL     1      17.915  51.961  46.919  1.00  0.00     0.004 A 
HETATM   17  C   UNL     1      18.848  50.936  47.093  1.00  0.00     0.016 A 
BRANCH  13  18
HETATM   18  O   UNL     1      18.262  50.106  50.622  1.00  0.00    -0.357 OA
HETATM   19  H   UNL     1      17.382  49.708  50.783  1.00  0.00     0.218 HD
ENDBRANCH  13  18
BRANCH  14  20
HETATM   20  O   UNL     1      16.466  52.018  50.341  1.00  0.00    -0.353 OA
HETATM   21  C   UNL     1      15.239  52.707  50.126  1.00  0.00     0.210 C 
ENDBRANCH  14  20
ENDBRANCH  11  12
ENDBRANCH   7  10
ENDBRANCH   5   6
ENDBRANCH   1   5
BRANCH   2  22
HETATM   22  C   UNL     1      26.277  45.841  51.743  1.00  0.00     0.097 A 
HETATM   23  C   UNL     1      26.561  44.349  51.987  1.00  0.00     0.027 A 
HETATM   24  C   UNL     1      25.361  45.051  52.624  1.00  0.00     0.035 A 
BRANCH  23  25
HETATM   25  C   UNL     1      26.221  43.267  50.955  1.00  0.00    -0.044 A 
HETATM   26  C   UNL     1      24.979  42.607  50.938  1.00  0.00     0.008 A 
HETATM   27  C   UNL     1      24.680  41.636  49.978  1.00  0.00     0.001 A 
HETATM   28  C   UNL     1      25.614  41.312  48.998  1.00  0.00     0.000 A 
HETATM   29  C   UNL     1      26.844  41.960  48.976  1.00  0.00     0.001 A 
HETATM   30  C   UNL     1      27.139  42.925  49.942  1.00  0.00     0.008 A 
ENDBRANCH  23  25
BRANCH  23  31
HETATM   31  C   UNL     1      27.805  44.056  52.831  1.00  0.00    -0.044 A 
HETATM   32  C   UNL     1      27.986  44.610  54.110  1.00  0.00     0.008 A 
HETATM   33  C   UNL     1      29.119  44.322  54.875  1.00  0.00     0.001 A 
HETATM   34  C   UNL     1      30.098  43.466  54.378  1.00  0.00     0.000 A 
HETATM   35  C   UNL     1      29.943  42.895  53.119  1.00  0.00     0.001 A 
HETATM   36  C   UNL     1      28.808  43.187  52.359  1.00  0.00     0.008 A 
ENDBRANCH  23  31
ENDBRANCH   2  22
TORSDOF 9
ENDMDL
MODEL 7
REMARK VINA RESULT:      -8.5      6.681     13.093
REMARK  9 active torsions:
REMARK  status: ('A' for Active; 'I' for Inactive)
REMARK    1  A    between atoms: O_2  and  C_3 
REMARK    2  A    between atoms: C_4  and  O_5 
REMARK    3  A    between atoms: C_6  and  C_7 
REMARK    4  A    between atoms: N_8  and  N_9 
REMARK       I    between atoms: N_9  and  C_10 
REMARK    5  A    between atoms: C_10  and  C_11 
REMARK    6  A    between atoms: C_11  and  N_12 
REMARK       I    between atoms: N_12  and  C_13 
REMARK    7  A    between atoms: C_13  and  C_14 
REMARK    8  A    between atoms: C_15  and  C_16 
REMARK    9  A    between atoms: C_15  and  C_22 
ROOT
HETATM    1  N   UNL     1      16.812  47.352  47.012  1.00  0.00    -0.352 N 
HETATM    2  C   UNL     1      15.862  48.319  47.221  1.00  0.00     0.223 C 
HETATM    3  O   UNL     1      15.198  48.401  48.247  1.00  0.00    -0.273 OA
HETATM    4  H   UNL     1      17.271  47.279  46.114  1.00  0.00     0.162 HD
ENDROOT
BRANCH   1   5
HETATM    5  C   UNL     1      17.229  46.456  48.070  1.00  0.00     0.227 C 
BRANCH   5   6
HETATM    6  C   UNL     1      18.674  46.661  48.517  1.00  0.00     0.255 C 
HETATM    7  N   UNL     1      18.879  47.904  49.095  1.00  0.00    -0.246 N 
HETATM    8  H   UNL     1      18.072  48.490  49.328  1.00  0.00     0.192 HD
HETATM    9  O   UNL     1      19.534  45.802  48.323  1.00  0.00    -0.270 OA
BRANCH   7  10
HETATM   10  N   UNL     1      20.144  48.359  49.308  1.00  0.00    -0.184 NA
HETATM   11  C   UNL     1      20.801  48.672  48.234  1.00  0.00     0.153 C 
BRANCH  11  12
HETATM   12  C   UNL     1      22.210  49.111  48.299  1.00  0.00     0.019 A 
HETATM   13  C   UNL     1      23.141  48.385  49.043  1.00  0.00     0.110 A 
HETATM   14  C   UNL     1      24.469  48.821  49.156  1.00  0.00     0.102 A 
HETATM   15  C   UNL     1      24.865  49.987  48.497  1.00  0.00     0.040 A 
HETATM   16  C   UNL     1      23.938  50.713  47.743  1.00  0.00     0.004 A 
HETATM   17  C   UNL     1      22.613  50.281  47.647  1.00  0.00     0.016 A 
BRANCH  13  18
HETATM   18  O   UNL     1      22.765  47.239  49.699  1.00  0.00    -0.357 OA
HETATM   19  H   UNL     1      22.030  47.509  50.285  1.00  0.00     0.218 HD
ENDBRANCH  13  18
BRANCH  14  20
HETATM   20  O   UNL     1      25.273  48.026  49.935  1.00  0.00    -0.353 OA
HETATM   21  C   UNL     1      26.677  48.156  49.741  1.00  0.00     0.210 C 
ENDBRANCH  14  20
ENDBRANCH  11  12
ENDBRANCH   7  10
ENDBRANCH   5   6
ENDBRANCH   1   5
BRANCH   2  22
HETATM   22  C   UNL     1      15.719  49.259  46.085  1.00  0.00     0.097 A 
HETATM   23  C   UNL     1      16.418  50.629  46.100  1.00  0.00     0.027 A 
HETATM   24  C   UNL     1      14.895  50.506  46.163  1.00  0.00     0.035 A 
BRANCH  23  25
HETATM   25  C   UNL     1      17.086  51.199  47.358  1.00  0.00    -0.044 A 
HETATM   26  C   UNL     1      18.482  51.307  47.485  1.00  0.00     0.008 A 
HETATM   27  C   UNL     1      19.073  51.847  48.632  1.00  0.00     0.001 A 
HETATM   28  C   UNL     1      18.276  52.308  49.676  1.00  0.00     0.000 A 
HETATM   29  C   UNL     1      16.892  52.232  49.573  1.00  0.00     0.001 A 
HETATM   30  C   UNL     1      16.308  51.686  48.427  1.00  0.00     0.008 A 
ENDBRANCH  23  25
BRANCH  23  31
HETATM   31  C   UNL     1      17.094  51.026  44.785  1.00  0.00    -0.044 A 
HETATM   32  C   UNL     1      18.062  50.213  44.169  1.00  0.00     0.008 A 
HETATM   33  C   UNL     1      18.660  50.581  42.961  1.00  0.00     0.001 A 
HETATM   34  C   UNL     1      18.299  51.772  42.337  1.00  0.00     0.000 A 
HETATM   35  C   UNL     1      17.338  52.593  42.918  1.00  0.00     0.001 A 
HETATM   36  C   UNL     1      16.743  52.220  44.126  1.00  0.00     0.008 A 
ENDBRANCH  23  31
ENDBRANCH   2  22
TORSDOF 9
ENDMDL
MODEL 8
REMARK VINA RESULT:      -8.3      4.216      6.847
REMARK  9 active torsions:
REMARK  status: ('A' for Active; 'I' for Inactive)
REMARK    1  A    between atoms: O_2  and  C_3 
REMARK    2  A    between atoms: C_4  and  O_5 
REMARK    3  A    between atoms: C_6  and  C_7 
REMARK    4  A    between atoms: N_8  and  N_9 
REMARK       I    between atoms: N_9  and  C_10 
REMARK    5  A    between atoms: C_10  and  C_11 
REMARK    6  A    between atoms: C_11  and  N_12 
REMARK       I    between atoms: N_12  and  C_13 
REMARK    7  A    between atoms: C_13  and  C_14 
REMARK    8  A    between atoms: C_15  and  C_16 
REMARK    9  A    between atoms: C_15  and  C_22 
ROOT
HETATM    1  N   UNL     1      25.214  47.986  50.138  1.00  0.00    -0.352 N 
HETATM    2  C   UNL     1      26.297  47.144  50.153  1.00  0.00     0.223 C 
HETATM    3  O   UNL     1      27.018  46.958  49.181  1.00  0.00    -0.273 OA
HETATM    4  H   UNL     1      24.603  48.039  50.942  1.00  0.00     0.162 HD
ENDROOT
BRANCH   1   5
HETATM    5  C   UNL     1      24.946  48.861  49.016  1.00  0.00     0.227 C 
BRANCH   5   6
HETATM    6  C   UNL     1      23.466  48.976  48.663  1.00  0.00     0.255 C 
HETATM    7  N   UNL     1      22.769  49.774  49.557  1.00  0.00    -0.246 N 
HETATM    8  H   UNL     1      23.285  50.335  50.241  1.00  0.00     0.192 HD
HETATM    9  O   UNL     1      22.986  48.372  47.705  1.00  0.00    -0.270 OA
BRANCH   7  10
HETATM   10  N   UNL     1      21.408  49.775  49.556  1.00  0.00    -0.184 NA
HETATM   11  C   UNL     1      20.860  50.867  49.119  1.00  0.00     0.153 C 
BRANCH  11  12
HETATM   12  C   UNL     1      19.394  51.045  49.126  1.00  0.00     0.019 A 
HETATM   13  C   UNL     1      18.587  50.280  48.283  1.00  0.00     0.110 A 
HETATM   14  C   UNL     1      17.199  50.477  48.242  1.00  0.00     0.102 A 
HETATM   15  C   UNL     1      16.620  51.441  49.070  1.00  0.00     0.040 A 
HETATM   16  C   UNL     1      17.424  52.204  49.923  1.00  0.00     0.004 A 
HETATM   17  C   UNL     1      18.807  52.012  49.948  1.00  0.00     0.016 A 
BRANCH  13  18
HETATM   18  O   UNL     1      19.142  49.332  47.460  1.00  0.00    -0.357 OA
HETATM   19  H   UNL     1      18.884  48.472  47.850  1.00  0.00     0.218 HD
ENDBRANCH  13  18
BRANCH  14  20
HETATM   20  O   UNL     1      16.529  49.673  47.353  1.00  0.00    -0.353 OA
HETATM   21  C   UNL     1      15.631  48.718  47.911  1.00  0.00     0.210 C 
ENDBRANCH  14  20
ENDBRANCH  11  12
ENDBRANCH   7  10
ENDBRANCH   5   6
ENDBRANCH   1   5
BRANCH   2  22
HETATM   22  C   UNL     1      26.512  46.485  51.462  1.00  0.00     0.097 A 
HETATM   23  C   UNL     1      26.109  45.017  51.682  1.00  0.00     0.027 A 
HETATM   24  C   UNL     1      25.393  46.161  52.401  1.00  0.00     0.035 A 
BRANCH  23  25
HETATM   25  C   UNL     1      25.258  44.236  50.674  1.00  0.00    -0.044 A 
HETATM   26  C   UNL     1      25.826  43.378  49.715  1.00  0.00     0.008 A 
HETATM   27  C   UNL     1      25.033  42.659  48.815  1.00  0.00     0.001 A 
HETATM   28  C   UNL     1      23.646  42.769  48.864  1.00  0.00     0.000 A 
HETATM   29  C   UNL     1      23.054  43.595  49.813  1.00  0.00     0.001 A 
HETATM   30  C   UNL     1      23.852  44.316  50.705  1.00  0.00     0.008 A 
ENDBRANCH  23  25
BRANCH  23  31
HETATM   31  C   UNL     1      27.136  44.170  52.439  1.00  0.00    -0.044 A 
HETATM   32  C   UNL     1      28.365  43.798  51.865  1.00  0.00     0.008 A 
HETATM   33  C   UNL     1      29.299  43.037  52.574  1.00  0.00     0.001 A 
HETATM   34  C   UNL     1      29.026  42.634  53.878  1.00  0.00     0.000 A 
HETATM   35  C   UNL     1      27.823  42.995  54.476  1.00  0.00     0.001 A 
HETATM   36  C   UNL     1      26.893  43.755  53.763  1.00  0.00     0.008 A 
ENDBRANCH  23  31
ENDBRANCH   2  22
TORSDOF 9
ENDMDL
MODEL 9
REMARK VINA RESULT:      -8.2      2.454      8.277
REMARK  9 active torsions:
REMARK  status: ('A' for Active; 'I' for Inactive)
REMARK    1  A    between atoms: O_2  and  C_3 
REMARK    2  A    between atoms: C_4  and  O_5 
REMARK    3  A    between atoms: C_6  and  C_7 
REMARK    4  A    between atoms: N_8  and  N_9 
REMARK       I    between atoms: N_9  and  C_10 
REMARK    5  A    between atoms: C_10  and  C_11 
REMARK    6  A    between atoms: C_11  and  N_12 
REMARK       I    between atoms: N_12  and  C_13 
REMARK    7  A    between atoms: C_13  and  C_14 
REMARK    8  A    between atoms: C_15  and  C_16 
REMARK    9  A    between atoms: C_15  and  C_22 
ROOT
HETATM    1  N   UNL     1      25.166  40.950  50.040  1.00  0.00    -0.352 N 
HETATM    2  C   UNL     1      25.072  41.649  48.864  1.00  0.00     0.223 C 
HETATM    3  O   UNL     1      25.997  41.756  48.069  1.00  0.00    -0.273 OA
HETATM    4  H   UNL     1      24.400  40.964  50.700  1.00  0.00     0.162 HD
ENDROOT
BRANCH   1   5
HETATM    5  C   UNL     1      26.319  40.130  50.348  1.00  0.00     0.227 C 
BRANCH   5   6
HETATM    6  C   UNL     1      27.338  40.814  51.254  1.00  0.00     0.255 C 
HETATM    7  N   UNL     1      26.819  41.934  51.886  1.00  0.00    -0.246 N 
HETATM    8  H   UNL     1      25.812  42.113  51.845  1.00  0.00     0.192 HD
HETATM    9  O   UNL     1      28.494  40.402  51.346  1.00  0.00    -0.270 OA
BRANCH   7  10
HETATM   10  N   UNL     1      27.649  42.810  52.514  1.00  0.00    -0.184 NA
HETATM   11  C   UNL     1      27.305  43.118  53.726  1.00  0.00     0.153 C 
BRANCH  11  12
HETATM   12  C   UNL     1      28.065  44.113  54.510  1.00  0.00     0.019 A 
HETATM   13  C   UNL     1      29.368  43.835  54.927  1.00  0.00     0.110 A 
HETATM   14  C   UNL     1      30.080  44.750  55.717  1.00  0.00     0.102 A 
HETATM   15  C   UNL     1      29.481  45.960  56.071  1.00  0.00     0.040 A 
HETATM   16  C   UNL     1      28.179  46.247  55.648  1.00  0.00     0.004 A 
HETATM   17  C   UNL     1      27.471  45.325  54.874  1.00  0.00     0.016 A 
BRANCH  13  18
HETATM   18  O   UNL     1      29.968  42.648  54.590  1.00  0.00    -0.357 OA
HETATM   19  H   UNL     1      30.522  42.413  55.361  1.00  0.00     0.218 HD
ENDBRANCH  13  18
BRANCH  14  20
HETATM   20  O   UNL     1      31.341  44.341  56.076  1.00  0.00    -0.353 OA
HETATM   21  C   UNL     1      31.509  43.899  57.419  1.00  0.00     0.210 C 
ENDBRANCH  14  20
ENDBRANCH  11  12
ENDBRANCH   7  10
ENDBRANCH   5   6
ENDBRANCH   1   5
BRANCH   2  22
HETATM   22  C   UNL     1      23.741  42.261  48.647  1.00  0.00     0.097 A 
HETATM   23  C   UNL     1      23.472  43.725  49.031  1.00  0.00     0.027 A 
HETATM   24  C   UNL     1      22.796  42.567  49.766  1.00  0.00     0.035 A 
BRANCH  23  25
HETATM   25  C   UNL     1      24.457  44.552  49.866  1.00  0.00    -0.044 A 
HETATM   26  C   UNL     1      25.552  45.222  49.293  1.00  0.00     0.008 A 
HETATM   27  C   UNL     1      26.429  45.987  50.068  1.00  0.00     0.001 A 
HETATM   28  C   UNL     1      26.221  46.113  51.438  1.00  0.00     0.000 A 
HETATM   29  C   UNL     1      25.135  45.479  52.032  1.00  0.00     0.001 A 
HETATM   30  C   UNL     1      24.267  44.711  51.253  1.00  0.00     0.008 A 
ENDBRANCH  23  25
BRANCH  23  31
HETATM   31  C   UNL     1      22.681  44.532  47.996  1.00  0.00    -0.044 A 
HETATM   32  C   UNL     1      21.676  45.441  48.369  1.00  0.00     0.008 A 
HETATM   33  C   UNL     1      20.973  46.181  47.414  1.00  0.00     0.001 A 
HETATM   34  C   UNL     1      21.264  46.031  46.061  1.00  0.00     0.000 A 
HETATM   35  C   UNL     1      22.260  45.146  45.662  1.00  0.00     0.001 A 
HETATM   36  C   UNL     1      22.959  44.409  46.621  1.00  0.00     0.008 A 
ENDBRANCH  23  31
ENDBRANCH   2  22
TORSDOF 9
ENDMDL
MODEL 10
REMARK VINA RESULT:      -8.2      3.605     10.938
REMARK  9 active torsions:
REMARK  status: ('A' for Active; 'I' for Inactive)
REMARK    1  A    between atoms: O_2  and  C_3 
REMARK    2  A    between atoms: C_4  and  O_5 
REMARK    3  A    between atoms: C_6  and  C_7 
REMARK    4  A    between atoms: N_8  and  N_9 
REMARK       I    between atoms: N_9  and  C_10 
REMARK    5  A    between atoms: C_10  and  C_11 
REMARK    6  A    between atoms: C_11  and  N_12 
REMARK       I    between atoms: N_12  and  C_13 
REMARK    7  A    between atoms: C_13  and  C_14 
REMARK    8  A    between atoms: C_15  and  C_16 
REMARK    9  A    between atoms: C_15  and  C_22 
ROOT
HETATM    1  N   UNL     1      23.166  47.284  49.520  1.00  0.00    -0.352 N 
HETATM    2  C   UNL     1      22.786  47.852  48.331  1.00  0.00     0.223 C 
HETATM    3  O   UNL     1      23.365  48.805  47.825  1.00  0.00    -0.273 OA
HETATM    4  H   UNL     1      22.603  46.554  49.935  1.00  0.00     0.162 HD
ENDROOT
BRANCH   1   5
HETATM    5  C   UNL     1      24.397  47.659  50.184  1.00  0.00     0.227 C 
BRANCH   5   6
HETATM    6  C   UNL     1      25.421  46.531  50.268  1.00  0.00     0.255 C 
HETATM    7  N   UNL     1      25.241  45.733  51.387  1.00  0.00    -0.246 N 
HETATM    8  H   UNL     1      24.390  45.837  51.948  1.00  0.00     0.192 HD
HETATM    9  O   UNL     1      26.315  46.412  49.431  1.00  0.00    -0.270 OA
BRANCH   7  10
HETATM   10  N   UNL     1      26.208  44.853  51.763  1.00  0.00    -0.184 NA
HETATM   11  C   UNL     1      26.945  45.240  52.758  1.00  0.00     0.153 C 
BRANCH  11  12
HETATM   12  C   UNL     1      28.082  44.426  53.232  1.00  0.00     0.019 A 
HETATM   13  C   UNL     1      28.645  44.665  54.487  1.00  0.00     0.110 A 
HETATM   14  C   UNL     1      29.759  43.934  54.927  1.00  0.00     0.102 A 
HETATM   15  C   UNL     1      30.297  42.945  54.101  1.00  0.00     0.040 A 
HETATM   16  C   UNL     1      29.731  42.696  52.847  1.00  0.00     0.004 A 
HETATM   17  C   UNL     1      28.631  43.437  52.410  1.00  0.00     0.016 A 
BRANCH  13  18
HETATM   18  O   UNL     1      28.129  45.637  55.308  1.00  0.00    -0.357 OA
HETATM   19  H   UNL     1      27.279  45.892  54.898  1.00  0.00     0.218 HD
ENDBRANCH  13  18
BRANCH  14  20
HETATM   20  O   UNL     1      30.225  44.286  56.170  1.00  0.00    -0.353 OA
HETATM   21  C   UNL     1      31.349  43.560  56.657  1.00  0.00     0.210 C 
ENDBRANCH  14  20
ENDBRANCH  11  12
ENDBRANCH   7  10
ENDBRANCH   5   6
ENDBRANCH   1   5
BRANCH   2  22
HETATM   22  C   UNL     1      21.610  47.197  47.715  1.00  0.00     0.097 A 
HETATM   23  C   UNL     1      20.259  47.925  47.620  1.00  0.00     0.027 A 
HETATM   24  C   UNL     1      20.447  46.699  48.514  1.00  0.00     0.035 A 
BRANCH  23  25
HETATM   25  C   UNL     1      19.980  49.242  48.356  1.00  0.00    -0.044 A 
HETATM   26  C   UNL     1      20.389  50.489  47.850  1.00  0.00     0.008 A 
HETATM   27  C   UNL     1      20.110  51.680  48.526  1.00  0.00     0.001 A 
HETATM   28  C   UNL     1      19.396  51.654  49.720  1.00  0.00     0.000 A 
HETATM   29  C   UNL     1      18.961  50.439  50.237  1.00  0.00     0.001 A 
HETATM   30  C   UNL     1      19.249  49.251  49.561  1.00  0.00     0.008 A 
ENDBRANCH  23  25
BRANCH  23  31
HETATM   31  C   UNL     1      19.538  47.782  46.276  1.00  0.00    -0.044 A 
HETATM   32  C   UNL     1      19.733  46.668  45.441  1.00  0.00     0.008 A 
HETATM   33  C   UNL     1      19.056  46.544  44.224  1.00  0.00     0.001 A 
HETATM   34  C   UNL     1      18.165  47.532  43.817  1.00  0.00     0.000 A 
HETATM   35  C   UNL     1      17.945  48.641  44.626  1.00  0.00     0.001 A 
HETATM   36  C   UNL     1      18.623  48.760  45.842  1.00  0.00     0.008 A 
ENDBRANCH  23  31
ENDBRANCH   2  22
TORSDOF 9
ENDMDL
