MODEL 1
REMARK VINA RESULT:      -9.2      0.000      0.000
REMARK  6 active torsions:
REMARK  status: ('A' for Active; 'I' for Inactive)
REMARK    1  A    between atoms: C_2  and  N_3 
REMARK    2  A    between atoms: C_2  and  C_24 
REMARK       I    between atoms: N_3  and  C_4 
REMARK    3  A    between atoms: C_4  and  C_5 
REMARK    4  A    between atoms: C_5  and  N_6 
REMARK    5  A    between atoms: C_10  and  N_11 
REMARK       I    between atoms: N_11  and  C_12 
REMARK       I    between atoms: C_12  and  N_13 
REMARK    6  A    between atoms: N_13  and  C_14 
ROOT
HETATM    1  N   UNL     1      25.919  45.717  51.954  1.00  0.00    -0.063 N 
HETATM    2  H   UNL     1      26.764  45.211  51.649  1.00  0.00     0.280 HD
HETATM    3  C   UNL     1      24.747  45.017  51.308  1.00  0.00     0.237 C 
HETATM    4  C   UNL     1      24.620  45.367  49.840  1.00  0.00     0.053 C 
HETATM    5  C   UNL     1      24.593  46.867  49.571  1.00  0.00     0.089 C 
HETATM    6  C   UNL     1      25.800  47.551  50.207  1.00  0.00     0.053 C 
HETATM    7  C   UNL     1      26.079  47.184  51.654  1.00  0.00     0.237 C 
ENDROOT
BRANCH   1   8
HETATM    8  C   UNL     1      25.866  45.528  53.483  1.00  0.00     0.337 C 
BRANCH   8   9
HETATM    9  C   UNL     1      26.708  44.342  53.954  1.00  0.00     0.244 C 
HETATM   10  N   UNL     1      28.035  44.406  53.623  1.00  0.00    -0.351 N 
HETATM   11  H   UNL     1      28.385  45.118  52.990  1.00  0.00     0.163 HD
HETATM   12  O   UNL     1      26.202  43.454  54.637  1.00  0.00    -0.272 OA
BRANCH  10  13
HETATM   13  C   UNL     1      28.992  43.375  54.000  1.00  0.00     0.120 C 
HETATM   14  C   UNL     1      29.894  42.993  52.830  1.00  0.00     0.038 C 
BRANCH  13  15
HETATM   15  C   UNL     1      29.780  43.878  55.185  1.00  0.00     0.005 A 
HETATM   16  S   UNL     1      29.471  45.420  55.883  1.00  0.00    -0.104 SA
HETATM   17  C   UNL     1      30.691  45.212  57.060  1.00  0.00     0.050 A 
HETATM   18  C   UNL     1      31.328  43.999  56.933  1.00  0.00     0.008 A 
HETATM   19  C   UNL     1      30.804  43.230  55.853  1.00  0.00     0.017 A 
ENDBRANCH  13  15
ENDBRANCH  10  13
ENDBRANCH   8   9
ENDBRANCH   1   8
BRANCH   5  20
HETATM   20  N   UNL     1      23.287  47.477  49.830  1.00  0.00    -0.338 N 
HETATM   21  C   UNL     1      22.534  48.220  48.953  1.00  0.00     0.321 C 
HETATM   22  N   UNL     1      21.536  48.911  49.593  1.00  0.00    -0.309 N 
HETATM   23  O   UNL     1      22.815  48.301  47.764  1.00  0.00    -0.247 OA
HETATM   24  H   UNL     1      21.608  48.973  50.599  1.00  0.00     0.170 HD
HETATM   25  H   UNL     1      22.824  47.214  50.692  1.00  0.00     0.164 HD
BRANCH  22  26
HETATM   26  C   UNL     1      20.633  49.812  48.987  1.00  0.00     0.036 A 
HETATM   27  C   UNL     1      20.715  51.200  49.129  1.00  0.00     0.029 A 
HETATM   28  C   UNL     1      19.768  52.033  48.528  1.00  0.00     0.002 A 
HETATM   29  C   UNL     1      18.731  51.484  47.778  1.00  0.00     0.000 A 
HETATM   30  C   UNL     1      18.650  50.104  47.615  1.00  0.00     0.002 A 
HETATM   31  C   UNL     1      19.603  49.272  48.207  1.00  0.00     0.029 A 
ENDBRANCH  22  26
ENDBRANCH   5  20
TORSDOF 6
ENDMDL
MODEL 2
REMARK VINA RESULT:      -8.9      2.700     10.688
REMARK  6 active torsions:
REMARK  status: ('A' for Active; 'I' for Inactive)
REMARK    1  A    between atoms: C_2  and  N_3 
REMARK    2  A    between atoms: C_2  and  C_24 
REMARK       I    between atoms: N_3  and  C_4 
REMARK    3  A    between atoms: C_4  and  C_5 
REMARK    4  A    between atoms: C_5  and  N_6 
REMARK    5  A    between atoms: C_10  and  N_11 
REMARK       I    between atoms: N_11  and  C_12 
REMARK       I    between atoms: C_12  and  N_13 
REMARK    6  A    between atoms: N_13  and  C_14 
ROOT
HETATM    1  N   UNL     1      25.085  45.870  50.951  1.00  0.00    -0.063 N 
HETATM    2  H   UNL     1      24.292  45.514  50.398  1.00  0.00     0.280 HD
HETATM    3  C   UNL     1      26.335  45.520  50.179  1.00  0.00     0.237 C 
HETATM    4  C   UNL     1      26.692  44.054  50.317  1.00  0.00     0.053 C 
HETATM    5  C   UNL     1      26.777  43.580  51.763  1.00  0.00     0.089 C 
HETATM    6  C   UNL     1      25.494  43.918  52.518  1.00  0.00     0.053 C 
HETATM    7  C   UNL     1      24.991  45.342  52.359  1.00  0.00     0.237 C 
ENDROOT
BRANCH   1   8
HETATM    8  C   UNL     1      24.900  47.400  50.984  1.00  0.00     0.337 C 
BRANCH   8   9
HETATM    9  C   UNL     1      24.312  47.943  49.682  1.00  0.00     0.244 C 
HETATM   10  N   UNL     1      22.994  47.639  49.468  1.00  0.00    -0.351 N 
HETATM   11  H   UNL     1      22.503  46.982  50.066  1.00  0.00     0.163 HD
HETATM   12  O   UNL     1      24.990  48.656  48.945  1.00  0.00    -0.272 OA
BRANCH  10  13
HETATM   13  C   UNL     1      22.262  48.085  48.291  1.00  0.00     0.120 C 
HETATM   14  C   UNL     1      21.460  46.947  47.666  1.00  0.00     0.038 C 
BRANCH  13  15
HETATM   15  C   UNL     1      21.386  49.245  48.695  1.00  0.00     0.005 A 
HETATM   16  S   UNL     1      19.907  49.004  49.542  1.00  0.00    -0.104 SA
HETATM   17  C   UNL     1      19.583  50.680  49.597  1.00  0.00     0.050 A 
HETATM   18  C   UNL     1      20.572  51.416  48.987  1.00  0.00     0.008 A 
HETATM   19  C   UNL     1      21.610  50.591  48.466  1.00  0.00     0.017 A 
ENDBRANCH  13  15
ENDBRANCH  10  13
ENDBRANCH   8   9
ENDBRANCH   1   8
BRANCH   5  20
HETATM   20  N   UNL     1      28.034  43.948  52.417  1.00  0.00    -0.338 N 
HETATM   21  C   UNL     1      28.425  43.630  53.696  1.00  0.00     0.321 C 
HETATM   22  N   UNL     1      29.490  44.388  54.110  1.00  0.00    -0.309 N 
HETATM   23  O   UNL     1      27.806  42.825  54.380  1.00  0.00    -0.247 OA
HETATM   24  H   UNL     1      29.706  45.202  53.552  1.00  0.00     0.170 HD
HETATM   25  H   UNL     1      28.751  44.361  51.831  1.00  0.00     0.164 HD
BRANCH  22  26
HETATM   26  C   UNL     1      30.086  44.350  55.391  1.00  0.00     0.036 A 
HETATM   27  C   UNL     1      30.895  43.300  55.834  1.00  0.00     0.029 A 
HETATM   28  C   UNL     1      31.426  43.310  57.127  1.00  0.00     0.002 A 
HETATM   29  C   UNL     1      31.154  44.372  57.985  1.00  0.00     0.000 A 
HETATM   30  C   UNL     1      30.365  45.431  57.547  1.00  0.00     0.002 A 
HETATM   31  C   UNL     1      29.843  45.427  56.252  1.00  0.00     0.029 A 
ENDBRANCH  22  26
ENDBRANCH   5  20
TORSDOF 6
ENDMDL
MODEL 3
REMARK VINA RESULT:      -8.7      2.921     10.753
REMARK  6 active torsions:
REMARK  status: ('A' for Active; 'I' for Inactive)
REMARK    1  A    between atoms: C_2  and  N_3 
REMARK    2  A    between atoms: C_2  and  C_24 
REMARK       I    between atoms: N_3  and  C_4 
REMARK    3  A    between atoms: C_4  and  C_5 
REMARK    4  A    between atoms: C_5  and  N_6 
REMARK    5  A    between atoms: C_10  and  N_11 
REMARK       I    between atoms: N_11  and  C_12 
REMARK       I    between atoms: C_12  and  N_13 
REMARK    6  A    between atoms: N_13  and  C_14 
ROOT
HETATM    1  N   UNL     1      24.366  45.868  49.416  1.00  0.00    -0.063 N 
HETATM    2  H   UNL     1      24.187  45.563  48.447  1.00  0.00     0.280 HD
HETATM    3  C   UNL     1      25.866  45.921  49.577  1.00  0.00     0.237 C 
HETATM    4  C   UNL     1      26.466  44.538  49.734  1.00  0.00     0.053 C 
HETATM    5  C   UNL     1      25.813  43.712  50.837  1.00  0.00     0.089 C 
HETATM    6  C   UNL     1      24.301  43.648  50.639  1.00  0.00     0.053 C 
HETATM    7  C   UNL     1      23.614  44.975  50.368  1.00  0.00     0.237 C 
ENDROOT
BRANCH   1   8
HETATM    8  C   UNL     1      23.778  47.291  49.505  1.00  0.00     0.337 C 
BRANCH   8   9
HETATM    9  C   UNL     1      22.517  47.454  48.657  1.00  0.00     0.244 C 
HETATM   10  N   UNL     1      21.468  48.069  49.289  1.00  0.00    -0.351 N 
HETATM   11  H   UNL     1      21.496  48.263  50.285  1.00  0.00     0.163 HD
HETATM   12  O   UNL     1      22.513  47.109  47.478  1.00  0.00    -0.272 OA
BRANCH  10  13
HETATM   13  C   UNL     1      20.193  48.325  48.634  1.00  0.00     0.120 C 
HETATM   14  C   UNL     1      19.112  47.363  49.118  1.00  0.00     0.038 C 
BRANCH  13  15
HETATM   15  C   UNL     1      19.822  49.767  48.878  1.00  0.00     0.005 A 
HETATM   16  S   UNL     1      18.801  50.226  50.186  1.00  0.00    -0.104 SA
HETATM   17  C   UNL     1      18.888  51.879  49.767  1.00  0.00     0.050 A 
HETATM   18  C   UNL     1      19.673  52.090  48.657  1.00  0.00     0.008 A 
HETATM   19  C   UNL     1      20.211  50.874  48.144  1.00  0.00     0.017 A 
ENDBRANCH  13  15
ENDBRANCH  10  13
ENDBRANCH   8   9
ENDBRANCH   1   8
BRANCH   5  20
HETATM   20  N   UNL     1      26.281  44.068  52.177  1.00  0.00    -0.338 N 
HETATM   21  C   UNL     1      27.584  44.111  52.613  1.00  0.00     0.321 C 
HETATM   22  N   UNL     1      27.664  44.157  53.982  1.00  0.00    -0.309 N 
HETATM   23  O   UNL     1      28.529  44.021  51.840  1.00  0.00    -0.247 OA
HETATM   24  H   UNL     1      26.819  43.935  54.489  1.00  0.00     0.170 HD
HETATM   25  H   UNL     1      25.594  44.455  52.813  1.00  0.00     0.164 HD
BRANCH  22  26
HETATM   26  C   UNL     1      28.855  44.144  54.743  1.00  0.00     0.036 A 
HETATM   27  C   UNL     1      29.688  43.028  54.853  1.00  0.00     0.029 A 
HETATM   28  C   UNL     1      30.836  43.073  55.649  1.00  0.00     0.002 A 
HETATM   29  C   UNL     1      31.160  44.238  56.340  1.00  0.00     0.000 A 
HETATM   30  C   UNL     1      30.348  45.362  56.222  1.00  0.00     0.002 A 
HETATM   31  C   UNL     1      29.206  45.320  55.417  1.00  0.00     0.029 A 
ENDBRANCH  22  26
ENDBRANCH   5  20
TORSDOF 6
ENDMDL
MODEL 4
REMARK VINA RESULT:      -8.2      2.977      9.313
REMARK  6 active torsions:
REMARK  status: ('A' for Active; 'I' for Inactive)
REMARK    1  A    between atoms: C_2  and  N_3 
REMARK    2  A    between atoms: C_2  and  C_24 
REMARK       I    between atoms: N_3  and  C_4 
REMARK    3  A    between atoms: C_4  and  C_5 
REMARK    4  A    between atoms: C_5  and  N_6 
REMARK    5  A    between atoms: C_10  and  N_11 
REMARK       I    between atoms: N_11  and  C_12 
REMARK       I    between atoms: C_12  and  N_13 
REMARK    6  A    between atoms: N_13  and  C_14 
ROOT
HETATM    1  N   UNL     1      23.410  43.979  48.959  1.00  0.00    -0.063 N 
HETATM    2  H   UNL     1      23.361  43.720  47.962  1.00  0.00     0.280 HD
HETATM    3  C   UNL     1      24.760  44.623  49.166  1.00  0.00     0.237 C 
HETATM    4  C   UNL     1      25.874  43.596  49.214  1.00  0.00     0.053 C 
HETATM    5  C   UNL     1      25.628  42.477  50.219  1.00  0.00     0.089 C 
HETATM    6  C   UNL     1      24.272  41.821  49.974  1.00  0.00     0.053 C 
HETATM    7  C   UNL     1      23.100  42.771  49.805  1.00  0.00     0.237 C 
ENDROOT
BRANCH   1   8
HETATM    8  C   UNL     1      22.293  45.023  49.160  1.00  0.00     0.337 C 
BRANCH   8   9
HETATM    9  C   UNL     1      22.596  46.343  48.452  1.00  0.00     0.244 C 
HETATM   10  N   UNL     1      22.954  47.376  49.277  1.00  0.00    -0.351 N 
HETATM   11  H   UNL     1      22.877  47.293  50.286  1.00  0.00     0.163 HD
HETATM   12  O   UNL     1      22.577  46.407  47.224  1.00  0.00    -0.272 OA
BRANCH  10  13
HETATM   13  C   UNL     1      23.294  48.702  48.780  1.00  0.00     0.120 C 
HETATM   14  C   UNL     1      22.531  49.792  49.527  1.00  0.00     0.038 C 
BRANCH  13  15
HETATM   15  C   UNL     1      24.789  48.875  48.891  1.00  0.00     0.005 A 
HETATM   16  S   UNL     1      25.618  50.113  48.030  1.00  0.00    -0.104 SA
HETATM   17  C   UNL     1      27.131  49.641  48.666  1.00  0.00     0.050 A 
HETATM   18  C   UNL     1      27.020  48.565  49.516  1.00  0.00     0.008 A 
HETATM   19  C   UNL     1      25.671  48.122  49.645  1.00  0.00     0.017 A 
ENDBRANCH  13  15
ENDBRANCH  10  13
ENDBRANCH   8   9
ENDBRANCH   1   8
BRANCH   5  20
HETATM   20  N   UNL     1      25.925  42.865  51.599  1.00  0.00    -0.338 N 
HETATM   21  C   UNL     1      27.107  43.379  52.077  1.00  0.00     0.321 C 
HETATM   22  N   UNL     1      27.171  43.328  53.446  1.00  0.00    -0.309 N 
HETATM   23  O   UNL     1      28.006  43.740  51.328  1.00  0.00    -0.247 OA
HETATM   24  H   UNL     1      26.486  42.745  53.906  1.00  0.00     0.170 HD
HETATM   25  H   UNL     1      25.145  42.889  52.245  1.00  0.00     0.164 HD
BRANCH  22  26
HETATM   26  C   UNL     1      28.274  43.717  54.238  1.00  0.00     0.036 A 
HETATM   27  C   UNL     1      29.380  42.898  54.477  1.00  0.00     0.029 A 
HETATM   28  C   UNL     1      30.424  43.333  55.298  1.00  0.00     0.002 A 
HETATM   29  C   UNL     1      30.370  44.594  55.886  1.00  0.00     0.000 A 
HETATM   30  C   UNL     1      29.281  45.426  55.640  1.00  0.00     0.002 A 
HETATM   31  C   UNL     1      28.243  44.995  54.810  1.00  0.00     0.029 A 
ENDBRANCH  22  26
ENDBRANCH   5  20
TORSDOF 6
ENDMDL
MODEL 5
REMARK VINA RESULT:      -8.0      5.581     12.520
REMARK  6 active torsions:
REMARK  status: ('A' for Active; 'I' for Inactive)
REMARK    1  A    between atoms: C_2  and  N_3 
REMARK    2  A    between atoms: C_2  and  C_24 
REMARK       I    between atoms: N_3  and  C_4 
REMARK    3  A    between atoms: C_4  and  C_5 
REMARK    4  A    between atoms: C_5  and  N_6 
REMARK    5  A    between atoms: C_10  and  N_11 
REMARK       I    between atoms: N_11  and  C_12 
REMARK       I    between atoms: C_12  and  N_13 
REMARK    6  A    between atoms: N_13  and  C_14 
ROOT
HETATM    1  N   UNL     1      18.247  50.706  49.233  1.00  0.00    -0.063 N 
HETATM    2  H   UNL     1      17.417  50.571  48.636  1.00  0.00     0.280 HD
HETATM    3  C   UNL     1      19.429  50.824  48.300  1.00  0.00     0.237 C 
HETATM    4  C   UNL     1      19.848  49.478  47.747  1.00  0.00     0.053 C 
HETATM    5  C   UNL     1      20.089  48.425  48.823  1.00  0.00     0.089 C 
HETATM    6  C   UNL     1      18.874  48.301  49.737  1.00  0.00     0.053 C 
HETATM    7  C   UNL     1      18.307  49.608  50.263  1.00  0.00     0.237 C 
ENDROOT
BRANCH   1   8
HETATM    8  C   UNL     1      18.011  52.048  49.955  1.00  0.00     0.337 C 
BRANCH   8   9
HETATM    9  C   UNL     1      16.683  52.694  49.563  1.00  0.00     0.244 C 
HETATM   10  N   UNL     1      16.126  53.502  50.519  1.00  0.00    -0.351 N 
HETATM   11  H   UNL     1      16.505  53.540  51.460  1.00  0.00     0.163 HD
HETATM   12  O   UNL     1      16.222  52.530  48.436  1.00  0.00    -0.272 OA
BRANCH  10  13
HETATM   13  C   UNL     1      14.871  54.213  50.317  1.00  0.00     0.120 C 
HETATM   14  C   UNL     1      13.674  53.366  50.738  1.00  0.00     0.038 C 
BRANCH  13  15
HETATM   15  C   UNL     1      14.943  55.514  51.078  1.00  0.00     0.005 A 
HETATM   16  S   UNL     1      14.549  55.602  52.751  1.00  0.00    -0.104 SA
HETATM   17  C   UNL     1      14.868  57.279  52.811  1.00  0.00     0.050 A 
HETATM   18  C   UNL     1      15.265  57.773  51.590  1.00  0.00     0.008 A 
HETATM   19  C   UNL     1      15.308  56.757  50.591  1.00  0.00     0.017 A 
ENDBRANCH  13  15
ENDBRANCH  10  13
ENDBRANCH   8   9
ENDBRANCH   1   8
BRANCH   5  20
HETATM   20  N   UNL     1      21.389  48.561  49.482  1.00  0.00    -0.338 N 
HETATM   21  C   UNL     1      22.611  48.173  48.986  1.00  0.00     0.321 C 
HETATM   22  N   UNL     1      23.572  48.136  49.965  1.00  0.00    -0.309 N 
HETATM   23  O   UNL     1      22.756  47.821  47.822  1.00  0.00    -0.247 OA
HETATM   24  H   UNL     1      23.243  48.171  50.919  1.00  0.00     0.170 HD
HETATM   25  H   UNL     1      21.417  49.118  50.327  1.00  0.00     0.164 HD
BRANCH  22  26
HETATM   26  C   UNL     1      24.911  47.718  49.795  1.00  0.00     0.036 A 
HETATM   27  C   UNL     1      25.944  48.575  49.407  1.00  0.00     0.029 A 
HETATM   28  C   UNL     1      27.241  48.089  49.226  1.00  0.00     0.002 A 
HETATM   29  C   UNL     1      27.516  46.739  49.433  1.00  0.00     0.000 A 
HETATM   30  C   UNL     1      26.498  45.880  49.837  1.00  0.00     0.002 A 
HETATM   31  C   UNL     1      25.204  46.369  50.029  1.00  0.00     0.029 A 
ENDBRANCH  22  26
ENDBRANCH   5  20
TORSDOF 6
ENDMDL
MODEL 6
REMARK VINA RESULT:      -7.7      4.184      7.590
REMARK  6 active torsions:
REMARK  status: ('A' for Active; 'I' for Inactive)
REMARK    1  A    between atoms: C_2  and  N_3 
REMARK    2  A    between atoms: C_2  and  C_24 
REMARK       I    between atoms: N_3  and  C_4 
REMARK    3  A    between atoms: C_4  and  C_5 
REMARK    4  A    between atoms: C_5  and  N_6 
REMARK    5  A    between atoms: C_10  and  N_11 
REMARK       I    between atoms: N_11  and  C_12 
REMARK       I    between atoms: C_12  and  N_13 
REMARK    6  A    between atoms: N_13  and  C_14 
ROOT
HETATM    1  N   UNL     1      25.126  45.774  52.117  1.00  0.00    -0.063 N 
HETATM    2  H   UNL     1      24.302  46.392  52.157  1.00  0.00     0.280 HD
HETATM    3  C   UNL     1      25.976  46.270  50.972  1.00  0.00     0.237 C 
HETATM    4  C   UNL     1      25.406  45.861  49.628  1.00  0.00     0.053 C 
HETATM    5  C   UNL     1      25.129  44.366  49.513  1.00  0.00     0.089 C 
HETATM    6  C   UNL     1      24.246  43.892  50.663  1.00  0.00     0.053 C 
HETATM    7  C   UNL     1      24.673  44.338  52.051  1.00  0.00     0.237 C 
ENDROOT
BRANCH   1   8
HETATM    8  C   UNL     1      25.863  45.998  53.453  1.00  0.00     0.337 C 
BRANCH   8   9
HETATM    9  C   UNL     1      26.601  44.747  53.928  1.00  0.00     0.244 C 
HETATM   10  N   UNL     1      27.887  44.624  53.472  1.00  0.00    -0.351 N 
HETATM   11  H   UNL     1      28.254  45.248  52.761  1.00  0.00     0.163 HD
HETATM   12  O   UNL     1      26.065  43.972  54.717  1.00  0.00    -0.272 OA
BRANCH  10  13
HETATM   13  C   UNL     1      28.748  43.507  53.834  1.00  0.00     0.120 C 
HETATM   14  C   UNL     1      29.565  43.021  52.639  1.00  0.00     0.038 C 
BRANCH  13  15
HETATM   15  C   UNL     1      29.624  43.942  54.983  1.00  0.00     0.005 A 
HETATM   16  S   UNL     1      29.402  45.461  55.760  1.00  0.00    -0.104 SA
HETATM   17  C   UNL     1      30.690  45.176  56.844  1.00  0.00     0.050 A 
HETATM   18  C   UNL     1      31.284  43.954  56.629  1.00  0.00     0.008 A 
HETATM   19  C   UNL     1      30.671  43.242  55.557  1.00  0.00     0.017 A 
ENDBRANCH  13  15
ENDBRANCH  10  13
ENDBRANCH   8   9
ENDBRANCH   1   8
BRANCH   5  20
HETATM   20  N   UNL     1      26.332  43.576  49.245  1.00  0.00    -0.338 N 
HETATM   21  C   UNL     1      26.396  42.223  49.011  1.00  0.00     0.321 C 
HETATM   22  N   UNL     1      27.678  41.745  49.121  1.00  0.00    -0.309 N 
HETATM   23  O   UNL     1      25.391  41.549  48.824  1.00  0.00    -0.247 OA
HETATM   24  H   UNL     1      28.349  42.358  49.560  1.00  0.00     0.170 HD
HETATM   25  H   UNL     1      27.189  44.090  49.077  1.00  0.00     0.164 HD
BRANCH  22  26
HETATM   26  C   UNL     1      28.070  40.393  49.003  1.00  0.00     0.036 A 
HETATM   27  C   UNL     1      28.453  39.603  50.090  1.00  0.00     0.029 A 
HETATM   28  C   UNL     1      28.861  38.280  49.899  1.00  0.00     0.002 A 
HETATM   29  C   UNL     1      28.887  37.736  48.618  1.00  0.00     0.000 A 
HETATM   30  C   UNL     1      28.489  38.508  47.530  1.00  0.00     0.002 A 
HETATM   31  C   UNL     1      28.071  39.827  47.723  1.00  0.00     0.029 A 
ENDBRANCH  22  26
ENDBRANCH   5  20
TORSDOF 6
ENDMDL
MODEL 7
REMARK VINA RESULT:      -7.7      4.145      5.500
REMARK  6 active torsions:
REMARK  status: ('A' for Active; 'I' for Inactive)
REMARK    1  A    between atoms: C_2  and  N_3 
REMARK    2  A    between atoms: C_2  and  C_24 
REMARK       I    between atoms: N_3  and  C_4 
REMARK    3  A    between atoms: C_4  and  C_5 
REMARK    4  A    between atoms: C_5  and  N_6 
REMARK    5  A    between atoms: C_10  and  N_11 
REMARK       I    between atoms: N_11  and  C_12 
REMARK       I    between atoms: C_12  and  N_13 
REMARK    6  A    between atoms: N_13  and  C_14 
ROOT
HETATM    1  N   UNL     1      26.353  44.408  51.103  1.00  0.00    -0.063 N 
HETATM    2  H   UNL     1      27.342  44.427  51.391  1.00  0.00     0.280 HD
HETATM    3  C   UNL     1      26.296  45.032  49.729  1.00  0.00     0.237 C 
HETATM    4  C   UNL     1      26.414  46.542  49.789  1.00  0.00     0.053 C 
HETATM    5  C   UNL     1      25.418  47.194  50.741  1.00  0.00     0.089 C 
HETATM    6  C   UNL     1      25.512  46.569  52.130  1.00  0.00     0.053 C 
HETATM    7  C   UNL     1      25.508  45.051  52.173  1.00  0.00     0.237 C 
ENDROOT
BRANCH   1   8
HETATM    8  C   UNL     1      25.986  42.913  51.017  1.00  0.00     0.337 C 
BRANCH   8   9
HETATM    9  C   UNL     1      27.205  42.029  50.755  1.00  0.00     0.244 C 
HETATM   10  N   UNL     1      27.126  41.250  49.631  1.00  0.00    -0.351 N 
HETATM   11  H   UNL     1      26.261  41.171  49.106  1.00  0.00     0.163 HD
HETATM   12  O   UNL     1      28.190  42.098  51.487  1.00  0.00    -0.272 OA
BRANCH  10  13
HETATM   13  C   UNL     1      28.199  40.358  49.213  1.00  0.00     0.120 C 
HETATM   14  C   UNL     1      28.164  39.042  49.987  1.00  0.00     0.038 C 
BRANCH  13  15
HETATM   15  C   UNL     1      28.080  40.146  47.724  1.00  0.00     0.005 A 
HETATM   16  S   UNL     1      27.584  38.635  47.066  1.00  0.00    -0.104 SA
HETATM   17  C   UNL     1      27.707  39.211  45.463  1.00  0.00     0.050 A 
HETATM   18  C   UNL     1      28.116  40.524  45.418  1.00  0.00     0.008 A 
HETATM   19  C   UNL     1      28.332  41.063  46.719  1.00  0.00     0.017 A 
ENDBRANCH  13  15
ENDBRANCH  10  13
ENDBRANCH   8   9
ENDBRANCH   1   8
BRANCH   5  20
HETATM   20  N   UNL     1      24.075  47.321  50.173  1.00  0.00    -0.338 N 
HETATM   21  C   UNL     1      23.526  48.440  49.593  1.00  0.00     0.321 C 
HETATM   22  N   UNL     1      22.164  48.333  49.463  1.00  0.00    -0.309 N 
HETATM   23  O   UNL     1      24.198  49.428  49.328  1.00  0.00    -0.247 OA
HETATM   24  H   UNL     1      21.721  47.590  49.984  1.00  0.00     0.170 HD
HETATM   25  H   UNL     1      23.541  46.467  50.069  1.00  0.00     0.164 HD
BRANCH  22  26
HETATM   26  C   UNL     1      21.299  49.333  48.966  1.00  0.00     0.036 A 
HETATM   27  C   UNL     1      20.729  49.296  47.690  1.00  0.00     0.029 A 
HETATM   28  C   UNL     1      19.907  50.336  47.249  1.00  0.00     0.002 A 
HETATM   29  C   UNL     1      19.646  51.421  48.082  1.00  0.00     0.000 A 
HETATM   30  C   UNL     1      20.194  51.459  49.361  1.00  0.00     0.002 A 
HETATM   31  C   UNL     1      21.007  50.414  49.806  1.00  0.00     0.029 A 
ENDBRANCH  22  26
ENDBRANCH   5  20
TORSDOF 6
ENDMDL
MODEL 8
REMARK VINA RESULT:      -7.6     12.362     15.184
REMARK  6 active torsions:
REMARK  status: ('A' for Active; 'I' for Inactive)
REMARK    1  A    between atoms: C_2  and  N_3 
REMARK    2  A    between atoms: C_2  and  C_24 
REMARK       I    between atoms: N_3  and  C_4 
REMARK    3  A    between atoms: C_4  and  C_5 
REMARK    4  A    between atoms: C_5  and  N_6 
REMARK    5  A    between atoms: C_10  and  N_11 
REMARK       I    between atoms: N_11  and  C_12 
REMARK       I    between atoms: C_12  and  N_13 
REMARK    6  A    between atoms: N_13  and  C_14 
ROOT
HETATM    1  N   UNL     1      27.305  51.517  39.053  1.00  0.00    -0.063 N 
HETATM    2  H   UNL     1      26.469  52.119  39.021  1.00  0.00     0.280 HD
HETATM    3  C   UNL     1      27.524  51.169  40.506  1.00  0.00     0.237 C 
HETATM    4  C   UNL     1      28.131  52.323  41.278  1.00  0.00     0.053 C 
HETATM    5  C   UNL     1      29.396  52.884  40.640  1.00  0.00     0.089 C 
HETATM    6  C   UNL     1      29.146  53.256  39.182  1.00  0.00     0.053 C 
HETATM    7  C   UNL     1      28.443  52.203  38.343  1.00  0.00     0.237 C 
ENDROOT
BRANCH   1   8
HETATM    8  C   UNL     1      26.920  50.251  38.262  1.00  0.00     0.337 C 
BRANCH   8   9
HETATM    9  C   UNL     1      27.297  48.966  38.999  1.00  0.00     0.244 C 
HETATM   10  N   UNL     1      28.616  48.608  38.906  1.00  0.00    -0.351 N 
HETATM   11  H   UNL     1      29.247  49.090  38.273  1.00  0.00     0.163 HD
HETATM   12  O   UNL     1      26.459  48.369  39.673  1.00  0.00    -0.272 OA
BRANCH  10  13
HETATM   13  C   UNL     1      29.160  47.425  39.556  1.00  0.00     0.120 C 
HETATM   14  C   UNL     1      29.789  46.470  38.546  1.00  0.00     0.038 C 
BRANCH  13  15
HETATM   15  C   UNL     1      30.147  47.877  40.604  1.00  0.00     0.005 A 
HETATM   16  S   UNL     1      29.631  48.611  42.072  1.00  0.00    -0.104 SA
HETATM   17  C   UNL     1      31.235  48.795  42.628  1.00  0.00     0.050 A 
HETATM   18  C   UNL     1      32.153  48.313  41.724  1.00  0.00     0.008 A 
HETATM   19  C   UNL     1      31.527  47.785  40.557  1.00  0.00     0.017 A 
ENDBRANCH  13  15
ENDBRANCH  10  13
ENDBRANCH   8   9
ENDBRANCH   1   8
BRANCH   5  20
HETATM   20  N   UNL     1      30.586  52.076  40.912  1.00  0.00    -0.338 N 
HETATM   21  C   UNL     1      31.897  52.450  40.736  1.00  0.00     0.321 C 
HETATM   22  N   UNL     1      32.746  51.372  40.768  1.00  0.00    -0.309 N 
HETATM   23  O   UNL     1      32.213  53.607  40.489  1.00  0.00    -0.247 OA
HETATM   24  H   UNL     1      32.317  50.461  40.690  1.00  0.00     0.170 HD
HETATM   25  H   UNL     1      30.443  51.204  41.409  1.00  0.00     0.164 HD
BRANCH  22  26
HETATM   26  C   UNL     1      34.142  51.411  40.555  1.00  0.00     0.036 A 
HETATM   27  C   UNL     1      34.726  51.635  39.306  1.00  0.00     0.029 A 
HETATM   28  C   UNL     1      36.116  51.629  39.160  1.00  0.00     0.002 A 
HETATM   29  C   UNL     1      36.933  51.400  40.264  1.00  0.00     0.000 A 
HETATM   30  C   UNL     1      36.361  51.195  41.517  1.00  0.00     0.002 A 
HETATM   31  C   UNL     1      34.972  51.212  41.665  1.00  0.00     0.029 A 
ENDBRANCH  22  26
ENDBRANCH   5  20
TORSDOF 6
ENDMDL
MODEL 9
REMARK VINA RESULT:      -7.6      4.262     11.621
REMARK  6 active torsions:
REMARK  status: ('A' for Active; 'I' for Inactive)
REMARK    1  A    between atoms: C_2  and  N_3 
REMARK    2  A    between atoms: C_2  and  C_24 
REMARK       I    between atoms: N_3  and  C_4 
REMARK    3  A    between atoms: C_4  and  C_5 
REMARK    4  A    between atoms: C_5  and  N_6 
REMARK    5  A    between atoms: C_10  and  N_11 
REMARK       I    between atoms: N_11  and  C_12 
REMARK       I    between atoms: C_12  and  N_13 
REMARK    6  A    between atoms: N_13  and  C_14 
ROOT
HETATM    1  N   UNL     1      21.621  49.498  48.619  1.00  0.00    -0.063 N 
HETATM    2  H   UNL     1      21.604  49.708  47.610  1.00  0.00     0.280 HD
HETATM    3  C   UNL     1      22.931  50.034  49.144  1.00  0.00     0.237 C 
HETATM    4  C   UNL     1      24.096  49.137  48.777  1.00  0.00     0.053 C 
HETATM    5  C   UNL     1      23.890  47.679  49.171  1.00  0.00     0.089 C 
HETATM    6  C   UNL     1      22.575  47.148  48.606  1.00  0.00     0.053 C 
HETATM    7  C   UNL     1      21.358  48.029  48.829  1.00  0.00     0.237 C 
ENDROOT
BRANCH   1   8
HETATM    8  C   UNL     1      20.448  50.300  49.217  1.00  0.00     0.337 C 
BRANCH   8   9
HETATM    9  C   UNL     1      19.285  50.451  48.237  1.00  0.00     0.244 C 
HETATM   10  N   UNL     1      18.052  50.142  48.747  1.00  0.00    -0.351 N 
HETATM   11  H   UNL     1      17.954  49.710  49.660  1.00  0.00     0.163 HD
HETATM   12  O   UNL     1      19.481  50.889  47.105  1.00  0.00    -0.272 OA
BRANCH  10  13
HETATM   13  C   UNL     1      16.828  50.243  47.964  1.00  0.00     0.120 C 
HETATM   14  C   UNL     1      15.970  48.988  48.103  1.00  0.00     0.038 C 
BRANCH  13  15
HETATM   15  C   UNL     1      16.092  51.486  48.402  1.00  0.00     0.005 A 
HETATM   16  S   UNL     1      15.320  52.522  47.266  1.00  0.00    -0.104 SA
HETATM   17  C   UNL     1      14.782  53.583  48.492  1.00  0.00     0.050 A 
HETATM   18  C   UNL     1      15.177  53.168  49.742  1.00  0.00     0.008 A 
HETATM   19  C   UNL     1      15.932  51.960  49.692  1.00  0.00     0.017 A 
ENDBRANCH  13  15
ENDBRANCH  10  13
ENDBRANCH   8   9
ENDBRANCH   1   8
BRANCH   5  20
HETATM   20  N   UNL     1      24.141  47.423  50.590  1.00  0.00    -0.338 N 
HETATM   21  C   UNL     1      25.364  47.317  51.207  1.00  0.00     0.321 C 
HETATM   22  N   UNL     1      25.261  46.757  52.456  1.00  0.00    -0.309 N 
HETATM   23  O   UNL     1      26.406  47.612  50.635  1.00  0.00    -0.247 OA
HETATM   24  H   UNL     1      24.385  46.304  52.673  1.00  0.00     0.170 HD
HETATM   25  H   UNL     1      23.340  47.465  51.210  1.00  0.00     0.164 HD
BRANCH  22  26
HETATM   26  C   UNL     1      26.337  46.454  53.318  1.00  0.00     0.036 A 
HETATM   27  C   UNL     1      26.907  47.379  54.197  1.00  0.00     0.029 A 
HETATM   28  C   UNL     1      27.993  47.022  55.000  1.00  0.00     0.002 A 
HETATM   29  C   UNL     1      28.517  45.733  54.932  1.00  0.00     0.000 A 
HETATM   30  C   UNL     1      27.945  44.798  54.075  1.00  0.00     0.002 A 
HETATM   31  C   UNL     1      26.853  45.153  53.279  1.00  0.00     0.029 A 
ENDBRANCH  22  26
ENDBRANCH   5  20
TORSDOF 6
ENDMDL
MODEL 10
REMARK VINA RESULT:      -7.4      3.844     11.328
REMARK  6 active torsions:
REMARK  status: ('A' for Active; 'I' for Inactive)
REMARK    1  A    between atoms: C_2  and  N_3 
REMARK    2  A    between atoms: C_2  and  C_24 
REMARK       I    between atoms: N_3  and  C_4 
REMARK    3  A    between atoms: C_4  and  C_5 
REMARK    4  A    between atoms: C_5  and  N_6 
REMARK    5  A    between atoms: C_10  and  N_11 
REMARK       I    between atoms: N_11  and  C_12 
REMARK       I    between atoms: C_12  and  N_13 
REMARK    6  A    between atoms: N_13  and  C_14 
ROOT
HETATM    1  N   UNL     1      21.101  47.687  48.497  1.00  0.00    -0.063 N 
HETATM    2  H   UNL     1      21.070  47.992  47.513  1.00  0.00     0.280 HD
HETATM    3  C   UNL     1      22.016  48.652  49.214  1.00  0.00     0.237 C 
HETATM    4  C   UNL     1      23.475  48.373  48.917  1.00  0.00     0.053 C 
HETATM    5  C   UNL     1      23.883  46.926  49.166  1.00  0.00     0.089 C 
HETATM    6  C   UNL     1      22.965  45.969  48.410  1.00  0.00     0.053 C 
HETATM    7  C   UNL     1      21.476  46.229  48.558  1.00  0.00     0.237 C 
ENDROOT
BRANCH   1   8
HETATM    8  C   UNL     1      19.658  47.848  49.015  1.00  0.00     0.337 C 
BRANCH   8   9
HETATM    9  C   UNL     1      18.771  48.617  48.037  1.00  0.00     0.244 C 
HETATM   10  N   UNL     1      17.728  49.296  48.610  1.00  0.00    -0.351 N 
HETATM   11  H   UNL     1      17.493  49.169  49.589  1.00  0.00     0.163 HD
HETATM   12  O   UNL     1      19.052  48.654  46.841  1.00  0.00    -0.272 OA
BRANCH  10  13
HETATM   13  C   UNL     1      16.788  50.097  47.837  1.00  0.00     0.120 C 
HETATM   14  C   UNL     1      15.543  49.296  47.467  1.00  0.00     0.038 C 
BRANCH  13  15
HETATM   15  C   UNL     1      16.454  51.331  48.638  1.00  0.00     0.005 A 
HETATM   16  S   UNL     1      17.654  52.170  49.543  1.00  0.00    -0.104 SA
HETATM   17  C   UNL     1      16.529  53.332  50.092  1.00  0.00     0.050 A 
HETATM   18  C   UNL     1      15.264  53.096  49.605  1.00  0.00     0.008 A 
HETATM   19  C   UNL     1      15.220  51.943  48.768  1.00  0.00     0.017 A 
ENDBRANCH  13  15
ENDBRANCH  10  13
ENDBRANCH   8   9
ENDBRANCH   1   8
BRANCH   5  20
HETATM   20  N   UNL     1      24.114  46.627  50.580  1.00  0.00    -0.338 N 
HETATM   21  C   UNL     1      25.220  46.959  51.325  1.00  0.00     0.321 C 
HETATM   22  N   UNL     1      25.272  46.260  52.505  1.00  0.00    -0.309 N 
HETATM   23  O   UNL     1      26.080  47.722  50.903  1.00  0.00    -0.247 OA
HETATM   24  H   UNL     1      24.655  45.464  52.582  1.00  0.00     0.170 HD
HETATM   25  H   UNL     1      23.328  46.260  51.104  1.00  0.00     0.164 HD
BRANCH  22  26
HETATM   26  C   UNL     1      26.311  46.324  53.460  1.00  0.00     0.036 A 
HETATM   27  C   UNL     1      27.235  45.297  53.665  1.00  0.00     0.029 A 
HETATM   28  C   UNL     1      28.219  45.412  54.651  1.00  0.00     0.002 A 
HETATM   29  C   UNL     1      28.287  46.558  55.438  1.00  0.00     0.000 A 
HETATM   30  C   UNL     1      27.383  47.596  55.229  1.00  0.00     0.002 A 
HETATM   31  C   UNL     1      26.407  47.485  54.237  1.00  0.00     0.029 A 
ENDBRANCH  22  26
ENDBRANCH   5  20
TORSDOF 6
ENDMDL
