MODEL 1
REMARK VINA RESULT:     -10.5      0.000      0.000
REMARK  9 active torsions:
REMARK  status: ('A' for Active; 'I' for Inactive)
REMARK    1  A    between atoms: C_3  and  N_4 
REMARK       I    between atoms: N_4  and  C_5 
REMARK    2  A    between atoms: C_5  and  C_6 
REMARK    3  A    between atoms: C_6  and  S_7 
REMARK    4  A    between atoms: S_7  and  C_8 
REMARK    5  A    between atoms: N_9  and  C_10 
REMARK    6  A    between atoms: C_10  and  C_11 
REMARK       I    between atoms: C_11  and  N_12 
REMARK    7  A    between atoms: N_12  and  C_13 
REMARK    8  A    between atoms: C_15  and  O_16 
REMARK    9  A    between atoms: C_21  and  C_22 
ROOT
HETATM    1  C   UNL     1      26.584  44.634  52.819  1.00  0.00     0.169 A 
HETATM    2  N   UNL     1      27.457  44.091  53.731  1.00  0.00    -0.315 N 
HETATM    3  C   UNL     1      28.005  45.144  54.447  1.00  0.00     0.065 A 
HETATM    4  C   UNL     1      27.377  46.264  53.933  1.00  0.00     0.150 A 
HETATM    5  N   UNL     1      26.509  45.935  52.931  1.00  0.00    -0.234 NA
ENDROOT
BRANCH   1   6
HETATM    6  S   UNL     1      25.671  43.714  51.676  1.00  0.00    -0.083 SA
BRANCH   6   7
HETATM    7  C   UNL     1      24.322  44.880  51.292  1.00  0.00     0.185 C 
BRANCH   7   8
HETATM    8  C   UNL     1      24.623  45.803  50.117  1.00  0.00     0.231 C 
HETATM    9  N   UNL     1      24.485  47.153  50.386  1.00  0.00    -0.326 N 
HETATM   10  H   UNL     1      23.905  47.365  51.189  1.00  0.00     0.169 HD
HETATM   11  O   UNL     1      24.992  45.330  49.044  1.00  0.00    -0.272 OA
BRANCH   9  12
HETATM   12  C   UNL     1      24.704  48.203  49.470  1.00  0.00     0.046 A 
HETATM   13  C   UNL     1      23.570  48.793  48.862  1.00  0.00    -0.035 A 
HETATM   14  C   UNL     1      22.174  48.285  49.108  1.00  0.00     0.050 C 
HETATM   15  C   UNL     1      23.743  49.855  47.960  1.00  0.00     0.009 A 
HETATM   16  C   UNL     1      25.014  50.334  47.664  1.00  0.00     0.001 A 
HETATM   17  C   UNL     1      26.127  49.772  48.282  1.00  0.00     0.009 A 
HETATM   18  C   UNL     1      25.989  48.722  49.208  1.00  0.00    -0.035 A 
HETATM   19  C   UNL     1      27.238  48.258  49.907  1.00  0.00     0.050 C 
ENDBRANCH   9  12
ENDBRANCH   7   8
ENDBRANCH   6   7
ENDBRANCH   1   6
BRANCH   2  20
HETATM   20  C   UNL     1      27.721  42.677  53.936  1.00  0.00     0.234 C 
BRANCH  20  21
HETATM   21  C   UNL     1      28.524  41.987  52.842  1.00  0.00     0.240 C 
HETATM   22  N   UNL     1      27.929  40.898  52.229  1.00  0.00    -0.326 N 
HETATM   23  H   UNL     1      27.037  40.578  52.585  1.00  0.00     0.169 HD
HETATM   24  O   UNL     1      29.614  42.467  52.528  1.00  0.00    -0.271 OA
BRANCH  22  25
HETATM   25  C   UNL     1      28.437  40.131  51.156  1.00  0.00     0.037 A 
HETATM   26  C   UNL     1      29.172  38.954  51.309  1.00  0.00     0.066 A 
HETATM   27  C   UNL     1      29.638  38.274  50.184  1.00  0.00     0.067 A 
HETATM   28  C   UNL     1      29.386  38.747  48.903  1.00  0.00     0.036 A 
HETATM   29  C   UNL     1      28.654  39.919  48.739  1.00  0.00     0.005 A 
HETATM   30  C   UNL     1      28.182  40.607  49.861  1.00  0.00     0.029 A 
BRANCH  27  31
HETATM   31  O   UNL     1      30.359  37.121  50.303  1.00  0.00    -0.361 OA
HETATM   32  H   UNL     1      31.000  37.081  49.574  1.00  0.00     0.217 HD
ENDBRANCH  27  31
ENDBRANCH  22  25
ENDBRANCH  20  21
ENDBRANCH   2  20
BRANCH   3  33
HETATM   33  C   UNL     1      28.979  45.054  55.529  1.00  0.00    -0.008 A 
HETATM   34  C   UNL     1      30.075  44.184  55.449  1.00  0.00     0.017 A 
HETATM   35  C   UNL     1      31.011  44.134  56.486  1.00  0.00     0.043 A 
HETATM   36  C   UNL     1      30.856  44.959  57.593  1.00  0.00     0.116 A 
HETATM   37  F   UNL     1      31.757  44.915  58.581  1.00  0.00    -0.206 F 
HETATM   38  C   UNL     1      29.782  45.836  57.684  1.00  0.00     0.043 A 
HETATM   39  C   UNL     1      28.844  45.885  56.650  1.00  0.00     0.017 A 
ENDBRANCH   3  33
TORSDOF 9
ENDMDL
MODEL 2
REMARK VINA RESULT:     -10.3      1.417      2.195
REMARK  9 active torsions:
REMARK  status: ('A' for Active; 'I' for Inactive)
REMARK    1  A    between atoms: C_3  and  N_4 
REMARK       I    between atoms: N_4  and  C_5 
REMARK    2  A    between atoms: C_5  and  C_6 
REMARK    3  A    between atoms: C_6  and  S_7 
REMARK    4  A    between atoms: S_7  and  C_8 
REMARK    5  A    between atoms: N_9  and  C_10 
REMARK    6  A    between atoms: C_10  and  C_11 
REMARK       I    between atoms: C_11  and  N_12 
REMARK    7  A    between atoms: N_12  and  C_13 
REMARK    8  A    between atoms: C_15  and  O_16 
REMARK    9  A    between atoms: C_21  and  C_22 
ROOT
HETATM    1  C   UNL     1      26.167  45.730  53.590  1.00  0.00     0.169 A 
HETATM    2  N   UNL     1      27.079  44.973  54.285  1.00  0.00    -0.315 N 
HETATM    3  C   UNL     1      27.815  45.844  55.073  1.00  0.00     0.065 A 
HETATM    4  C   UNL     1      27.251  47.083  54.823  1.00  0.00     0.150 A 
HETATM    5  N   UNL     1      26.242  46.997  53.907  1.00  0.00    -0.234 NA
ENDROOT
BRANCH   1   6
HETATM    6  S   UNL     1      25.034  45.091  52.451  1.00  0.00    -0.083 SA
BRANCH   6   7
HETATM    7  C   UNL     1      26.066  44.995  50.951  1.00  0.00     0.185 C 
BRANCH   7   8
HETATM    8  C   UNL     1      25.630  45.946  49.842  1.00  0.00     0.231 C 
HETATM    9  N   UNL     1      25.636  47.285  50.187  1.00  0.00    -0.326 N 
HETATM   10  H   UNL     1      25.608  47.464  51.183  1.00  0.00     0.169 HD
HETATM   11  O   UNL     1      25.338  45.502  48.733  1.00  0.00    -0.272 OA
BRANCH   9  12
HETATM   12  C   UNL     1      25.275  48.356  49.342  1.00  0.00     0.046 A 
HETATM   13  C   UNL     1      26.315  49.158  48.816  1.00  0.00    -0.035 A 
HETATM   14  C   UNL     1      27.758  48.946  49.192  1.00  0.00     0.050 C 
HETATM   15  C   UNL     1      26.001  50.222  47.955  1.00  0.00     0.009 A 
HETATM   16  C   UNL     1      24.681  50.489  47.611  1.00  0.00     0.001 A 
HETATM   17  C   UNL     1      23.660  49.683  48.106  1.00  0.00     0.009 A 
HETATM   18  C   UNL     1      23.941  48.595  48.953  1.00  0.00    -0.035 A 
HETATM   19  C   UNL     1      22.783  47.716  49.344  1.00  0.00     0.050 C 
ENDBRANCH   9  12
ENDBRANCH   7   8
ENDBRANCH   6   7
ENDBRANCH   1   6
BRANCH   2  20
HETATM   20  C   UNL     1      27.215  43.527  54.235  1.00  0.00     0.234 C 
BRANCH  20  21
HETATM   21  C   UNL     1      27.896  42.968  52.995  1.00  0.00     0.240 C 
HETATM   22  N   UNL     1      27.208  41.990  52.297  1.00  0.00    -0.326 N 
HETATM   23  H   UNL     1      26.336  41.653  52.683  1.00  0.00     0.169 HD
HETATM   24  O   UNL     1      28.976  43.452  52.654  1.00  0.00    -0.271 OA
BRANCH  22  25
HETATM   25  C   UNL     1      27.594  41.361  51.092  1.00  0.00     0.037 A 
HETATM   26  C   UNL     1      27.315  41.863  49.818  1.00  0.00     0.066 A 
HETATM   27  C   UNL     1      27.731  41.159  48.688  1.00  0.00     0.067 A 
HETATM   28  C   UNL     1      28.422  39.960  48.801  1.00  0.00     0.036 A 
HETATM   29  C   UNL     1      28.705  39.452  50.065  1.00  0.00     0.005 A 
HETATM   30  C   UNL     1      28.293  40.150  51.204  1.00  0.00     0.029 A 
BRANCH  27  31
HETATM   31  O   UNL     1      27.473  41.625  47.431  1.00  0.00    -0.361 OA
HETATM   32  H   UNL     1      26.577  42.001  47.419  1.00  0.00     0.217 HD
ENDBRANCH  27  31
ENDBRANCH  22  25
ENDBRANCH  20  21
ENDBRANCH   2  20
BRANCH   3  33
HETATM   33  C   UNL     1      28.894  45.496  55.990  1.00  0.00    -0.008 A 
HETATM   34  C   UNL     1      29.939  44.649  55.594  1.00  0.00     0.017 A 
HETATM   35  C   UNL     1      30.977  44.350  56.480  1.00  0.00     0.043 A 
HETATM   36  C   UNL     1      30.975  44.905  57.754  1.00  0.00     0.116 A 
HETATM   37  F   UNL     1      31.975  44.623  58.598  1.00  0.00    -0.206 F 
HETATM   38  C   UNL     1      29.954  45.755  58.160  1.00  0.00     0.043 A 
HETATM   39  C   UNL     1      28.915  46.052  57.277  1.00  0.00     0.017 A 
ENDBRANCH   3  33
TORSDOF 9
ENDMDL
MODEL 3
REMARK VINA RESULT:     -10.2      1.422      2.345
REMARK  9 active torsions:
REMARK  status: ('A' for Active; 'I' for Inactive)
REMARK    1  A    between atoms: C_3  and  N_4 
REMARK       I    between atoms: N_4  and  C_5 
REMARK    2  A    between atoms: C_5  and  C_6 
REMARK    3  A    between atoms: C_6  and  S_7 
REMARK    4  A    between atoms: S_7  and  C_8 
REMARK    5  A    between atoms: N_9  and  C_10 
REMARK    6  A    between atoms: C_10  and  C_11 
REMARK       I    between atoms: C_11  and  N_12 
REMARK    7  A    between atoms: N_12  and  C_13 
REMARK    8  A    between atoms: C_15  and  O_16 
REMARK    9  A    between atoms: C_21  and  C_22 
ROOT
HETATM    1  C   UNL     1      26.014  44.668  52.437  1.00  0.00     0.169 A 
HETATM    2  N   UNL     1      27.297  44.276  52.732  1.00  0.00    -0.315 N 
HETATM    3  C   UNL     1      27.567  44.702  54.023  1.00  0.00     0.065 A 
HETATM    4  C   UNL     1      26.386  45.293  54.437  1.00  0.00     0.150 A 
HETATM    5  N   UNL     1      25.442  45.268  53.449  1.00  0.00    -0.234 NA
ENDROOT
BRANCH   1   6
HETATM    6  S   UNL     1      25.231  44.384  50.922  1.00  0.00    -0.083 SA
BRANCH   6   7
HETATM    7  C   UNL     1      25.846  45.795  49.944  1.00  0.00     0.185 C 
BRANCH   7   8
HETATM    8  C   UNL     1      24.957  47.031  50.020  1.00  0.00     0.231 C 
HETATM    9  N   UNL     1      24.406  47.428  48.816  1.00  0.00    -0.326 N 
HETATM   10  H   UNL     1      24.889  47.080  47.996  1.00  0.00     0.169 HD
HETATM   11  O   UNL     1      24.753  47.573  51.105  1.00  0.00    -0.272 OA
BRANCH   9  12
HETATM   12  C   UNL     1      23.554  48.537  48.624  1.00  0.00     0.046 A 
HETATM   13  C   UNL     1      24.155  49.787  48.345  1.00  0.00    -0.035 A 
HETATM   14  C   UNL     1      25.649  49.971  48.325  1.00  0.00     0.050 C 
HETATM   15  C   UNL     1      23.342  50.912  48.127  1.00  0.00     0.009 A 
HETATM   16  C   UNL     1      21.958  50.806  48.178  1.00  0.00     0.001 A 
HETATM   17  C   UNL     1      21.366  49.571  48.425  1.00  0.00     0.009 A 
HETATM   18  C   UNL     1      22.149  48.419  48.625  1.00  0.00    -0.035 A 
HETATM   19  C   UNL     1      21.418  47.112  48.772  1.00  0.00     0.050 C 
ENDBRANCH   9  12
ENDBRANCH   7   8
ENDBRANCH   6   7
ENDBRANCH   1   6
BRANCH   2  20
HETATM   20  C   UNL     1      28.187  43.519  51.869  1.00  0.00     0.234 C 
BRANCH  20  21
HETATM   21  C   UNL     1      27.918  42.023  51.789  1.00  0.00     0.240 C 
HETATM   22  N   UNL     1      28.319  41.381  50.630  1.00  0.00    -0.326 N 
HETATM   23  H   UNL     1      28.697  41.945  49.879  1.00  0.00     0.169 HD
HETATM   24  O   UNL     1      27.423  41.466  52.770  1.00  0.00    -0.271 OA
BRANCH  22  25
HETATM   25  C   UNL     1      28.239  40.001  50.338  1.00  0.00     0.037 A 
HETATM   26  C   UNL     1      29.244  39.075  50.632  1.00  0.00     0.066 A 
HETATM   27  C   UNL     1      29.072  37.733  50.293  1.00  0.00     0.067 A 
HETATM   28  C   UNL     1      27.915  37.292  49.665  1.00  0.00     0.036 A 
HETATM   29  C   UNL     1      26.908  38.206  49.369  1.00  0.00     0.005 A 
HETATM   30  C   UNL     1      27.070  39.554  49.704  1.00  0.00     0.029 A 
BRANCH  27  31
HETATM   31  O   UNL     1      30.035  36.806  50.568  1.00  0.00    -0.361 OA
HETATM   32  H   UNL     1      30.084  36.182  49.825  1.00  0.00     0.217 HD
ENDBRANCH  27  31
ENDBRANCH  22  25
ENDBRANCH  20  21
ENDBRANCH   2  20
BRANCH   3  33
HETATM   33  C   UNL     1      28.804  44.506  54.770  1.00  0.00    -0.008 A 
HETATM   34  C   UNL     1      29.334  45.522  55.577  1.00  0.00     0.017 A 
HETATM   35  C   UNL     1      30.507  45.303  56.305  1.00  0.00     0.043 A 
HETATM   36  C   UNL     1      31.141  44.068  56.232  1.00  0.00     0.116 A 
HETATM   37  F   UNL     1      32.260  43.859  56.936  1.00  0.00    -0.206 F 
HETATM   38  C   UNL     1      30.625  43.046  55.446  1.00  0.00     0.043 A 
HETATM   39  C   UNL     1      29.454  43.264  54.716  1.00  0.00     0.017 A 
ENDBRANCH   3  33
TORSDOF 9
ENDMDL
MODEL 4
REMARK VINA RESULT:     -10.2      1.204      1.536
REMARK  9 active torsions:
REMARK  status: ('A' for Active; 'I' for Inactive)
REMARK    1  A    between atoms: C_3  and  N_4 
REMARK       I    between atoms: N_4  and  C_5 
REMARK    2  A    between atoms: C_5  and  C_6 
REMARK    3  A    between atoms: C_6  and  S_7 
REMARK    4  A    between atoms: S_7  and  C_8 
REMARK    5  A    between atoms: N_9  and  C_10 
REMARK    6  A    between atoms: C_10  and  C_11 
REMARK       I    between atoms: C_11  and  N_12 
REMARK    7  A    between atoms: N_12  and  C_13 
REMARK    8  A    between atoms: C_15  and  O_16 
REMARK    9  A    between atoms: C_21  and  C_22 
ROOT
HETATM    1  C   UNL     1      26.094  44.179  52.420  1.00  0.00     0.169 A 
HETATM    2  N   UNL     1      27.393  43.906  52.773  1.00  0.00    -0.315 N 
HETATM    3  C   UNL     1      27.595  44.444  54.034  1.00  0.00     0.065 A 
HETATM    4  C   UNL     1      26.363  44.974  54.375  1.00  0.00     0.150 A 
HETATM    5  N   UNL     1      25.452  44.806  53.371  1.00  0.00    -0.234 NA
ENDROOT
BRANCH   1   6
HETATM    6  S   UNL     1      25.377  43.727  50.913  1.00  0.00    -0.083 SA
BRANCH   6   7
HETATM    7  C   UNL     1      23.959  44.873  50.847  1.00  0.00     0.185 C 
BRANCH   7   8
HETATM    8  C   UNL     1      24.049  45.896  49.721  1.00  0.00     0.231 C 
HETATM    9  N   UNL     1      23.840  47.208  50.107  1.00  0.00    -0.326 N 
HETATM   10  H   UNL     1      23.345  47.315  50.984  1.00  0.00     0.169 HD
HETATM   11  O   UNL     1      24.324  45.530  48.579  1.00  0.00    -0.272 OA
BRANCH   9  12
HETATM   12  C   UNL     1      23.869  48.333  49.256  1.00  0.00     0.046 A 
HETATM   13  C   UNL     1      22.631  48.843  48.798  1.00  0.00    -0.035 A 
HETATM   14  C   UNL     1      21.320  48.179  49.129  1.00  0.00     0.050 C 
HETATM   15  C   UNL     1      22.613  49.974  47.966  1.00  0.00     0.009 A 
HETATM   16  C   UNL     1      23.798  50.598  47.594  1.00  0.00     0.001 A 
HETATM   17  C   UNL     1      25.014  50.114  48.067  1.00  0.00     0.009 A 
HETATM   18  C   UNL     1      25.067  48.997  48.921  1.00  0.00    -0.035 A 
HETATM   19  C   UNL     1      26.416  48.618  49.469  1.00  0.00     0.050 C 
ENDBRANCH   9  12
ENDBRANCH   7   8
ENDBRANCH   6   7
ENDBRANCH   1   6
BRANCH   2  20
HETATM   20  C   UNL     1      28.360  43.155  51.989  1.00  0.00     0.234 C 
BRANCH  20  21
HETATM   21  C   UNL     1      28.137  41.651  51.926  1.00  0.00     0.240 C 
HETATM   22  N   UNL     1      28.445  41.028  50.729  1.00  0.00    -0.326 N 
HETATM   23  H   UNL     1      28.729  41.607  49.949  1.00  0.00     0.169 HD
HETATM   24  O   UNL     1      27.759  41.074  52.946  1.00  0.00    -0.271 OA
BRANCH  22  25
HETATM   25  C   UNL     1      28.385  39.647  50.437  1.00  0.00     0.037 A 
HETATM   26  C   UNL     1      29.340  38.713  50.849  1.00  0.00     0.066 A 
HETATM   27  C   UNL     1      29.194  37.371  50.500  1.00  0.00     0.067 A 
HETATM   28  C   UNL     1      28.113  36.938  49.744  1.00  0.00     0.036 A 
HETATM   29  C   UNL     1      27.156  37.859  49.329  1.00  0.00     0.005 A 
HETATM   30  C   UNL     1      27.293  39.207  49.674  1.00  0.00     0.029 A 
BRANCH  27  31
HETATM   31  O   UNL     1      30.110  36.436  50.889  1.00  0.00    -0.361 OA
HETATM   32  H   UNL     1      30.995  36.748  50.637  1.00  0.00     0.217 HD
ENDBRANCH  27  31
ENDBRANCH  22  25
ENDBRANCH  20  21
ENDBRANCH   2  20
BRANCH   3  33
HETATM   33  C   UNL     1      28.821  44.396  54.821  1.00  0.00    -0.008 A 
HETATM   34  C   UNL     1      29.239  45.496  55.583  1.00  0.00     0.017 A 
HETATM   35  C   UNL     1      30.404  45.418  56.351  1.00  0.00     0.043 A 
HETATM   36  C   UNL     1      31.142  44.241  56.365  1.00  0.00     0.116 A 
HETATM   37  F   UNL     1      32.253  44.167  57.108  1.00  0.00    -0.206 F 
HETATM   38  C   UNL     1      30.738  43.137  55.625  1.00  0.00     0.043 A 
HETATM   39  C   UNL     1      29.575  43.214  54.855  1.00  0.00     0.017 A 
ENDBRANCH   3  33
TORSDOF 9
ENDMDL
MODEL 5
REMARK VINA RESULT:      -9.8      2.278      3.513
REMARK  9 active torsions:
REMARK  status: ('A' for Active; 'I' for Inactive)
REMARK    1  A    between atoms: C_3  and  N_4 
REMARK       I    between atoms: N_4  and  C_5 
REMARK    2  A    between atoms: C_5  and  C_6 
REMARK    3  A    between atoms: C_6  and  S_7 
REMARK    4  A    between atoms: S_7  and  C_8 
REMARK    5  A    between atoms: N_9  and  C_10 
REMARK    6  A    between atoms: C_10  and  C_11 
REMARK       I    between atoms: C_11  and  N_12 
REMARK    7  A    between atoms: N_12  and  C_13 
REMARK    8  A    between atoms: C_15  and  O_16 
REMARK    9  A    between atoms: C_21  and  C_22 
ROOT
HETATM    1  C   UNL     1      24.321  44.827  50.686  1.00  0.00     0.169 A 
HETATM    2  N   UNL     1      25.221  43.955  51.249  1.00  0.00    -0.315 N 
HETATM    3  C   UNL     1      26.209  44.720  51.849  1.00  0.00     0.065 A 
HETATM    4  C   UNL     1      25.799  46.025  51.638  1.00  0.00     0.150 A 
HETATM    5  N   UNL     1      24.639  46.074  50.918  1.00  0.00    -0.234 NA
ENDROOT
BRANCH   1   6
HETATM    6  S   UNL     1      22.918  44.343  49.799  1.00  0.00    -0.083 SA
BRANCH   6   7
HETATM    7  C   UNL     1      23.286  45.047  48.157  1.00  0.00     0.185 C 
BRANCH   7   8
HETATM    8  C   UNL     1      22.581  46.370  47.883  1.00  0.00     0.231 C 
HETATM    9  N   UNL     1      22.564  47.253  48.947  1.00  0.00    -0.326 N 
HETATM   10  H   UNL     1      22.718  46.826  49.852  1.00  0.00     0.169 HD
HETATM   11  O   UNL     1      22.109  46.595  46.770  1.00  0.00    -0.272 OA
BRANCH   9  12
HETATM   12  C   UNL     1      21.976  48.536  48.946  1.00  0.00     0.046 A 
HETATM   13  C   UNL     1      22.817  49.645  48.691  1.00  0.00    -0.035 A 
HETATM   14  C   UNL     1      24.303  49.496  48.502  1.00  0.00     0.050 C 
HETATM   15  C   UNL     1      22.268  50.938  48.660  1.00  0.00     0.009 A 
HETATM   16  C   UNL     1      20.908  51.134  48.872  1.00  0.00     0.001 A 
HETATM   17  C   UNL     1      20.076  50.041  49.095  1.00  0.00     0.009 A 
HETATM   18  C   UNL     1      20.589  48.731  49.109  1.00  0.00    -0.035 A 
HETATM   19  C   UNL     1      19.595  47.609  49.245  1.00  0.00     0.050 C 
ENDBRANCH   9  12
ENDBRANCH   7   8
ENDBRANCH   6   7
ENDBRANCH   1   6
BRANCH   2  20
HETATM   20  C   UNL     1      25.130  42.505  51.252  1.00  0.00     0.234 C 
BRANCH  20  21
HETATM   21  C   UNL     1      26.039  41.781  50.270  1.00  0.00     0.240 C 
HETATM   22  N   UNL     1      26.537  40.554  50.673  1.00  0.00    -0.326 N 
HETATM   23  H   UNL     1      26.333  40.243  51.614  1.00  0.00     0.169 HD
HETATM   24  O   UNL     1      26.228  42.292  49.165  1.00  0.00    -0.271 OA
BRANCH  22  25
HETATM   25  C   UNL     1      27.346  39.666  49.928  1.00  0.00     0.037 A 
HETATM   26  C   UNL     1      28.692  39.410  50.202  1.00  0.00     0.066 A 
HETATM   27  C   UNL     1      29.407  38.522  49.399  1.00  0.00     0.067 A 
HETATM   28  C   UNL     1      28.806  37.882  48.323  1.00  0.00     0.036 A 
HETATM   29  C   UNL     1      27.466  38.130  48.042  1.00  0.00     0.005 A 
HETATM   30  C   UNL     1      26.740  39.018  48.841  1.00  0.00     0.029 A 
BRANCH  27  31
HETATM   31  O   UNL     1      30.722  38.251  49.643  1.00  0.00    -0.361 OA
HETATM   32  H   UNL     1      31.265  38.878  49.138  1.00  0.00     0.217 HD
ENDBRANCH  27  31
ENDBRANCH  22  25
ENDBRANCH  20  21
ENDBRANCH   2  20
BRANCH   3  33
HETATM   33  C   UNL     1      27.372  44.231  52.579  1.00  0.00    -0.008 A 
HETATM   34  C   UNL     1      28.451  43.635  51.912  1.00  0.00     0.017 A 
HETATM   35  C   UNL     1      29.568  43.198  52.629  1.00  0.00     0.043 A 
HETATM   36  C   UNL     1      29.610  43.367  54.007  1.00  0.00     0.116 A 
HETATM   37  F   UNL     1      30.684  42.955  54.691  1.00  0.00    -0.206 F 
HETATM   38  C   UNL     1      28.555  43.965  54.685  1.00  0.00     0.043 A 
HETATM   39  C   UNL     1      27.437  44.400  53.970  1.00  0.00     0.017 A 
ENDBRANCH   3  33
TORSDOF 9
ENDMDL
MODEL 6
REMARK VINA RESULT:      -9.7      3.745      9.079
REMARK  9 active torsions:
REMARK  status: ('A' for Active; 'I' for Inactive)
REMARK    1  A    between atoms: C_3  and  N_4 
REMARK       I    between atoms: N_4  and  C_5 
REMARK    2  A    between atoms: C_5  and  C_6 
REMARK    3  A    between atoms: C_6  and  S_7 
REMARK    4  A    between atoms: S_7  and  C_8 
REMARK    5  A    between atoms: N_9  and  C_10 
REMARK    6  A    between atoms: C_10  and  C_11 
REMARK       I    between atoms: C_11  and  N_12 
REMARK    7  A    between atoms: N_12  and  C_13 
REMARK    8  A    between atoms: C_15  and  O_16 
REMARK    9  A    between atoms: C_21  and  C_22 
ROOT
HETATM    1  C   UNL     1      26.036  45.010  51.636  1.00  0.00     0.169 A 
HETATM    2  N   UNL     1      25.508  45.565  50.497  1.00  0.00    -0.315 N 
HETATM    3  C   UNL     1      25.350  46.920  50.739  1.00  0.00     0.065 A 
HETATM    4  C   UNL     1      25.846  47.094  52.019  1.00  0.00     0.150 A 
HETATM    5  N   UNL     1      26.261  45.910  52.559  1.00  0.00    -0.234 NA
ENDROOT
BRANCH   1   6
HETATM    6  S   UNL     1      26.392  43.329  51.829  1.00  0.00    -0.083 SA
BRANCH   6   7
HETATM    7  C   UNL     1      28.126  43.403  52.390  1.00  0.00     0.185 C 
BRANCH   7   8
HETATM    8  C   UNL     1      28.277  43.609  53.893  1.00  0.00     0.231 C 
HETATM    9  N   UNL     1      29.217  44.555  54.260  1.00  0.00    -0.326 N 
HETATM   10  H   UNL     1      29.907  44.761  53.548  1.00  0.00     0.169 HD
HETATM   11  O   UNL     1      27.566  42.978  54.674  1.00  0.00    -0.272 OA
BRANCH   9  12
HETATM   12  C   UNL     1      29.542  44.925  55.582  1.00  0.00     0.046 A 
HETATM   13  C   UNL     1      28.756  45.929  56.196  1.00  0.00    -0.035 A 
HETATM   14  C   UNL     1      27.655  46.647  55.459  1.00  0.00     0.050 C 
HETATM   15  C   UNL     1      29.033  46.313  57.518  1.00  0.00     0.009 A 
HETATM   16  C   UNL     1      30.066  45.714  58.228  1.00  0.00     0.001 A 
HETATM   17  C   UNL     1      30.821  44.707  57.634  1.00  0.00     0.009 A 
HETATM   18  C   UNL     1      30.557  44.281  56.320  1.00  0.00    -0.035 A 
HETATM   19  C   UNL     1      31.352  43.112  55.806  1.00  0.00     0.050 C 
ENDBRANCH   9  12
ENDBRANCH   7   8
ENDBRANCH   6   7
ENDBRANCH   1   6
BRANCH   2  20
HETATM   20  C   UNL     1      25.214  44.869  49.256  1.00  0.00     0.234 C 
BRANCH  20  21
HETATM   21  C   UNL     1      23.768  44.430  49.069  1.00  0.00     0.240 C 
HETATM   22  N   UNL     1      23.048  45.072  48.076  1.00  0.00    -0.326 N 
HETATM   23  H   UNL     1      23.491  45.837  47.584  1.00  0.00     0.169 HD
HETATM   24  O   UNL     1      23.346  43.501  49.760  1.00  0.00    -0.271 OA
BRANCH  22  25
HETATM   25  C   UNL     1      21.721  44.808  47.668  1.00  0.00     0.037 A 
HETATM   26  C   UNL     1      20.586  45.223  48.369  1.00  0.00     0.066 A 
HETATM   27  C   UNL     1      19.317  44.903  47.887  1.00  0.00     0.067 A 
HETATM   28  C   UNL     1      19.155  44.174  46.716  1.00  0.00     0.036 A 
HETATM   29  C   UNL     1      20.279  43.757  46.010  1.00  0.00     0.005 A 
HETATM   30  C   UNL     1      21.556  44.073  46.485  1.00  0.00     0.029 A 
BRANCH  27  31
HETATM   31  O   UNL     1      18.190  45.295  48.550  1.00  0.00    -0.361 OA
HETATM   32  H   UNL     1      17.419  45.092  47.994  1.00  0.00     0.217 HD
ENDBRANCH  27  31
ENDBRANCH  22  25
ENDBRANCH  20  21
ENDBRANCH   2  20
BRANCH   3  33
HETATM   33  C   UNL     1      24.828  47.920  49.815  1.00  0.00    -0.008 A 
HETATM   34  C   UNL     1      23.450  48.079  49.618  1.00  0.00     0.017 A 
HETATM   35  C   UNL     1      22.971  49.062  48.748  1.00  0.00     0.043 A 
HETATM   36  C   UNL     1      23.869  49.889  48.084  1.00  0.00     0.116 A 
HETATM   37  F   UNL     1      23.408  50.835  47.257  1.00  0.00    -0.206 F 
HETATM   38  C   UNL     1      25.239  49.754  48.274  1.00  0.00     0.043 A 
HETATM   39  C   UNL     1      25.718  48.770  49.142  1.00  0.00     0.017 A 
ENDBRANCH   3  33
TORSDOF 9
ENDMDL
MODEL 7
REMARK VINA RESULT:      -9.7      4.308     10.394
REMARK  9 active torsions:
REMARK  status: ('A' for Active; 'I' for Inactive)
REMARK    1  A    between atoms: C_3  and  N_4 
REMARK       I    between atoms: N_4  and  C_5 
REMARK    2  A    between atoms: C_5  and  C_6 
REMARK    3  A    between atoms: C_6  and  S_7 
REMARK    4  A    between atoms: S_7  and  C_8 
REMARK    5  A    between atoms: N_9  and  C_10 
REMARK    6  A    between atoms: C_10  and  C_11 
REMARK       I    between atoms: C_11  and  N_12 
REMARK    7  A    between atoms: N_12  and  C_13 
REMARK    8  A    between atoms: C_15  and  O_16 
REMARK    9  A    between atoms: C_21  and  C_22 
ROOT
HETATM    1  C   UNL     1      24.836  43.695  50.726  1.00  0.00     0.169 A 
HETATM    2  N   UNL     1      24.330  44.544  49.772  1.00  0.00    -0.315 N 
HETATM    3  C   UNL     1      23.085  44.054  49.410  1.00  0.00     0.065 A 
HETATM    4  C   UNL     1      22.910  42.947  50.222  1.00  0.00     0.150 A 
HETATM    5  N   UNL     1      23.997  42.737  51.022  1.00  0.00    -0.234 NA
ENDROOT
BRANCH   1   6
HETATM    6  S   UNL     1      26.386  43.878  51.471  1.00  0.00    -0.083 SA
BRANCH   6   7
HETATM    7  C   UNL     1      25.926  44.716  53.025  1.00  0.00     0.185 C 
BRANCH   7   8
HETATM    8  C   UNL     1      26.818  44.353  54.206  1.00  0.00     0.231 C 
HETATM    9  N   UNL     1      28.121  44.807  54.113  1.00  0.00    -0.326 N 
HETATM   10  H   UNL     1      28.423  45.030  53.173  1.00  0.00     0.169 HD
HETATM   11  O   UNL     1      26.351  43.732  55.159  1.00  0.00    -0.272 OA
BRANCH   9  12
HETATM   12  C   UNL     1      29.136  44.601  55.072  1.00  0.00     0.046 A 
HETATM   13  C   UNL     1      30.087  43.585  54.815  1.00  0.00    -0.035 A 
HETATM   14  C   UNL     1      29.995  42.689  53.608  1.00  0.00     0.050 C 
HETATM   15  C   UNL     1      31.126  43.361  55.733  1.00  0.00     0.009 A 
HETATM   16  C   UNL     1      31.231  44.131  56.885  1.00  0.00     0.001 A 
HETATM   17  C   UNL     1      30.313  45.149  57.124  1.00  0.00     0.009 A 
HETATM   18  C   UNL     1      29.273  45.416  56.215  1.00  0.00    -0.035 A 
HETATM   19  C   UNL     1      28.400  46.607  56.504  1.00  0.00     0.050 C 
ENDBRANCH   9  12
ENDBRANCH   7   8
ENDBRANCH   6   7
ENDBRANCH   1   6
BRANCH   2  20
HETATM   20  C   UNL     1      24.961  45.753  49.270  1.00  0.00     0.234 C 
BRANCH  20  21
HETATM   21  C   UNL     1      24.275  47.060  49.638  1.00  0.00     0.240 C 
HETATM   22  N   UNL     1      23.474  47.635  48.667  1.00  0.00    -0.326 N 
HETATM   23  H   UNL     1      23.446  47.201  47.753  1.00  0.00     0.169 HD
HETATM   24  O   UNL     1      24.420  47.494  50.782  1.00  0.00    -0.271 OA
BRANCH  22  25
HETATM   25  C   UNL     1      22.689  48.805  48.780  1.00  0.00     0.037 A 
HETATM   26  C   UNL     1      21.350  48.817  49.180  1.00  0.00     0.066 A 
HETATM   27  C   UNL     1      20.658  50.026  49.250  1.00  0.00     0.067 A 
HETATM   28  C   UNL     1      21.274  51.228  48.927  1.00  0.00     0.036 A 
HETATM   29  C   UNL     1      22.607  51.226  48.528  1.00  0.00     0.005 A 
HETATM   30  C   UNL     1      23.310  50.020  48.455  1.00  0.00     0.029 A 
BRANCH  27  31
HETATM   31  O   UNL     1      19.350  50.070  49.639  1.00  0.00    -0.361 OA
HETATM   32  H   UNL     1      19.303  49.869  50.588  1.00  0.00     0.217 HD
ENDBRANCH  27  31
ENDBRANCH  22  25
ENDBRANCH  20  21
ENDBRANCH   2  20
BRANCH   3  33
HETATM   33  C   UNL     1      22.167  44.629  48.434  1.00  0.00    -0.008 A 
HETATM   34  C   UNL     1      22.491  44.675  47.071  1.00  0.00     0.017 A 
HETATM   35  C   UNL     1      21.586  45.206  46.149  1.00  0.00     0.043 A 
HETATM   36  C   UNL     1      20.355  45.679  46.588  1.00  0.00     0.116 A 
HETATM   37  F   UNL     1      19.486  46.180  45.702  1.00  0.00    -0.206 F 
HETATM   38  C   UNL     1      20.012  45.632  47.933  1.00  0.00     0.043 A 
HETATM   39  C   UNL     1      20.917  45.104  48.856  1.00  0.00     0.017 A 
ENDBRANCH   3  33
TORSDOF 9
ENDMDL
MODEL 8
REMARK VINA RESULT:      -9.6      2.729      4.505
REMARK  9 active torsions:
REMARK  status: ('A' for Active; 'I' for Inactive)
REMARK    1  A    between atoms: C_3  and  N_4 
REMARK       I    between atoms: N_4  and  C_5 
REMARK    2  A    between atoms: C_5  and  C_6 
REMARK    3  A    between atoms: C_6  and  S_7 
REMARK    4  A    between atoms: S_7  and  C_8 
REMARK    5  A    between atoms: N_9  and  C_10 
REMARK    6  A    between atoms: C_10  and  C_11 
REMARK       I    between atoms: C_11  and  N_12 
REMARK    7  A    between atoms: N_12  and  C_13 
REMARK    8  A    between atoms: C_15  and  O_16 
REMARK    9  A    between atoms: C_21  and  C_22 
ROOT
HETATM    1  C   UNL     1      23.777  46.229  49.370  1.00  0.00     0.169 A 
HETATM    2  N   UNL     1      24.355  45.598  50.445  1.00  0.00    -0.315 N 
HETATM    3  C   UNL     1      25.051  46.561  51.157  1.00  0.00     0.065 A 
HETATM    4  C   UNL     1      24.801  47.735  50.470  1.00  0.00     0.150 A 
HETATM    5  N   UNL     1      24.019  47.515  49.372  1.00  0.00    -0.234 NA
ENDROOT
BRANCH   1   6
HETATM    6  S   UNL     1      22.821  45.435  48.169  1.00  0.00    -0.083 SA
BRANCH   6   7
HETATM    7  C   UNL     1      21.148  45.635  48.870  1.00  0.00     0.185 C 
BRANCH   7   8
HETATM    8  C   UNL     1      20.499  46.973  48.538  1.00  0.00     0.231 C 
HETATM    9  N   UNL     1      20.806  48.002  49.409  1.00  0.00    -0.326 N 
HETATM   10  H   UNL     1      21.141  47.701  50.316  1.00  0.00     0.169 HD
HETATM   11  O   UNL     1      19.791  47.080  47.537  1.00  0.00    -0.272 OA
BRANCH   9  12
HETATM   12  C   UNL     1      20.333  49.329  49.319  1.00  0.00     0.046 A 
HETATM   13  C   UNL     1      19.241  49.694  50.141  1.00  0.00    -0.035 A 
HETATM   14  C   UNL     1      18.541  48.701  51.031  1.00  0.00     0.050 C 
HETATM   15  C   UNL     1      18.751  51.010  50.098  1.00  0.00     0.009 A 
HETATM   16  C   UNL     1      19.332  51.954  49.260  1.00  0.00     0.001 A 
HETATM   17  C   UNL     1      20.424  51.603  48.472  1.00  0.00     0.009 A 
HETATM   18  C   UNL     1      20.954  50.300  48.508  1.00  0.00    -0.035 A 
HETATM   19  C   UNL     1      22.203  50.048  47.706  1.00  0.00     0.050 C 
ENDBRANCH   9  12
ENDBRANCH   7   8
ENDBRANCH   6   7
ENDBRANCH   1   6
BRANCH   2  20
HETATM   20  C   UNL     1      24.222  44.193  50.792  1.00  0.00     0.234 C 
BRANCH  20  21
HETATM   21  C   UNL     1      25.310  43.273  50.258  1.00  0.00     0.240 C 
HETATM   22  N   UNL     1      25.419  42.030  50.857  1.00  0.00    -0.326 N 
HETATM   23  H   UNL     1      24.829  41.830  51.654  1.00  0.00     0.169 HD
HETATM   24  O   UNL     1      25.979  43.656  49.298  1.00  0.00    -0.271 OA
BRANCH  22  25
HETATM   25  C   UNL     1      26.300  40.980  50.507  1.00  0.00     0.037 A 
HETATM   26  C   UNL     1      27.497  40.703  51.173  1.00  0.00     0.066 A 
HETATM   27  C   UNL     1      28.302  39.649  50.743  1.00  0.00     0.067 A 
HETATM   28  C   UNL     1      27.938  38.862  49.658  1.00  0.00     0.036 A 
HETATM   29  C   UNL     1      26.748  39.130  48.988  1.00  0.00     0.005 A 
HETATM   30  C   UNL     1      25.933  40.184  49.412  1.00  0.00     0.029 A 
BRANCH  27  31
HETATM   31  O   UNL     1      29.476  39.354  51.373  1.00  0.00    -0.361 OA
HETATM   32  H   UNL     1      30.086  38.965  50.724  1.00  0.00     0.217 HD
ENDBRANCH  27  31
ENDBRANCH  22  25
ENDBRANCH  20  21
ENDBRANCH   2  20
BRANCH   3  33
HETATM   33  C   UNL     1      25.818  46.361  52.382  1.00  0.00    -0.008 A 
HETATM   34  C   UNL     1      25.653  47.205  53.488  1.00  0.00     0.017 A 
HETATM   35  C   UNL     1      26.379  46.978  54.661  1.00  0.00     0.043 A 
HETATM   36  C   UNL     1      27.257  45.904  54.729  1.00  0.00     0.116 A 
HETATM   37  F   UNL     1      27.945  45.685  55.856  1.00  0.00    -0.206 F 
HETATM   38  C   UNL     1      27.426  45.050  53.647  1.00  0.00     0.043 A 
HETATM   39  C   UNL     1      26.703  45.277  52.473  1.00  0.00     0.017 A 
ENDBRANCH   3  33
TORSDOF 9
ENDMDL
MODEL 9
REMARK VINA RESULT:      -9.6      3.431      6.477
REMARK  9 active torsions:
REMARK  status: ('A' for Active; 'I' for Inactive)
REMARK    1  A    between atoms: C_3  and  N_4 
REMARK       I    between atoms: N_4  and  C_5 
REMARK    2  A    between atoms: C_5  and  C_6 
REMARK    3  A    between atoms: C_6  and  S_7 
REMARK    4  A    between atoms: S_7  and  C_8 
REMARK    5  A    between atoms: N_9  and  C_10 
REMARK    6  A    between atoms: C_10  and  C_11 
REMARK       I    between atoms: C_11  and  N_12 
REMARK    7  A    between atoms: N_12  and  C_13 
REMARK    8  A    between atoms: C_15  and  O_16 
REMARK    9  A    between atoms: C_21  and  C_22 
ROOT
HETATM    1  C   UNL     1      24.579  43.567  50.412  1.00  0.00     0.169 A 
HETATM    2  N   UNL     1      25.311  44.052  51.468  1.00  0.00    -0.315 N 
HETATM    3  C   UNL     1      26.474  43.302  51.537  1.00  0.00     0.065 A 
HETATM    4  C   UNL     1      26.376  42.430  50.467  1.00  0.00     0.150 A 
HETATM    5  N   UNL     1      25.204  42.603  49.787  1.00  0.00    -0.234 NA
ENDROOT
BRANCH   1   6
HETATM    6  S   UNL     1      23.029  44.170  49.939  1.00  0.00    -0.083 SA
BRANCH   6   7
HETATM    7  C   UNL     1      23.482  45.206  48.507  1.00  0.00     0.185 C 
BRANCH   7   8
HETATM    8  C   UNL     1      22.325  46.028  47.953  1.00  0.00     0.231 C 
HETATM    9  N   UNL     1      21.446  46.514  48.904  1.00  0.00    -0.326 N 
HETATM   10  H   UNL     1      21.470  46.022  49.789  1.00  0.00     0.169 HD
HETATM   11  O   UNL     1      22.248  46.242  46.744  1.00  0.00    -0.272 OA
BRANCH   9  12
HETATM   12  C   UNL     1      20.301  47.297  48.646  1.00  0.00     0.046 A 
HETATM   13  C   UNL     1      19.105  46.621  48.310  1.00  0.00    -0.035 A 
HETATM   14  C   UNL     1      19.048  45.125  48.150  1.00  0.00     0.050 C 
HETATM   15  C   UNL     1      17.936  47.362  48.065  1.00  0.00     0.009 A 
HETATM   16  C   UNL     1      17.945  48.748  48.156  1.00  0.00     0.001 A 
HETATM   17  C   UNL     1      19.115  49.412  48.514  1.00  0.00     0.009 A 
HETATM   18  C   UNL     1      20.297  48.700  48.788  1.00  0.00    -0.035 A 
HETATM   19  C   UNL     1      21.478  49.496  49.276  1.00  0.00     0.050 C 
ENDBRANCH   9  12
ENDBRANCH   7   8
ENDBRANCH   6   7
ENDBRANCH   1   6
BRANCH   2  20
HETATM   20  C   UNL     1      24.952  45.171  52.323  1.00  0.00     0.234 C 
BRANCH  20  21
HETATM   21  C   UNL     1      25.343  46.550  51.809  1.00  0.00     0.240 C 
HETATM   22  N   UNL     1      25.598  46.656  50.453  1.00  0.00    -0.326 N 
HETATM   23  H   UNL     1      25.583  45.811  49.897  1.00  0.00     0.169 HD
HETATM   24  O   UNL     1      25.350  47.489  52.606  1.00  0.00    -0.271 OA
BRANCH  22  25
HETATM   25  C   UNL     1      25.916  47.826  49.726  1.00  0.00     0.037 A 
HETATM   26  C   UNL     1      24.983  48.595  49.027  1.00  0.00     0.066 A 
HETATM   27  C   UNL     1      25.400  49.730  48.331  1.00  0.00     0.067 A 
HETATM   28  C   UNL     1      26.735  50.114  48.316  1.00  0.00     0.036 A 
HETATM   29  C   UNL     1      27.672  49.355  49.011  1.00  0.00     0.005 A 
HETATM   30  C   UNL     1      27.264  48.216  49.712  1.00  0.00     0.029 A 
BRANCH  27  31
HETATM   31  O   UNL     1      24.512  50.501  47.639  1.00  0.00    -0.361 OA
HETATM   32  H   UNL     1      24.740  50.464  46.695  1.00  0.00     0.217 HD
ENDBRANCH  27  31
ENDBRANCH  22  25
ENDBRANCH  20  21
ENDBRANCH   2  20
BRANCH   3  33
HETATM   33  C   UNL     1      27.561  43.458  52.497  1.00  0.00    -0.008 A 
HETATM   34  C   UNL     1      27.353  44.080  53.736  1.00  0.00     0.017 A 
HETATM   35  C   UNL     1      28.403  44.194  54.651  1.00  0.00     0.043 A 
HETATM   36  C   UNL     1      29.653  43.679  54.331  1.00  0.00     0.116 A 
HETATM   37  F   UNL     1      30.655  43.783  55.213  1.00  0.00    -0.206 F 
HETATM   38  C   UNL     1      29.875  43.049  53.113  1.00  0.00     0.043 A 
HETATM   39  C   UNL     1      28.828  42.937  52.196  1.00  0.00     0.017 A 
ENDBRANCH   3  33
TORSDOF 9
ENDMDL
MODEL 10
REMARK VINA RESULT:      -9.5      2.257      7.443
REMARK  9 active torsions:
REMARK  status: ('A' for Active; 'I' for Inactive)
REMARK    1  A    between atoms: C_3  and  N_4 
REMARK       I    between atoms: N_4  and  C_5 
REMARK    2  A    between atoms: C_5  and  C_6 
REMARK    3  A    between atoms: C_6  and  S_7 
REMARK    4  A    between atoms: S_7  and  C_8 
REMARK    5  A    between atoms: N_9  and  C_10 
REMARK    6  A    between atoms: C_10  and  C_11 
REMARK       I    between atoms: C_11  and  N_12 
REMARK    7  A    between atoms: N_12  and  C_13 
REMARK    8  A    between atoms: C_15  and  O_16 
REMARK    9  A    between atoms: C_21  and  C_22 
ROOT
HETATM    1  C   UNL     1      26.464  43.252  51.712  1.00  0.00     0.169 A 
HETATM    2  N   UNL     1      26.671  44.109  52.765  1.00  0.00    -0.315 N 
HETATM    3  C   UNL     1      27.950  43.867  53.241  1.00  0.00     0.065 A 
HETATM    4  C   UNL     1      28.446  42.891  52.394  1.00  0.00     0.150 A 
HETATM    5  N   UNL     1      27.519  42.521  51.462  1.00  0.00    -0.234 NA
ENDROOT
BRANCH   1   6
HETATM    6  S   UNL     1      24.997  43.162  50.802  1.00  0.00    -0.083 SA
BRANCH   6   7
HETATM    7  C   UNL     1      25.649  43.080  49.100  1.00  0.00     0.185 C 
BRANCH   7   8
HETATM    8  C   UNL     1      25.905  41.660  48.608  1.00  0.00     0.231 C 
HETATM    9  N   UNL     1      27.215  41.394  48.253  1.00  0.00    -0.326 N 
HETATM   10  H   UNL     1      27.772  42.215  48.048  1.00  0.00     0.169 HD
HETATM   11  O   UNL     1      24.985  40.844  48.581  1.00  0.00    -0.272 OA
BRANCH   9  12
HETATM   12  C   UNL     1      27.705  40.162  47.769  1.00  0.00     0.046 A 
HETATM   13  C   UNL     1      28.239  39.251  48.712  1.00  0.00    -0.035 A 
HETATM   14  C   UNL     1      28.363  39.592  50.173  1.00  0.00     0.050 C 
HETATM   15  C   UNL     1      28.719  38.006  48.275  1.00  0.00     0.009 A 
HETATM   16  C   UNL     1      28.669  37.659  46.930  1.00  0.00     0.001 A 
HETATM   17  C   UNL     1      28.118  38.544  46.007  1.00  0.00     0.009 A 
HETATM   18  C   UNL     1      27.607  39.790  46.413  1.00  0.00    -0.035 A 
HETATM   19  C   UNL     1      26.931  40.627  45.361  1.00  0.00     0.050 C 
ENDBRANCH   9  12
ENDBRANCH   7   8
ENDBRANCH   6   7
ENDBRANCH   1   6
BRANCH   2  20
HETATM   20  C   UNL     1      25.742  45.112  53.256  1.00  0.00     0.234 C 
BRANCH  20  21
HETATM   21  C   UNL     1      25.766  46.450  52.532  1.00  0.00     0.240 C 
HETATM   22  N   UNL     1      25.865  46.406  51.152  1.00  0.00    -0.326 N 
HETATM   23  H   UNL     1      25.988  45.503  50.710  1.00  0.00     0.169 HD
HETATM   24  O   UNL     1      25.637  47.477  53.198  1.00  0.00    -0.271 OA
BRANCH  22  25
HETATM   25  C   UNL     1      25.847  47.496  50.252  1.00  0.00     0.037 A 
HETATM   26  C   UNL     1      26.985  48.188  49.832  1.00  0.00     0.066 A 
HETATM   27  C   UNL     1      26.860  49.260  48.948  1.00  0.00     0.067 A 
HETATM   28  C   UNL     1      25.618  49.658  48.472  1.00  0.00     0.036 A 
HETATM   29  C   UNL     1      24.477  48.974  48.884  1.00  0.00     0.005 A 
HETATM   30  C   UNL     1      24.592  47.899  49.770  1.00  0.00     0.029 A 
BRANCH  27  31
HETATM   31  O   UNL     1      27.954  49.954  48.519  1.00  0.00    -0.361 OA
HETATM   32  H   UNL     1      28.741  49.397  48.642  1.00  0.00     0.217 HD
ENDBRANCH  27  31
ENDBRANCH  22  25
ENDBRANCH  20  21
ENDBRANCH   2  20
BRANCH   3  33
HETATM   33  C   UNL     1      28.614  44.543  54.350  1.00  0.00    -0.008 A 
HETATM   34  C   UNL     1      28.110  45.739  54.878  1.00  0.00     0.017 A 
HETATM   35  C   UNL     1      28.748  46.355  55.958  1.00  0.00     0.043 A 
HETATM   36  C   UNL     1      29.880  45.771  56.514  1.00  0.00     0.116 A 
HETATM   37  F   UNL     1      30.484  46.360  57.553  1.00  0.00    -0.206 F 
HETATM   38  C   UNL     1      30.388  44.580  56.010  1.00  0.00     0.043 A 
HETATM   39  C   UNL     1      29.753  43.965  54.929  1.00  0.00     0.017 A 
ENDBRANCH   3  33
TORSDOF 9
ENDMDL
