MODEL 1
REMARK VINA RESULT:      -9.4      0.000      0.000
REMARK  3 active torsions:
REMARK  status: ('A' for Active; 'I' for Inactive)
REMARK    1  A    between atoms: C_4  and  N_5 
REMARK       I    between atoms: N_5  and  C_6 
REMARK    2  A    between atoms: C_6  and  C_7 
REMARK    3  A    between atoms: C_7  and  C_8 
ROOT
HETATM    1  C   UNL     1      26.393  46.391  54.106  1.00  0.00     0.286 C 
HETATM    2  N   UNL     1      27.423  45.457  53.453  1.00  0.00    -0.056 N 
HETATM    3  H   UNL     1      26.938  44.787  52.832  1.00  0.00     0.278 HD
HETATM    4  H   UNL     1      28.023  46.005  52.820  1.00  0.00     0.278 HD
HETATM    5  C   UNL     1      28.241  44.763  54.501  1.00  0.00     0.209 C 
HETATM    6  C   UNL     1      29.034  45.847  55.264  1.00  0.00     0.115 C 
HETATM    7  N   UNL     1      28.148  46.873  55.811  1.00  0.00    -0.353 N 
HETATM    8  C   UNL     1      27.043  47.346  55.135  1.00  0.00     0.249 C 
HETATM    9  O   UNL     1      26.571  48.441  55.418  1.00  0.00    -0.271 OA
HETATM   10  C   UNL     1      29.163  43.731  53.867  1.00  0.00     0.035 C 
HETATM   11  C   UNL     1      30.014  43.074  54.955  1.00  0.00     0.002 C 
HETATM   12  C   UNL     1      30.804  44.108  55.760  1.00  0.00     0.002 C 
HETATM   13  C   UNL     1      29.912  45.207  56.341  1.00  0.00     0.027 C 
HETATM   14  H   UNL     1      28.547  47.565  56.444  1.00  0.00     0.163 HD
ENDROOT
BRANCH   1  15
HETATM   15  C   UNL     1      25.636  47.161  53.030  1.00  0.00     0.146 C 
BRANCH  15  16
HETATM   16  C   UNL     1      25.247  46.184  51.961  1.00  0.00     0.224 C 
HETATM   17  N   UNL     1      25.110  46.492  50.650  1.00  0.00    -0.327 N 
HETATM   18  H   UNL     1      24.662  45.731  50.143  1.00  0.00     0.169 HD
HETATM   19  O   UNL     1      24.791  45.095  52.343  1.00  0.00    -0.273 OA
BRANCH  17  20
HETATM   20  C   UNL     1      25.378  47.629  49.869  1.00  0.00     0.035 A 
HETATM   21  C   UNL     1      24.424  48.461  49.284  1.00  0.00     0.036 A 
HETATM   22  C   UNL     1      24.813  49.570  48.511  1.00  0.00    -0.060 A 
HETATM   23  C   UNL     1      23.785  50.508  47.943  1.00  0.00     0.048 C 
HETATM   24  C   UNL     1      26.172  49.856  48.348  1.00  0.00     0.007 A 
HETATM   25  C   UNL     1      27.131  49.051  48.953  1.00  0.00     0.003 A 
HETATM   26  C   UNL     1      26.734  47.954  49.717  1.00  0.00     0.029 A 
ENDBRANCH  17  20
ENDBRANCH  15  16
ENDBRANCH   1  15
TORSDOF 3
ENDMDL
MODEL 2
REMARK VINA RESULT:      -8.7      1.174      1.921
REMARK  3 active torsions:
REMARK  status: ('A' for Active; 'I' for Inactive)
REMARK    1  A    between atoms: C_4  and  N_5 
REMARK       I    between atoms: N_5  and  C_6 
REMARK    2  A    between atoms: C_6  and  C_7 
REMARK    3  A    between atoms: C_7  and  C_8 
ROOT
HETATM    1  C   UNL     1      26.950  44.750  52.919  1.00  0.00     0.286 C 
HETATM    2  N   UNL     1      28.335  44.085  52.950  1.00  0.00    -0.056 N 
HETATM    3  H   UNL     1      28.284  43.158  52.494  1.00  0.00     0.278 HD
HETATM    4  H   UNL     1      28.983  44.627  52.359  1.00  0.00     0.278 HD
HETATM    5  C   UNL     1      28.842  43.992  54.358  1.00  0.00     0.209 C 
HETATM    6  C   UNL     1      29.021  45.434  54.882  1.00  0.00     0.115 C 
HETATM    7  N   UNL     1      27.785  46.205  54.765  1.00  0.00    -0.353 N 
HETATM    8  C   UNL     1      26.933  46.093  53.686  1.00  0.00     0.249 C 
HETATM    9  O   UNL     1      26.150  46.999  53.424  1.00  0.00    -0.271 OA
HETATM   10  C   UNL     1      30.144  43.207  54.410  1.00  0.00     0.035 C 
HETATM   11  C   UNL     1      30.657  43.169  55.850  1.00  0.00     0.002 C 
HETATM   12  C   UNL     1      30.830  44.575  56.429  1.00  0.00     0.002 C 
HETATM   13  C   UNL     1      29.558  45.419  56.314  1.00  0.00     0.027 C 
HETATM   14  H   UNL     1      27.749  47.126  55.200  1.00  0.00     0.163 HD
ENDROOT
BRANCH   1  15
HETATM   15  C   UNL     1      26.491  44.925  51.476  1.00  0.00     0.146 C 
BRANCH  15  16
HETATM   16  C   UNL     1      25.000  45.079  51.489  1.00  0.00     0.224 C 
HETATM   17  N   UNL     1      24.330  46.134  50.969  1.00  0.00    -0.327 N 
HETATM   18  H   UNL     1      23.352  46.120  51.254  1.00  0.00     0.169 HD
HETATM   19  O   UNL     1      24.369  44.313  52.234  1.00  0.00    -0.273 OA
BRANCH  17  20
HETATM   20  C   UNL     1      24.693  47.254  50.202  1.00  0.00     0.035 A 
HETATM   21  C   UNL     1      25.991  47.728  50.013  1.00  0.00     0.036 A 
HETATM   22  C   UNL     1      26.233  48.870  49.229  1.00  0.00    -0.060 A 
HETATM   23  C   UNL     1      27.637  49.337  48.965  1.00  0.00     0.048 C 
HETATM   24  C   UNL     1      25.162  49.523  48.611  1.00  0.00     0.007 A 
HETATM   25  C   UNL     1      23.867  49.041  48.768  1.00  0.00     0.003 A 
HETATM   26  C   UNL     1      23.639  47.908  49.547  1.00  0.00     0.029 A 
ENDBRANCH  17  20
ENDBRANCH  15  16
ENDBRANCH   1  15
TORSDOF 3
ENDMDL
MODEL 3
REMARK VINA RESULT:      -8.3      2.108      7.881
REMARK  3 active torsions:
REMARK  status: ('A' for Active; 'I' for Inactive)
REMARK    1  A    between atoms: C_4  and  N_5 
REMARK       I    between atoms: N_5  and  C_6 
REMARK    2  A    between atoms: C_6  and  C_7 
REMARK    3  A    between atoms: C_7  and  C_8 
ROOT
HETATM    1  C   UNL     1      25.396  47.326  49.937  1.00  0.00     0.286 C 
HETATM    2  N   UNL     1      23.916  47.641  50.202  1.00  0.00    -0.056 N 
HETATM    3  H   UNL     1      23.421  46.773  50.469  1.00  0.00     0.278 HD
HETATM    4  H   UNL     1      23.843  48.246  51.033  1.00  0.00     0.278 HD
HETATM    5  C   UNL     1      23.297  48.296  49.004  1.00  0.00     0.209 C 
HETATM    6  C   UNL     1      24.015  49.647  48.791  1.00  0.00     0.115 C 
HETATM    7  N   UNL     1      25.461  49.472  48.668  1.00  0.00    -0.353 N 
HETATM    8  C   UNL     1      26.171  48.562  49.423  1.00  0.00     0.249 C 
HETATM    9  O   UNL     1      27.377  48.709  49.589  1.00  0.00    -0.271 OA
HETATM   10  C   UNL     1      21.799  48.478  49.205  1.00  0.00     0.035 C 
HETATM   11  C   UNL     1      21.205  49.188  47.988  1.00  0.00     0.002 C 
HETATM   12  C   UNL     1      21.899  50.525  47.716  1.00  0.00     0.002 C 
HETATM   13  C   UNL     1      23.418  50.386  47.592  1.00  0.00     0.027 C 
HETATM   14  H   UNL     1      26.021  50.278  48.394  1.00  0.00     0.163 HD
ENDROOT
BRANCH   1  15
HETATM   15  C   UNL     1      26.037  46.750  51.195  1.00  0.00     0.146 C 
BRANCH  15  16
HETATM   16  C   UNL     1      25.544  45.343  51.353  1.00  0.00     0.224 C 
HETATM   17  N   UNL     1      26.138  44.400  52.121  1.00  0.00    -0.327 N 
HETATM   18  H   UNL     1      25.748  43.479  51.933  1.00  0.00     0.169 HD
HETATM   19  O   UNL     1      24.686  44.961  50.541  1.00  0.00    -0.273 OA
BRANCH  17  20
HETATM   20  C   UNL     1      27.196  44.403  53.045  1.00  0.00     0.035 A 
HETATM   21  C   UNL     1      27.303  45.231  54.162  1.00  0.00     0.036 A 
HETATM   22  C   UNL     1      28.419  45.150  55.015  1.00  0.00    -0.060 A 
HETATM   23  C   UNL     1      28.499  45.991  56.258  1.00  0.00     0.048 C 
HETATM   24  C   UNL     1      29.421  44.211  54.753  1.00  0.00     0.007 A 
HETATM   25  C   UNL     1      29.310  43.359  53.659  1.00  0.00     0.003 A 
HETATM   26  C   UNL     1      28.199  43.447  52.822  1.00  0.00     0.029 A 
ENDBRANCH  17  20
ENDBRANCH  15  16
ENDBRANCH   1  15
TORSDOF 3
ENDMDL
MODEL 4
REMARK VINA RESULT:      -8.3      3.859      7.333
REMARK  3 active torsions:
REMARK  status: ('A' for Active; 'I' for Inactive)
REMARK    1  A    between atoms: C_4  and  N_5 
REMARK       I    between atoms: N_5  and  C_6 
REMARK    2  A    between atoms: C_6  and  C_7 
REMARK    3  A    between atoms: C_7  and  C_8 
ROOT
HETATM    1  C   UNL     1      26.552  43.604  52.514  1.00  0.00     0.286 C 
HETATM    2  N   UNL     1      27.317  42.279  52.648  1.00  0.00    -0.056 N 
HETATM    3  H   UNL     1      28.240  42.455  53.081  1.00  0.00     0.278 HD
HETATM    4  H   UNL     1      26.828  41.672  53.322  1.00  0.00     0.278 HD
HETATM    5  C   UNL     1      27.441  41.607  51.313  1.00  0.00     0.209 C 
HETATM    6  C   UNL     1      26.014  41.258  50.835  1.00  0.00     0.115 C 
HETATM    7  N   UNL     1      25.154  42.440  50.806  1.00  0.00    -0.353 N 
HETATM    8  C   UNL     1      25.207  43.427  51.769  1.00  0.00     0.249 C 
HETATM    9  O   UNL     1      24.247  44.168  51.943  1.00  0.00    -0.271 OA
HETATM   10  C   UNL     1      28.321  40.370  51.413  1.00  0.00     0.035 C 
HETATM   11  C   UNL     1      28.391  39.683  50.048  1.00  0.00     0.002 C 
HETATM   12  C   UNL     1      26.999  39.337  49.515  1.00  0.00     0.002 C 
HETATM   13  C   UNL     1      26.064  40.548  49.481  1.00  0.00     0.027 C 
HETATM   14  H   UNL     1      24.232  42.353  50.383  1.00  0.00     0.163 HD
ENDROOT
BRANCH   1  15
HETATM   15  C   UNL     1      26.348  44.227  53.891  1.00  0.00     0.146 C 
BRANCH  15  16
HETATM   16  C   UNL     1      26.937  45.606  53.856  1.00  0.00     0.224 C 
HETATM   17  N   UNL     1      28.070  45.975  54.498  1.00  0.00    -0.327 N 
HETATM   18  H   UNL     1      28.177  46.988  54.491  1.00  0.00     0.169 HD
HETATM   19  O   UNL     1      26.210  46.509  53.415  1.00  0.00    -0.273 OA
BRANCH  17  20
HETATM   20  C   UNL     1      29.066  45.292  55.215  1.00  0.00     0.035 A 
HETATM   21  C   UNL     1      29.543  45.636  56.480  1.00  0.00     0.036 A 
HETATM   22  C   UNL     1      30.555  44.879  57.097  1.00  0.00    -0.060 A 
HETATM   23  C   UNL     1      31.017  45.205  58.490  1.00  0.00     0.048 C 
HETATM   24  C   UNL     1      31.072  43.755  56.446  1.00  0.00     0.007 A 
HETATM   25  C   UNL     1      30.582  43.385  55.198  1.00  0.00     0.003 A 
HETATM   26  C   UNL     1      29.578  44.142  54.595  1.00  0.00     0.029 A 
ENDBRANCH  17  20
ENDBRANCH  15  16
ENDBRANCH   1  15
TORSDOF 3
ENDMDL
MODEL 5
REMARK VINA RESULT:      -8.3      4.642      7.899
REMARK  3 active torsions:
REMARK  status: ('A' for Active; 'I' for Inactive)
REMARK    1  A    between atoms: C_4  and  N_5 
REMARK       I    between atoms: N_5  and  C_6 
REMARK    2  A    between atoms: C_6  and  C_7 
REMARK    3  A    between atoms: C_7  and  C_8 
ROOT
HETATM    1  C   UNL     1      27.382  41.904  53.147  1.00  0.00     0.286 C 
HETATM    2  N   UNL     1      26.390  42.148  52.000  1.00  0.00    -0.056 N 
HETATM    3  H   UNL     1      25.424  42.136  52.371  1.00  0.00     0.278 HD
HETATM    4  H   UNL     1      26.516  43.105  51.642  1.00  0.00     0.278 HD
HETATM    5  C   UNL     1      26.586  41.136  50.911  1.00  0.00     0.209 C 
HETATM    6  C   UNL     1      28.004  41.346  50.334  1.00  0.00     0.115 C 
HETATM    7  N   UNL     1      29.024  41.274  51.378  1.00  0.00    -0.353 N 
HETATM    8  C   UNL     1      28.840  41.797  52.641  1.00  0.00     0.249 C 
HETATM    9  O   UNL     1      29.810  42.074  53.339  1.00  0.00    -0.271 OA
HETATM   10  C   UNL     1      25.514  41.282  49.842  1.00  0.00     0.035 C 
HETATM   11  C   UNL     1      25.768  40.268  48.725  1.00  0.00     0.002 C 
HETATM   12  C   UNL     1      27.171  40.416  48.132  1.00  0.00     0.002 C 
HETATM   13  C   UNL     1      28.269  40.357  49.197  1.00  0.00     0.027 C 
HETATM   14  H   UNL     1      30.003  41.267  51.094  1.00  0.00     0.163 HD
ENDROOT
BRANCH   1  15
HETATM   15  C   UNL     1      27.237  42.996  54.200  1.00  0.00     0.146 C 
BRANCH  15  16
HETATM   16  C   UNL     1      27.798  44.262  53.623  1.00  0.00     0.224 C 
HETATM   17  N   UNL     1      28.661  45.084  54.263  1.00  0.00    -0.327 N 
HETATM   18  H   UNL     1      28.760  45.966  53.765  1.00  0.00     0.169 HD
HETATM   19  O   UNL     1      27.248  44.696  52.598  1.00  0.00    -0.273 OA
BRANCH  17  20
HETATM   20  C   UNL     1      29.375  45.018  55.471  1.00  0.00     0.035 A 
HETATM   21  C   UNL     1      30.419  44.137  55.756  1.00  0.00     0.036 A 
HETATM   22  C   UNL     1      31.056  44.157  57.010  1.00  0.00    -0.060 A 
HETATM   23  C   UNL     1      32.227  43.259  57.290  1.00  0.00     0.048 C 
HETATM   24  C   UNL     1      30.654  45.088  57.973  1.00  0.00     0.007 A 
HETATM   25  C   UNL     1      29.636  45.991  57.689  1.00  0.00     0.003 A 
HETATM   26  C   UNL     1      29.012  45.963  56.443  1.00  0.00     0.029 A 
ENDBRANCH  17  20
ENDBRANCH  15  16
ENDBRANCH   1  15
TORSDOF 3
ENDMDL
MODEL 6
REMARK VINA RESULT:      -8.3      1.772      2.574
REMARK  3 active torsions:
REMARK  status: ('A' for Active; 'I' for Inactive)
REMARK    1  A    between atoms: C_4  and  N_5 
REMARK       I    between atoms: N_5  and  C_6 
REMARK    2  A    between atoms: C_6  and  C_7 
REMARK    3  A    between atoms: C_7  and  C_8 
ROOT
HETATM    1  C   UNL     1      25.587  46.122  52.050  1.00  0.00     0.286 C 
HETATM    2  N   UNL     1      26.731  45.236  51.536  1.00  0.00    -0.056 N 
HETATM    3  H   UNL     1      26.417  44.719  50.696  1.00  0.00     0.278 HD
HETATM    4  H   UNL     1      27.498  45.835  51.198  1.00  0.00     0.278 HD
HETATM    5  C   UNL     1      27.207  44.313  52.617  1.00  0.00     0.209 C 
HETATM    6  C   UNL     1      27.789  45.188  53.750  1.00  0.00     0.115 C 
HETATM    7  N   UNL     1      26.816  46.172  54.220  1.00  0.00    -0.353 N 
HETATM    8  C   UNL     1      25.955  46.837  53.372  1.00  0.00     0.249 C 
HETATM    9  O   UNL     1      25.454  47.901  53.716  1.00  0.00    -0.271 OA
HETATM   10  C   UNL     1      28.238  43.334  52.074  1.00  0.00     0.035 C 
HETATM   11  C   UNL     1      28.737  42.439  53.209  1.00  0.00     0.002 C 
HETATM   12  C   UNL     1      29.303  43.258  54.372  1.00  0.00     0.002 C 
HETATM   13  C   UNL     1      28.317  44.309  54.886  1.00  0.00     0.027 C 
HETATM   14  H   UNL     1      27.045  46.714  55.052  1.00  0.00     0.163 HD
ENDROOT
BRANCH   1  15
HETATM   15  C   UNL     1      25.179  47.120  50.972  1.00  0.00     0.146 C 
BRANCH  15  16
HETATM   16  C   UNL     1      24.159  46.453  50.098  1.00  0.00     0.224 C 
HETATM   17  N   UNL     1      23.238  47.106  49.353  1.00  0.00    -0.327 N 
HETATM   18  H   UNL     1      22.538  46.461  48.993  1.00  0.00     0.169 HD
HETATM   19  O   UNL     1      24.000  45.233  50.262  1.00  0.00    -0.273 OA
BRANCH  17  20
HETATM   20  C   UNL     1      23.001  48.454  49.035  1.00  0.00     0.035 A 
HETATM   21  C   UNL     1      21.815  49.151  49.263  1.00  0.00     0.036 A 
HETATM   22  C   UNL     1      21.690  50.501  48.891  1.00  0.00    -0.060 A 
HETATM   23  C   UNL     1      20.438  51.271  49.203  1.00  0.00     0.048 C 
HETATM   24  C   UNL     1      22.777  51.160  48.309  1.00  0.00     0.007 A 
HETATM   25  C   UNL     1      23.975  50.484  48.105  1.00  0.00     0.003 A 
HETATM   26  C   UNL     1      24.088  49.146  48.478  1.00  0.00     0.029 A 
ENDBRANCH  17  20
ENDBRANCH  15  16
ENDBRANCH   1  15
TORSDOF 3
ENDMDL
MODEL 7
REMARK VINA RESULT:      -8.2      3.425      5.017
REMARK  3 active torsions:
REMARK  status: ('A' for Active; 'I' for Inactive)
REMARK    1  A    between atoms: C_4  and  N_5 
REMARK       I    between atoms: N_5  and  C_6 
REMARK    2  A    between atoms: C_6  and  C_7 
REMARK    3  A    between atoms: C_7  and  C_8 
ROOT
HETATM    1  C   UNL     1      27.011  44.588  53.394  1.00  0.00     0.286 C 
HETATM    2  N   UNL     1      28.440  44.027  53.337  1.00  0.00    -0.056 N 
HETATM    3  H   UNL     1      28.430  43.101  52.875  1.00  0.00     0.278 HD
HETATM    4  H   UNL     1      29.011  44.618  52.716  1.00  0.00     0.278 HD
HETATM    5  C   UNL     1      29.033  43.963  54.712  1.00  0.00     0.209 C 
HETATM    6  C   UNL     1      29.138  45.411  55.240  1.00  0.00     0.115 C 
HETATM    7  N   UNL     1      27.844  46.090  55.203  1.00  0.00    -0.353 N 
HETATM    8  C   UNL     1      26.940  45.922  54.174  1.00  0.00     0.249 C 
HETATM    9  O   UNL     1      26.079  46.770  53.967  1.00  0.00    -0.271 OA
HETATM   10  C   UNL     1      30.390  43.275  54.681  1.00  0.00     0.035 C 
HETATM   11  C   UNL     1      30.989  43.266  56.088  1.00  0.00     0.002 C 
HETATM   12  C   UNL     1      31.092  44.677  56.671  1.00  0.00     0.002 C 
HETATM   13  C   UNL     1      29.757  45.426  56.639  1.00  0.00     0.027 C 
HETATM   14  H   UNL     1      27.766  47.003  55.649  1.00  0.00     0.163 HD
ENDROOT
BRANCH   1  15
HETATM   15  C   UNL     1      26.457  44.739  51.981  1.00  0.00     0.146 C 
BRANCH  15  16
HETATM   16  C   UNL     1      25.295  43.800  51.847  1.00  0.00     0.224 C 
HETATM   17  N   UNL     1      25.325  42.630  51.168  1.00  0.00    -0.327 N 
HETATM   18  H   UNL     1      24.386  42.254  51.051  1.00  0.00     0.169 HD
HETATM   19  O   UNL     1      24.182  44.244  52.172  1.00  0.00    -0.273 OA
BRANCH  17  20
HETATM   20  C   UNL     1      26.333  41.876  50.544  1.00  0.00     0.035 A 
HETATM   21  C   UNL     1      26.565  41.801  49.171  1.00  0.00     0.036 A 
HETATM   22  C   UNL     1      27.602  41.001  48.659  1.00  0.00    -0.060 A 
HETATM   23  C   UNL     1      27.899  40.978  47.186  1.00  0.00     0.048 C 
HETATM   24  C   UNL     1      28.426  40.292  49.539  1.00  0.00     0.007 A 
HETATM   25  C   UNL     1      28.223  40.383  50.911  1.00  0.00     0.003 A 
HETATM   26  C   UNL     1      27.192  41.180  51.408  1.00  0.00     0.029 A 
ENDBRANCH  17  20
ENDBRANCH  15  16
ENDBRANCH   1  15
TORSDOF 3
ENDMDL
MODEL 8
REMARK VINA RESULT:      -8.2      2.723      3.944
REMARK  3 active torsions:
REMARK  status: ('A' for Active; 'I' for Inactive)
REMARK    1  A    between atoms: C_4  and  N_5 
REMARK       I    between atoms: N_5  and  C_6 
REMARK    2  A    between atoms: C_6  and  C_7 
REMARK    3  A    between atoms: C_7  and  C_8 
ROOT
HETATM    1  C   UNL     1      26.074  43.544  49.887  1.00  0.00     0.286 C 
HETATM    2  N   UNL     1      26.748  44.216  51.092  1.00  0.00    -0.056 N 
HETATM    3  H   UNL     1      27.104  45.147  50.815  1.00  0.00     0.278 HD
HETATM    4  H   UNL     1      26.036  44.416  51.810  1.00  0.00     0.278 HD
HETATM    5  C   UNL     1      27.833  43.340  51.643  1.00  0.00     0.209 C 
HETATM    6  C   UNL     1      27.167  42.047  52.161  1.00  0.00     0.115 C 
HETATM    7  N   UNL     1      26.376  41.396  51.119  1.00  0.00    -0.353 N 
HETATM    8  C   UNL     1      25.619  42.100  50.205  1.00  0.00     0.249 C 
HETATM    9  O   UNL     1      24.688  41.552  49.626  1.00  0.00    -0.271 OA
HETATM   10  C   UNL     1      28.600  44.061  52.743  1.00  0.00     0.035 C 
HETATM   11  C   UNL     1      29.668  43.127  53.313  1.00  0.00     0.002 C 
HETATM   12  C   UNL     1      29.064  41.815  53.821  1.00  0.00     0.002 C 
HETATM   13  C   UNL     1      28.217  41.108  52.760  1.00  0.00     0.027 C 
HETATM   14  H   UNL     1      25.999  40.469  51.309  1.00  0.00     0.163 HD
ENDROOT
BRANCH   1  15
HETATM   15  C   UNL     1      24.910  44.400  49.399  1.00  0.00     0.146 C 
BRANCH  15  16
HETATM   16  C   UNL     1      24.359  45.135  50.585  1.00  0.00     0.224 C 
HETATM   17  N   UNL     1      24.459  46.471  50.777  1.00  0.00    -0.327 N 
HETATM   18  H   UNL     1      24.185  46.723  51.725  1.00  0.00     0.169 HD
HETATM   19  O   UNL     1      24.009  44.443  51.554  1.00  0.00    -0.273 OA
BRANCH  17  20
HETATM   20  C   UNL     1      24.914  47.549  50.000  1.00  0.00     0.035 A 
HETATM   21  C   UNL     1      24.109  48.457  49.313  1.00  0.00     0.036 A 
HETATM   22  C   UNL     1      24.680  49.496  48.556  1.00  0.00    -0.060 A 
HETATM   23  C   UNL     1      23.812  50.517  47.876  1.00  0.00     0.048 C 
HETATM   24  C   UNL     1      26.071  49.634  48.511  1.00  0.00     0.007 A 
HETATM   25  C   UNL     1      26.882  48.753  49.218  1.00  0.00     0.003 A 
HETATM   26  C   UNL     1      26.305  47.727  49.966  1.00  0.00     0.029 A 
ENDBRANCH  17  20
ENDBRANCH  15  16
ENDBRANCH   1  15
TORSDOF 3
ENDMDL
MODEL 9
REMARK VINA RESULT:      -7.9      1.703      2.124
REMARK  3 active torsions:
REMARK  status: ('A' for Active; 'I' for Inactive)
REMARK    1  A    between atoms: C_4  and  N_5 
REMARK       I    between atoms: N_5  and  C_6 
REMARK    2  A    between atoms: C_6  and  C_7 
REMARK    3  A    between atoms: C_7  and  C_8 
ROOT
HETATM    1  C   UNL     1      26.394  44.071  53.230  1.00  0.00     0.286 C 
HETATM    2  N   UNL     1      27.814  43.495  53.123  1.00  0.00    -0.056 N 
HETATM    3  H   UNL     1      27.764  42.500  52.842  1.00  0.00     0.278 HD
HETATM    4  H   UNL     1      28.309  43.956  52.345  1.00  0.00     0.278 HD
HETATM    5  C   UNL     1      28.555  43.678  54.413  1.00  0.00     0.209 C 
HETATM    6  C   UNL     1      28.701  45.197  54.653  1.00  0.00     0.115 C 
HETATM    7  N   UNL     1      27.404  45.870  54.633  1.00  0.00    -0.353 N 
HETATM    8  C   UNL     1      26.396  45.526  53.756  1.00  0.00     0.249 C 
HETATM    9  O   UNL     1      25.509  46.330  53.493  1.00  0.00    -0.271 OA
HETATM   10  C   UNL     1      29.907  42.982  54.361  1.00  0.00     0.035 C 
HETATM   11  C   UNL     1      30.655  43.225  55.673  1.00  0.00     0.002 C 
HETATM   12  C   UNL     1      30.807  44.718  55.972  1.00  0.00     0.002 C 
HETATM   13  C   UNL     1      29.469  45.462  55.949  1.00  0.00     0.027 C 
HETATM   14  H   UNL     1      27.366  46.850  54.909  1.00  0.00     0.163 HD
ENDROOT
BRANCH   1  15
HETATM   15  C   UNL     1      25.688  43.966  51.883  1.00  0.00     0.146 C 
BRANCH  15  16
HETATM   16  C   UNL     1      26.744  43.831  50.827  1.00  0.00     0.224 C 
HETATM   17  N   UNL     1      27.027  44.773  49.896  1.00  0.00    -0.327 N 
HETATM   18  H   UNL     1      27.639  44.398  49.174  1.00  0.00     0.169 HD
HETATM   19  O   UNL     1      27.213  42.696  50.651  1.00  0.00    -0.273 OA
BRANCH  17  20
HETATM   20  C   UNL     1      26.614  46.097  49.675  1.00  0.00     0.035 A 
HETATM   21  C   UNL     1      25.300  46.562  49.725  1.00  0.00     0.036 A 
HETATM   22  C   UNL     1      25.005  47.914  49.474  1.00  0.00    -0.060 A 
HETATM   23  C   UNL     1      23.599  48.429  49.600  1.00  0.00     0.048 C 
HETATM   24  C   UNL     1      26.044  48.808  49.196  1.00  0.00     0.007 A 
HETATM   25  C   UNL     1      27.360  48.361  49.173  1.00  0.00     0.003 A 
HETATM   26  C   UNL     1      27.642  47.019  49.424  1.00  0.00     0.029 A 
ENDBRANCH  17  20
ENDBRANCH  15  16
ENDBRANCH   1  15
TORSDOF 3
ENDMDL
MODEL 10
REMARK VINA RESULT:      -7.9      3.473      7.608
REMARK  3 active torsions:
REMARK  status: ('A' for Active; 'I' for Inactive)
REMARK    1  A    between atoms: C_4  and  N_5 
REMARK       I    between atoms: N_5  and  C_6 
REMARK    2  A    between atoms: C_6  and  C_7 
REMARK    3  A    between atoms: C_7  and  C_8 
ROOT
HETATM    1  C   UNL     1      27.671  43.473  53.408  1.00  0.00     0.286 C 
HETATM    2  N   UNL     1      27.504  43.085  51.931  1.00  0.00    -0.056 N 
HETATM    3  H   UNL     1      28.431  43.056  51.473  1.00  0.00     0.278 HD
HETATM    4  H   UNL     1      27.158  42.116  51.873  1.00  0.00     0.278 HD
HETATM    5  C   UNL     1      26.566  44.031  51.243  1.00  0.00     0.209 C 
HETATM    6  C   UNL     1      25.181  43.879  51.910  1.00  0.00     0.115 C 
HETATM    7  N   UNL     1      25.255  44.091  53.354  1.00  0.00    -0.353 N 
HETATM    8  C   UNL     1      26.310  43.644  54.122  1.00  0.00     0.249 C 
HETATM    9  O   UNL     1      26.166  43.481  55.329  1.00  0.00    -0.271 OA
HETATM   10  C   UNL     1      26.509  43.741  49.750  1.00  0.00     0.035 C 
HETATM   11  C   UNL     1      25.512  44.691  49.085  1.00  0.00     0.002 C 
HETATM   12  C   UNL     1      24.125  44.599  49.726  1.00  0.00     0.002 C 
HETATM   13  C   UNL     1      24.162  44.804  51.242  1.00  0.00     0.027 C 
HETATM   14  H   UNL     1      24.383  44.145  53.878  1.00  0.00     0.163 HD
ENDROOT
BRANCH   1  15
HETATM   15  C   UNL     1      28.548  42.447  54.117  1.00  0.00     0.146 C 
BRANCH  15  16
HETATM   16  C   UNL     1      29.978  42.789  53.820  1.00  0.00     0.224 C 
HETATM   17  N   UNL     1      30.749  43.601  54.580  1.00  0.00    -0.327 N 
HETATM   18  H   UNL     1      31.612  43.840  54.096  1.00  0.00     0.169 HD
HETATM   19  O   UNL     1      30.394  42.503  52.686  1.00  0.00    -0.273 OA
BRANCH  17  20
HETATM   20  C   UNL     1      30.591  44.230  55.826  1.00  0.00     0.035 A 
HETATM   21  C   UNL     1      29.610  45.166  56.151  1.00  0.00     0.036 A 
HETATM   22  C   UNL     1      29.557  45.738  57.435  1.00  0.00    -0.060 A 
HETATM   23  C   UNL     1      28.455  46.690  57.807  1.00  0.00     0.048 C 
HETATM   24  C   UNL     1      30.484  45.344  58.405  1.00  0.00     0.007 A 
HETATM   25  C   UNL     1      31.448  44.390  58.101  1.00  0.00     0.003 A 
HETATM   26  C   UNL     1      31.491  43.829  56.826  1.00  0.00     0.029 A 
ENDBRANCH  17  20
ENDBRANCH  15  16
ENDBRANCH   1  15
TORSDOF 3
ENDMDL
