MODEL 1
REMARK VINA RESULT:     -10.8      0.000      0.000
REMARK  7 active torsions:
REMARK  status: ('A' for Active; 'I' for Inactive)
REMARK    1  A    between atoms: C_3  and  C_4 
REMARK    2  A    between atoms: C_4  and  C_5 
REMARK    3  A    between atoms: C_5  and  C_6 
REMARK       I    between atoms: C_6  and  N_7 
REMARK    4  A    between atoms: N_7  and  C_8 
REMARK    5  A    between atoms: C_8  and  C_9 
REMARK    6  A    between atoms: C_9  and  C_10 
REMARK    7  A    between atoms: C_29  and  O_30 
ROOT
HETATM    1  C   UNL     1      26.411  43.237  52.144  1.00  0.00     0.107 C 
ENDROOT
BRANCH   1   2
HETATM    2  C   UNL     1      27.869  43.711  52.089  1.00  0.00     0.055 C 
BRANCH   2   3
HETATM    3  C   UNL     1      28.682  43.856  53.371  1.00  0.00     0.025 A 
HETATM    4  C   UNL     1      28.447  44.860  54.251  1.00  0.00    -0.037 A 
HETATM    5  C   UNL     1      27.426  45.952  54.015  1.00  0.00     0.050 C 
HETATM    6  C   UNL     1      29.232  44.952  55.500  1.00  0.00     0.005 A 
HETATM    7  C   UNL     1      30.257  44.034  55.733  1.00  0.00     0.099 A 
HETATM    8  C   UNL     1      29.004  45.923  56.485  1.00  0.00     0.017 A 
HETATM    9  O   UNL     1      30.509  43.024  54.787  1.00  0.00    -0.274 OA
HETATM   10  C   UNL     1      31.070  44.057  56.886  1.00  0.00     0.006 A 
HETATM   11  C   UNL     1      29.776  42.876  53.622  1.00  0.00     0.295 A 
HETATM   12  O   UNL     1      30.052  41.972  52.841  1.00  0.00    -0.259 OA
HETATM   13  C   UNL     1      32.169  43.054  57.087  1.00  0.00     0.054 C 
HETATM   14  C   UNL     1      30.810  45.051  57.833  1.00  0.00     0.074 A 
HETATM   15  C   UNL     1      29.788  45.973  57.640  1.00  0.00     0.038 A 
BRANCH  14  16
HETATM   16  O   UNL     1      31.520  45.185  58.993  1.00  0.00    -0.360 OA
HETATM   17  H   UNL     1      30.929  45.460  59.710  1.00  0.00     0.217 HD
ENDBRANCH  14  16
ENDBRANCH   2   3
ENDBRANCH   1   2
BRANCH   1  18
HETATM   18  C   UNL     1      25.492  44.241  51.473  1.00  0.00     0.217 C 
HETATM   19  N   UNL     1      26.106  44.955  50.463  1.00  0.00    -0.361 N 
HETATM   20  H   UNL     1      27.118  44.951  50.437  1.00  0.00     0.162 HD
HETATM   21  O   UNL     1      24.320  44.405  51.795  1.00  0.00    -0.274 OA
BRANCH  19  22
HETATM   22  C   UNL     1      25.398  46.049  49.818  1.00  0.00     0.127 C 
BRANCH  22  23
HETATM   23  C   UNL     1      25.847  47.419  50.324  1.00  0.00     0.060 C 
BRANCH  23  24
HETATM   24  C   UNL     1      25.506  48.509  49.358  1.00  0.00    -0.029 A 
HETATM   25  C   UNL     1      24.193  48.966  49.012  1.00  0.00    -0.000 A 
HETATM   26  C   UNL     1      24.339  50.013  48.101  1.00  0.00     0.043 A 
HETATM   27  C   UNL     1      22.891  48.587  49.400  1.00  0.00     0.038 A 
HETATM   28  C   UNL     1      23.251  50.706  47.557  1.00  0.00     0.032 A 
HETATM   29  N   UNL     1      25.689  50.182  47.895  1.00  0.00    -0.365 N 
HETATM   30  C   UNL     1      21.970  50.312  47.955  1.00  0.00     0.026 A 
HETATM   31  C   UNL     1      21.796  49.269  48.861  1.00  0.00     0.035 A 
HETATM   32 CL   UNL     1      20.202  48.808  49.327  1.00  0.00    -0.084 Cl
HETATM   33  H   UNL     1      26.091  50.878  47.283  1.00  0.00     0.165 HD
HETATM   34  C   UNL     1      26.399  49.283  48.643  1.00  0.00     0.096 A 
ENDBRANCH  23  24
ENDBRANCH  22  23
ENDBRANCH  19  22
ENDBRANCH   1  18
TORSDOF 7
ENDMDL
MODEL 2
REMARK VINA RESULT:     -10.7      1.350      2.148
REMARK  7 active torsions:
REMARK  status: ('A' for Active; 'I' for Inactive)
REMARK    1  A    between atoms: C_3  and  C_4 
REMARK    2  A    between atoms: C_4  and  C_5 
REMARK    3  A    between atoms: C_5  and  C_6 
REMARK       I    between atoms: C_6  and  N_7 
REMARK    4  A    between atoms: N_7  and  C_8 
REMARK    5  A    between atoms: C_8  and  C_9 
REMARK    6  A    between atoms: C_9  and  C_10 
REMARK    7  A    between atoms: C_29  and  O_30 
ROOT
HETATM    1  C   UNL     1      26.595  43.053  51.891  1.00  0.00     0.107 C 
ENDROOT
BRANCH   1   2
HETATM    2  C   UNL     1      27.831  43.954  52.015  1.00  0.00     0.055 C 
BRANCH   2   3
HETATM    3  C   UNL     1      28.429  44.258  53.384  1.00  0.00     0.025 A 
HETATM    4  C   UNL     1      29.477  43.550  53.874  1.00  0.00    -0.037 A 
HETATM    5  C   UNL     1      30.093  42.369  53.156  1.00  0.00     0.050 C 
HETATM    6  C   UNL     1      30.054  43.894  55.191  1.00  0.00     0.005 A 
HETATM    7  C   UNL     1      29.470  44.910  55.950  1.00  0.00     0.099 A 
HETATM    8  C   UNL     1      31.174  43.250  55.734  1.00  0.00     0.017 A 
HETATM    9  O   UNL     1      28.359  45.604  55.439  1.00  0.00    -0.274 OA
HETATM   10  C   UNL     1      29.939  45.290  57.225  1.00  0.00     0.006 A 
HETATM   11  C   UNL     1      27.808  45.343  54.196  1.00  0.00     0.295 A 
HETATM   12  O   UNL     1      26.838  45.987  53.813  1.00  0.00    -0.259 OA
HETATM   13  C   UNL     1      29.271  46.382  58.010  1.00  0.00     0.054 C 
HETATM   14  C   UNL     1      31.053  44.612  57.727  1.00  0.00     0.074 A 
HETATM   15  C   UNL     1      31.667  43.604  56.992  1.00  0.00     0.038 A 
BRANCH  14  16
HETATM   16  O   UNL     1      31.609  44.882  58.945  1.00  0.00    -0.360 OA
HETATM   17  H   UNL     1      32.379  44.311  59.089  1.00  0.00     0.217 HD
ENDBRANCH  14  16
ENDBRANCH   2   3
ENDBRANCH   1   2
BRANCH   1  18
HETATM   18  C   UNL     1      25.358  43.875  51.580  1.00  0.00     0.217 C 
HETATM   19  N   UNL     1      25.639  45.191  51.270  1.00  0.00    -0.361 N 
HETATM   20  H   UNL     1      26.552  45.547  51.529  1.00  0.00     0.162 HD
HETATM   21  O   UNL     1      24.220  43.419  51.600  1.00  0.00    -0.274 OA
BRANCH  19  22
HETATM   22  C   UNL     1      24.552  46.138  51.084  1.00  0.00     0.127 C 
BRANCH  22  23
HETATM   23  C   UNL     1      24.230  46.382  49.610  1.00  0.00     0.060 C 
BRANCH  23  24
HETATM   24  C   UNL     1      24.320  47.832  49.252  1.00  0.00    -0.029 A 
HETATM   25  C   UNL     1      23.224  48.727  49.030  1.00  0.00    -0.000 A 
HETATM   26  C   UNL     1      23.760  49.985  48.752  1.00  0.00     0.043 A 
HETATM   27  C   UNL     1      21.821  48.581  49.049  1.00  0.00     0.038 A 
HETATM   28  C   UNL     1      22.968  51.110  48.493  1.00  0.00     0.032 A 
HETATM   29  N   UNL     1      25.129  49.859  48.796  1.00  0.00    -0.365 N 
HETATM   30  C   UNL     1      21.580  50.942  48.516  1.00  0.00     0.026 A 
HETATM   31  C   UNL     1      21.019  49.696  48.788  1.00  0.00     0.035 A 
HETATM   32 CL   UNL     1      19.305  49.524  48.806  1.00  0.00    -0.084 Cl
HETATM   33  H   UNL     1      25.779  50.616  48.638  1.00  0.00     0.165 HD
HETATM   34  C   UNL     1      25.477  48.569  49.094  1.00  0.00     0.096 A 
ENDBRANCH  23  24
ENDBRANCH  22  23
ENDBRANCH  19  22
ENDBRANCH   1  18
TORSDOF 7
ENDMDL
MODEL 3
REMARK VINA RESULT:     -10.4      2.485      3.655
REMARK  7 active torsions:
REMARK  status: ('A' for Active; 'I' for Inactive)
REMARK    1  A    between atoms: C_3  and  C_4 
REMARK    2  A    between atoms: C_4  and  C_5 
REMARK    3  A    between atoms: C_5  and  C_6 
REMARK       I    between atoms: C_6  and  N_7 
REMARK    4  A    between atoms: N_7  and  C_8 
REMARK    5  A    between atoms: C_8  and  C_9 
REMARK    6  A    between atoms: C_9  and  C_10 
REMARK    7  A    between atoms: C_29  and  O_30 
ROOT
HETATM    1  C   UNL     1      26.151  47.153  52.124  1.00  0.00     0.107 C 
ENDROOT
BRANCH   1   2
HETATM    2  C   UNL     1      25.908  46.519  53.500  1.00  0.00     0.055 C 
BRANCH   2   3
HETATM    3  C   UNL     1      27.085  46.120  54.384  1.00  0.00     0.025 A 
HETATM    4  C   UNL     1      27.787  44.982  54.159  1.00  0.00    -0.037 A 
HETATM    5  C   UNL     1      27.433  43.985  53.077  1.00  0.00     0.050 C 
HETATM    6  C   UNL     1      28.944  44.641  55.014  1.00  0.00     0.005 A 
HETATM    7  C   UNL     1      29.265  45.468  56.092  1.00  0.00     0.099 A 
HETATM    8  C   UNL     1      29.754  43.517  54.804  1.00  0.00     0.017 A 
HETATM    9  O   UNL     1      28.498  46.622  56.331  1.00  0.00    -0.274 OA
HETATM   10  C   UNL     1      30.336  45.211  56.974  1.00  0.00     0.006 A 
HETATM   11  C   UNL     1      27.430  47.001  55.534  1.00  0.00     0.295 A 
HETATM   12  O   UNL     1      26.805  48.021  55.802  1.00  0.00    -0.259 OA
HETATM   13  C   UNL     1      30.635  46.124  58.127  1.00  0.00     0.054 C 
HETATM   14  C   UNL     1      31.108  44.072  56.728  1.00  0.00     0.074 A 
HETATM   15  C   UNL     1      30.825  43.234  55.655  1.00  0.00     0.038 A 
BRANCH  14  16
HETATM   16  O   UNL     1      32.174  43.708  57.502  1.00  0.00    -0.360 OA
HETATM   17  H   UNL     1      32.999  43.868  57.020  1.00  0.00     0.217 HD
ENDBRANCH  14  16
ENDBRANCH   2   3
ENDBRANCH   1   2
BRANCH   1  18
HETATM   18  C   UNL     1      25.135  46.655  51.114  1.00  0.00     0.217 C 
HETATM   19  N   UNL     1      24.761  47.614  50.195  1.00  0.00    -0.361 N 
HETATM   20  H   UNL     1      24.966  48.580  50.419  1.00  0.00     0.162 HD
HETATM   21  O   UNL     1      24.687  45.513  51.113  1.00  0.00    -0.274 OA
BRANCH  19  22
HETATM   22  C   UNL     1      23.694  47.332  49.249  1.00  0.00     0.127 C 
BRANCH  22  23
HETATM   23  C   UNL     1      23.235  48.576  48.490  1.00  0.00     0.060 C 
BRANCH  23  24
HETATM   24  C   UNL     1      22.048  49.218  49.135  1.00  0.00    -0.029 A 
HETATM   25  C   UNL     1      20.706  48.717  49.148  1.00  0.00    -0.000 A 
HETATM   26  C   UNL     1      19.931  49.612  49.885  1.00  0.00     0.043 A 
HETATM   27  C   UNL     1      20.083  47.574  48.604  1.00  0.00     0.038 A 
HETATM   28  C   UNL     1      18.562  49.427  50.111  1.00  0.00     0.032 A 
HETATM   29  N   UNL     1      20.767  50.623  50.299  1.00  0.00    -0.365 N 
HETATM   30  C   UNL     1      17.964  48.288  49.562  1.00  0.00     0.026 A 
HETATM   31  C   UNL     1      18.715  47.379  48.820  1.00  0.00     0.035 A 
HETATM   32 CL   UNL     1      17.946  45.988  48.155  1.00  0.00    -0.084 Cl
HETATM   33  H   UNL     1      20.476  51.413  50.859  1.00  0.00     0.165 HD
HETATM   34  C   UNL     1      22.041  50.398  49.853  1.00  0.00     0.096 A 
ENDBRANCH  23  24
ENDBRANCH  22  23
ENDBRANCH  19  22
ENDBRANCH   1  18
TORSDOF 7
ENDMDL
MODEL 4
REMARK VINA RESULT:      -9.9      4.697      7.070
REMARK  7 active torsions:
REMARK  status: ('A' for Active; 'I' for Inactive)
REMARK    1  A    between atoms: C_3  and  C_4 
REMARK    2  A    between atoms: C_4  and  C_5 
REMARK    3  A    between atoms: C_5  and  C_6 
REMARK       I    between atoms: C_6  and  N_7 
REMARK    4  A    between atoms: N_7  and  C_8 
REMARK    5  A    between atoms: C_8  and  C_9 
REMARK    6  A    between atoms: C_9  and  C_10 
REMARK    7  A    between atoms: C_29  and  O_30 
ROOT
HETATM    1  C   UNL     1      25.853  43.910  52.427  1.00  0.00     0.107 C 
ENDROOT
BRANCH   1   2
HETATM    2  C   UNL     1      27.246  44.545  52.343  1.00  0.00     0.055 C 
BRANCH   2   3
HETATM    3  C   UNL     1      28.181  44.518  53.548  1.00  0.00     0.025 A 
HETATM    4  C   UNL     1      28.051  45.405  54.566  1.00  0.00    -0.037 A 
HETATM    5  C   UNL     1      27.034  46.526  54.570  1.00  0.00     0.050 C 
HETATM    6  C   UNL     1      28.952  45.330  55.735  1.00  0.00     0.005 A 
HETATM    7  C   UNL     1      29.976  44.381  55.750  1.00  0.00     0.099 A 
HETATM    8  C   UNL     1      28.839  46.169  56.852  1.00  0.00     0.017 A 
HETATM    9  O   UNL     1      30.117  43.498  54.665  1.00  0.00    -0.274 OA
HETATM   10  C   UNL     1      30.896  44.250  56.812  1.00  0.00     0.006 A 
HETATM   11  C   UNL     1      29.273  43.506  53.567  1.00  0.00     0.295 A 
HETATM   12  O   UNL     1      29.455  42.707  52.655  1.00  0.00    -0.259 OA
HETATM   13  C   UNL     1      31.988  43.221  56.778  1.00  0.00     0.054 C 
HETATM   14  C   UNL     1      30.747  45.117  57.898  1.00  0.00     0.074 A 
HETATM   15  C   UNL     1      29.730  46.065  57.923  1.00  0.00     0.038 A 
BRANCH  14  16
HETATM   16  O   UNL     1      31.567  45.097  58.991  1.00  0.00    -0.360 OA
HETATM   17  H   UNL     1      31.851  45.998  59.206  1.00  0.00     0.217 HD
ENDBRANCH  14  16
ENDBRANCH   2   3
ENDBRANCH   1   2
BRANCH   1  18
HETATM   18  C   UNL     1      25.738  42.733  51.477  1.00  0.00     0.217 C 
HETATM   19  N   UNL     1      26.695  41.761  51.691  1.00  0.00    -0.361 N 
HETATM   20  H   UNL     1      27.507  42.019  52.239  1.00  0.00     0.162 HD
HETATM   21  O   UNL     1      24.882  42.651  50.603  1.00  0.00    -0.274 OA
BRANCH  19  22
HETATM   22  C   UNL     1      26.804  40.638  50.775  1.00  0.00     0.127 C 
BRANCH  22  23
HETATM   23  C   UNL     1      28.247  40.350  50.364  1.00  0.00     0.060 C 
BRANCH  23  24
HETATM   24  C   UNL     1      28.338  39.193  49.421  1.00  0.00    -0.029 A 
HETATM   25  C   UNL     1      28.221  39.241  47.994  1.00  0.00    -0.000 A 
HETATM   26  C   UNL     1      28.399  37.942  47.515  1.00  0.00     0.043 A 
HETATM   27  C   UNL     1      27.989  40.276  47.065  1.00  0.00     0.038 A 
HETATM   28  C   UNL     1      28.359  37.622  46.153  1.00  0.00     0.032 A 
HETATM   29  N   UNL     1      28.609  37.134  48.608  1.00  0.00    -0.365 N 
HETATM   30  C   UNL     1      28.126  38.664  45.250  1.00  0.00     0.026 A 
HETATM   31  C   UNL     1      27.943  39.968  45.702  1.00  0.00     0.035 A 
HETATM   32 CL   UNL     1      27.655  41.228  44.562  1.00  0.00    -0.084 Cl
HETATM   33  H   UNL     1      28.773  36.138  48.560  1.00  0.00     0.165 HD
HETATM   34  C   UNL     1      28.572  37.874  49.759  1.00  0.00     0.096 A 
ENDBRANCH  23  24
ENDBRANCH  22  23
ENDBRANCH  19  22
ENDBRANCH   1  18
TORSDOF 7
ENDMDL
MODEL 5
REMARK VINA RESULT:      -9.9      2.486      3.701
REMARK  7 active torsions:
REMARK  status: ('A' for Active; 'I' for Inactive)
REMARK    1  A    between atoms: C_3  and  C_4 
REMARK    2  A    between atoms: C_4  and  C_5 
REMARK    3  A    between atoms: C_5  and  C_6 
REMARK       I    between atoms: C_6  and  N_7 
REMARK    4  A    between atoms: N_7  and  C_8 
REMARK    5  A    between atoms: C_8  and  C_9 
REMARK    6  A    between atoms: C_9  and  C_10 
REMARK    7  A    between atoms: C_29  and  O_30 
ROOT
HETATM    1  C   UNL     1      25.656  47.384  50.874  1.00  0.00     0.107 C 
ENDROOT
BRANCH   1   2
HETATM    2  C   UNL     1      25.365  46.451  52.056  1.00  0.00     0.055 C 
BRANCH   2   3
HETATM    3  C   UNL     1      26.505  45.917  52.916  1.00  0.00     0.025 A 
HETATM    4  C   UNL     1      26.881  46.537  54.061  1.00  0.00    -0.037 A 
HETATM    5  C   UNL     1      26.266  47.831  54.548  1.00  0.00     0.050 C 
HETATM    6  C   UNL     1      27.969  45.974  54.889  1.00  0.00     0.005 A 
HETATM    7  C   UNL     1      28.646  44.836  54.447  1.00  0.00     0.099 A 
HETATM    8  C   UNL     1      28.369  46.523  56.115  1.00  0.00     0.017 A 
HETATM    9  O   UNL     1      28.265  44.232  53.235  1.00  0.00    -0.274 OA
HETATM   10  C   UNL     1      29.709  44.242  55.159  1.00  0.00     0.006 A 
HETATM   11  C   UNL     1      27.229  44.702  52.447  1.00  0.00     0.295 A 
HETATM   12  O   UNL     1      26.951  44.125  51.401  1.00  0.00    -0.259 OA
HETATM   13  C   UNL     1      30.415  43.024  54.637  1.00  0.00     0.054 C 
HETATM   14  C   UNL     1      30.078  44.832  56.371  1.00  0.00     0.074 A 
HETATM   15  C   UNL     1      29.416  45.958  56.848  1.00  0.00     0.038 A 
BRANCH  14  16
HETATM   16  O   UNL     1      31.088  44.358  57.159  1.00  0.00    -0.360 OA
HETATM   17  H   UNL     1      31.795  43.996  56.605  1.00  0.00     0.217 HD
ENDBRANCH  14  16
ENDBRANCH   2   3
ENDBRANCH   1   2
BRANCH   1  18
HETATM   18  C   UNL     1      24.512  47.365  49.877  1.00  0.00     0.217 C 
HETATM   19  N   UNL     1      24.426  48.516  49.120  1.00  0.00    -0.361 N 
HETATM   20  H   UNL     1      24.921  49.333  49.456  1.00  0.00     0.162 HD
HETATM   21  O   UNL     1      23.739  46.421  49.755  1.00  0.00    -0.274 OA
BRANCH  19  22
HETATM   22  C   UNL     1      23.302  48.707  48.219  1.00  0.00     0.127 C 
BRANCH  22  23
HETATM   23  C   UNL     1      22.950  50.180  48.019  1.00  0.00     0.060 C 
BRANCH  23  24
HETATM   24  C   UNL     1      21.892  50.636  48.972  1.00  0.00    -0.029 A 
HETATM   25  C   UNL     1      20.562  51.050  48.639  1.00  0.00    -0.000 A 
HETATM   26  C   UNL     1      19.908  51.361  49.832  1.00  0.00     0.043 A 
HETATM   27  C   UNL     1      19.852  51.181  47.428  1.00  0.00     0.038 A 
HETATM   28  C   UNL     1      18.578  51.795  49.881  1.00  0.00     0.032 A 
HETATM   29  N   UNL     1      20.807  51.150  50.851  1.00  0.00    -0.365 N 
HETATM   30  C   UNL     1      17.894  51.918  48.667  1.00  0.00     0.026 A 
HETATM   31  C   UNL     1      18.523  51.617  47.462  1.00  0.00     0.035 A 
HETATM   32 CL   UNL     1      17.652  51.783  45.985  1.00  0.00    -0.084 Cl
HETATM   33  H   UNL     1      20.605  51.291  51.832  1.00  0.00     0.165 HD
HETATM   34  C   UNL     1      22.003  50.717  50.347  1.00  0.00     0.096 A 
ENDBRANCH  23  24
ENDBRANCH  22  23
ENDBRANCH  19  22
ENDBRANCH   1  18
TORSDOF 7
ENDMDL
MODEL 6
REMARK VINA RESULT:      -9.9      1.762      2.353
REMARK  7 active torsions:
REMARK  status: ('A' for Active; 'I' for Inactive)
REMARK    1  A    between atoms: C_3  and  C_4 
REMARK    2  A    between atoms: C_4  and  C_5 
REMARK    3  A    between atoms: C_5  and  C_6 
REMARK       I    between atoms: C_6  and  N_7 
REMARK    4  A    between atoms: N_7  and  C_8 
REMARK    5  A    between atoms: C_8  and  C_9 
REMARK    6  A    between atoms: C_9  and  C_10 
REMARK    7  A    between atoms: C_29  and  O_30 
ROOT
HETATM    1  C   UNL     1      26.425  42.972  52.118  1.00  0.00     0.107 C 
ENDROOT
BRANCH   1   2
HETATM    2  C   UNL     1      27.668  43.870  52.131  1.00  0.00     0.055 C 
BRANCH   2   3
HETATM    3  C   UNL     1      28.519  43.991  53.391  1.00  0.00     0.025 A 
HETATM    4  C   UNL     1      28.288  44.958  54.313  1.00  0.00    -0.037 A 
HETATM    5  C   UNL     1      27.234  46.031  54.149  1.00  0.00     0.050 C 
HETATM    6  C   UNL     1      29.111  45.026  55.540  1.00  0.00     0.005 A 
HETATM    7  C   UNL     1      30.165  44.127  55.708  1.00  0.00     0.099 A 
HETATM    8  C   UNL     1      28.891  45.956  56.565  1.00  0.00     0.017 A 
HETATM    9  O   UNL     1      30.411  43.157  54.719  1.00  0.00    -0.274 OA
HETATM   10  C   UNL     1      31.015  44.131  56.834  1.00  0.00     0.006 A 
HETATM   11  C   UNL     1      29.644  43.031  53.573  1.00  0.00     0.295 A 
HETATM   12  O   UNL     1      29.916  42.162  52.752  1.00  0.00    -0.259 OA
HETATM   13  C   UNL     1      32.144  43.150  56.964  1.00  0.00     0.054 C 
HETATM   14  C   UNL     1      30.761  45.084  57.824  1.00  0.00     0.074 A 
HETATM   15  C   UNL     1      29.711  45.986  57.696  1.00  0.00     0.038 A 
BRANCH  14  16
HETATM   16  O   UNL     1      31.505  45.196  58.964  1.00  0.00    -0.360 OA
HETATM   17  H   UNL     1      31.483  46.111  59.282  1.00  0.00     0.217 HD
ENDBRANCH  14  16
ENDBRANCH   2   3
ENDBRANCH   1   2
BRANCH   1  18
HETATM   18  C   UNL     1      25.246  43.693  51.492  1.00  0.00     0.217 C 
HETATM   19  N   UNL     1      25.577  44.921  50.954  1.00  0.00    -0.361 N 
HETATM   20  H   UNL     1      26.454  45.336  51.245  1.00  0.00     0.162 HD
HETATM   21  O   UNL     1      24.109  43.233  51.465  1.00  0.00    -0.274 OA
BRANCH  19  22
HETATM   22  C   UNL     1      24.533  45.792  50.442  1.00  0.00     0.127 C 
BRANCH  22  23
HETATM   23  C   UNL     1      24.104  45.426  49.022  1.00  0.00     0.060 C 
BRANCH  23  24
HETATM   24  C   UNL     1      22.723  45.911  48.714  1.00  0.00    -0.029 A 
HETATM   25  C   UNL     1      22.326  47.267  48.477  1.00  0.00    -0.000 A 
HETATM   26  C   UNL     1      20.958  47.261  48.199  1.00  0.00     0.043 A 
HETATM   27  C   UNL     1      23.011  48.500  48.465  1.00  0.00     0.038 A 
HETATM   28  C   UNL     1      20.236  48.425  47.908  1.00  0.00     0.032 A 
HETATM   29  N   UNL     1      20.538  45.954  48.272  1.00  0.00    -0.365 N 
HETATM   30  C   UNL     1      20.935  49.636  47.903  1.00  0.00     0.026 A 
HETATM   31  C   UNL     1      22.300  49.670  48.179  1.00  0.00     0.035 A 
HETATM   32 CL   UNL     1      23.130  51.180  48.167  1.00  0.00    -0.084 Cl
HETATM   33  H   UNL     1      19.588  45.648  48.110  1.00  0.00     0.165 HD
HETATM   34  C   UNL     1      21.589  45.134  48.582  1.00  0.00     0.096 A 
ENDBRANCH  23  24
ENDBRANCH  22  23
ENDBRANCH  19  22
ENDBRANCH   1  18
TORSDOF 7
ENDMDL
MODEL 7
REMARK VINA RESULT:      -9.8      2.537      3.782
REMARK  7 active torsions:
REMARK  status: ('A' for Active; 'I' for Inactive)
REMARK    1  A    between atoms: C_3  and  C_4 
REMARK    2  A    between atoms: C_4  and  C_5 
REMARK    3  A    between atoms: C_5  and  C_6 
REMARK       I    between atoms: C_6  and  N_7 
REMARK    4  A    between atoms: N_7  and  C_8 
REMARK    5  A    between atoms: C_8  and  C_9 
REMARK    6  A    between atoms: C_9  and  C_10 
REMARK    7  A    between atoms: C_29  and  O_30 
ROOT
HETATM    1  C   UNL     1      25.533  46.705  51.365  1.00  0.00     0.107 C 
ENDROOT
BRANCH   1   2
HETATM    2  C   UNL     1      25.364  45.885  52.651  1.00  0.00     0.055 C 
BRANCH   2   3
HETATM    3  C   UNL     1      26.559  45.627  53.563  1.00  0.00     0.025 A 
HETATM    4  C   UNL     1      27.405  44.590  53.349  1.00  0.00    -0.037 A 
HETATM    5  C   UNL     1      27.209  43.569  52.249  1.00  0.00     0.050 C 
HETATM    6  C   UNL     1      28.573  44.389  54.233  1.00  0.00     0.005 A 
HETATM    7  C   UNL     1      28.757  45.237  55.326  1.00  0.00     0.099 A 
HETATM    8  C   UNL     1      29.524  43.379  54.036  1.00  0.00     0.017 A 
HETATM    9  O   UNL     1      27.843  46.282  55.553  1.00  0.00    -0.274 OA
HETATM   10  C   UNL     1      29.828  45.107  56.235  1.00  0.00     0.006 A 
HETATM   11  C   UNL     1      26.758  46.532  54.730  1.00  0.00     0.295 A 
HETATM   12  O   UNL     1      26.002  47.461  54.989  1.00  0.00    -0.259 OA
HETATM   13  C   UNL     1      29.979  46.037  57.404  1.00  0.00     0.054 C 
HETATM   14  C   UNL     1      30.745  44.078  56.002  1.00  0.00     0.074 A 
HETATM   15  C   UNL     1      30.600  43.224  54.915  1.00  0.00     0.038 A 
BRANCH  14  16
HETATM   16  O   UNL     1      31.827  43.843  56.801  1.00  0.00    -0.360 OA
HETATM   17  H   UNL     1      32.644  44.016  56.309  1.00  0.00     0.217 HD
ENDBRANCH  14  16
ENDBRANCH   2   3
ENDBRANCH   1   2
BRANCH   1  18
HETATM   18  C   UNL     1      25.214  45.863  50.144  1.00  0.00     0.217 C 
HETATM   19  N   UNL     1      23.861  45.668  49.952  1.00  0.00    -0.361 N 
HETATM   20  H   UNL     1      23.247  45.851  50.736  1.00  0.00     0.162 HD
HETATM   21  O   UNL     1      26.071  45.401  49.399  1.00  0.00    -0.274 OA
BRANCH  19  22
HETATM   22  C   UNL     1      23.401  44.770  48.906  1.00  0.00     0.127 C 
BRANCH  22  23
HETATM   23  C   UNL     1      22.593  45.488  47.826  1.00  0.00     0.060 C 
BRANCH  23  24
HETATM   24  C   UNL     1      21.443  46.251  48.405  1.00  0.00    -0.029 A 
HETATM   25  C   UNL     1      21.377  47.666  48.619  1.00  0.00    -0.000 A 
HETATM   26  C   UNL     1      20.117  47.952  49.147  1.00  0.00     0.043 A 
HETATM   27  C   UNL     1      22.275  48.732  48.402  1.00  0.00     0.038 A 
HETATM   28  C   UNL     1      19.704  49.250  49.469  1.00  0.00     0.032 A 
HETATM   29  N   UNL     1      19.446  46.756  49.256  1.00  0.00    -0.365 N 
HETATM   30  C   UNL     1      20.611  50.291  49.247  1.00  0.00     0.026 A 
HETATM   31  C   UNL     1      21.875  50.033  48.723  1.00  0.00     0.035 A 
HETATM   32 CL   UNL     1      22.968  51.339  48.464  1.00  0.00    -0.084 Cl
HETATM   33  H   UNL     1      18.503  46.660  49.607  1.00  0.00     0.165 HD
HETATM   34  C   UNL     1      20.233  45.727  48.816  1.00  0.00     0.096 A 
ENDBRANCH  23  24
ENDBRANCH  22  23
ENDBRANCH  19  22
ENDBRANCH   1  18
TORSDOF 7
ENDMDL
MODEL 8
REMARK VINA RESULT:      -9.8      3.593      5.894
REMARK  7 active torsions:
REMARK  status: ('A' for Active; 'I' for Inactive)
REMARK    1  A    between atoms: C_3  and  C_4 
REMARK    2  A    between atoms: C_4  and  C_5 
REMARK    3  A    between atoms: C_5  and  C_6 
REMARK       I    between atoms: C_6  and  N_7 
REMARK    4  A    between atoms: N_7  and  C_8 
REMARK    5  A    between atoms: C_8  and  C_9 
REMARK    6  A    between atoms: C_9  and  C_10 
REMARK    7  A    between atoms: C_29  and  O_30 
ROOT
HETATM    1  C   UNL     1      26.161  47.218  52.210  1.00  0.00     0.107 C 
ENDROOT
BRANCH   1   2
HETATM    2  C   UNL     1      25.919  46.594  53.590  1.00  0.00     0.055 C 
BRANCH   2   3
HETATM    3  C   UNL     1      27.095  46.181  54.468  1.00  0.00     0.025 A 
HETATM    4  C   UNL     1      27.799  45.047  54.225  1.00  0.00    -0.037 A 
HETATM    5  C   UNL     1      27.446  44.068  53.127  1.00  0.00     0.050 C 
HETATM    6  C   UNL     1      28.955  44.694  55.076  1.00  0.00     0.005 A 
HETATM    7  C   UNL     1      29.274  45.504  56.167  1.00  0.00     0.099 A 
HETATM    8  C   UNL     1      29.767  43.574  54.848  1.00  0.00     0.017 A 
HETATM    9  O   UNL     1      28.506  46.653  56.424  1.00  0.00    -0.274 OA
HETATM   10  C   UNL     1      30.345  45.234  57.045  1.00  0.00     0.006 A 
HETATM   11  C   UNL     1      27.439  47.044  55.633  1.00  0.00     0.295 A 
HETATM   12  O   UNL     1      26.812  48.059  55.916  1.00  0.00    -0.259 OA
HETATM   13  C   UNL     1      30.643  46.128  58.213  1.00  0.00     0.054 C 
HETATM   14  C   UNL     1      31.119  44.100  56.782  1.00  0.00     0.074 A 
HETATM   15  C   UNL     1      30.837  43.279  55.695  1.00  0.00     0.038 A 
BRANCH  14  16
HETATM   16  O   UNL     1      32.184  43.724  57.550  1.00  0.00    -0.360 OA
HETATM   17  H   UNL     1      31.945  42.957  58.091  1.00  0.00     0.217 HD
ENDBRANCH  14  16
ENDBRANCH   2   3
ENDBRANCH   1   2
BRANCH   1  18
HETATM   18  C   UNL     1      25.068  46.818  51.238  1.00  0.00     0.217 C 
HETATM   19  N   UNL     1      24.824  45.459  51.216  1.00  0.00    -0.361 N 
HETATM   20  H   UNL     1      25.530  44.853  51.614  1.00  0.00     0.162 HD
HETATM   21  O   UNL     1      24.459  47.621  50.538  1.00  0.00    -0.274 OA
BRANCH  19  22
HETATM   22  C   UNL     1      23.903  44.905  50.238  1.00  0.00     0.127 C 
BRANCH  22  23
HETATM   23  C   UNL     1      24.566  44.643  48.887  1.00  0.00     0.060 C 
BRANCH  23  24
HETATM   24  C   UNL     1      24.609  43.184  48.561  1.00  0.00    -0.029 A 
HETATM   25  C   UNL     1      25.503  42.210  49.113  1.00  0.00    -0.000 A 
HETATM   26  C   UNL     1      25.174  40.974  48.554  1.00  0.00     0.043 A 
HETATM   27  C   UNL     1      26.559  42.269  50.046  1.00  0.00     0.038 A 
HETATM   28  C   UNL     1      25.845  39.789  48.880  1.00  0.00     0.032 A 
HETATM   29  N   UNL     1      24.126  41.189  47.690  1.00  0.00    -0.365 N 
HETATM   30  C   UNL     1      26.889  39.871  49.807  1.00  0.00     0.026 A 
HETATM   31  C   UNL     1      27.238  41.092  50.378  1.00  0.00     0.035 A 
HETATM   32 CL   UNL     1      28.532  41.157  51.514  1.00  0.00    -0.084 Cl
HETATM   33  H   UNL     1      23.676  40.466  47.145  1.00  0.00     0.165 HD
HETATM   34  C   UNL     1      23.779  42.513  47.684  1.00  0.00     0.096 A 
ENDBRANCH  23  24
ENDBRANCH  22  23
ENDBRANCH  19  22
ENDBRANCH   1  18
TORSDOF 7
ENDMDL
MODEL 9
REMARK VINA RESULT:      -9.8      4.183     11.278
REMARK  7 active torsions:
REMARK  status: ('A' for Active; 'I' for Inactive)
REMARK    1  A    between atoms: C_3  and  C_4 
REMARK    2  A    between atoms: C_4  and  C_5 
REMARK    3  A    between atoms: C_5  and  C_6 
REMARK       I    between atoms: C_6  and  N_7 
REMARK    4  A    between atoms: N_7  and  C_8 
REMARK    5  A    between atoms: C_8  and  C_9 
REMARK    6  A    between atoms: C_9  and  C_10 
REMARK    7  A    between atoms: C_29  and  O_30 
ROOT
HETATM    1  C   UNL     1      23.891  46.888  49.719  1.00  0.00     0.107 C 
ENDROOT
BRANCH   1   2
HETATM    2  C   UNL     1      23.535  47.934  48.655  1.00  0.00     0.055 C 
BRANCH   2   3
HETATM    3  C   UNL     1      22.140  48.549  48.614  1.00  0.00     0.025 A 
HETATM    4  C   UNL     1      21.954  49.891  48.681  1.00  0.00    -0.037 A 
HETATM    5  C   UNL     1      23.084  50.880  48.869  1.00  0.00     0.050 C 
HETATM    6  C   UNL     1      20.590  50.456  48.605  1.00  0.00     0.005 A 
HETATM    7  C   UNL     1      19.495  49.594  48.530  1.00  0.00     0.099 A 
HETATM    8  C   UNL     1      20.324  51.832  48.603  1.00  0.00     0.017 A 
HETATM    9  O   UNL     1      19.710  48.204  48.504  1.00  0.00    -0.274 OA
HETATM   10  C   UNL     1      18.159  50.042  48.476  1.00  0.00     0.006 A 
HETATM   11  C   UNL     1      20.970  47.631  48.534  1.00  0.00     0.295 A 
HETATM   12  O   UNL     1      21.083  46.410  48.507  1.00  0.00    -0.259 OA
HETATM   13  C   UNL     1      17.012  49.074  48.408  1.00  0.00     0.054 C 
HETATM   14  C   UNL     1      17.945  51.423  48.487  1.00  0.00     0.074 A 
HETATM   15  C   UNL     1      19.013  52.311  48.547  1.00  0.00     0.038 A 
BRANCH  14  16
HETATM   16  O   UNL     1      16.703  51.989  48.438  1.00  0.00    -0.360 OA
HETATM   17  H   UNL     1      16.357  52.102  49.336  1.00  0.00     0.217 HD
ENDBRANCH  14  16
ENDBRANCH   2   3
ENDBRANCH   1   2
BRANCH   1  18
HETATM   18  C   UNL     1      25.053  47.361  50.572  1.00  0.00     0.217 C 
HETATM   19  N   UNL     1      25.160  46.689  51.773  1.00  0.00    -0.361 N 
HETATM   20  H   UNL     1      24.351  46.167  52.089  1.00  0.00     0.162 HD
HETATM   21  O   UNL     1      25.823  48.252  50.231  1.00  0.00    -0.274 OA
BRANCH  19  22
HETATM   22  C   UNL     1      26.136  47.120  52.759  1.00  0.00     0.127 C 
BRANCH  22  23
HETATM   23  C   UNL     1      26.198  46.193  53.972  1.00  0.00     0.060 C 
BRANCH  23  24
HETATM   24  C   UNL     1      27.305  45.194  53.855  1.00  0.00    -0.029 A 
HETATM   25  C   UNL     1      28.420  45.045  54.741  1.00  0.00    -0.000 A 
HETATM   26  C   UNL     1      29.187  43.976  54.275  1.00  0.00     0.043 A 
HETATM   27  C   UNL     1      28.843  45.721  55.905  1.00  0.00     0.038 A 
HETATM   28  C   UNL     1      30.356  43.543  54.912  1.00  0.00     0.032 A 
HETATM   29  N   UNL     1      28.566  43.498  53.145  1.00  0.00    -0.365 N 
HETATM   30  C   UNL     1      30.756  44.228  56.064  1.00  0.00     0.026 A 
HETATM   31  C   UNL     1      30.010  45.300  56.549  1.00  0.00     0.035 A 
HETATM   32 CL   UNL     1      30.534  46.123  57.969  1.00  0.00    -0.084 Cl
HETATM   33  H   UNL     1      28.899  42.717  52.596  1.00  0.00     0.165 HD
HETATM   34  C   UNL     1      27.435  44.222  52.882  1.00  0.00     0.096 A 
ENDBRANCH  23  24
ENDBRANCH  22  23
ENDBRANCH  19  22
ENDBRANCH   1  18
TORSDOF 7
ENDMDL
MODEL 10
REMARK VINA RESULT:      -9.7      4.201     11.401
REMARK  7 active torsions:
REMARK  status: ('A' for Active; 'I' for Inactive)
REMARK    1  A    between atoms: C_3  and  C_4 
REMARK    2  A    between atoms: C_4  and  C_5 
REMARK    3  A    between atoms: C_5  and  C_6 
REMARK       I    between atoms: C_6  and  N_7 
REMARK    4  A    between atoms: N_7  and  C_8 
REMARK    5  A    between atoms: C_8  and  C_9 
REMARK    6  A    between atoms: C_9  and  C_10 
REMARK    7  A    between atoms: C_29  and  O_30 
ROOT
HETATM    1  C   UNL     1      23.911  47.263  49.658  1.00  0.00     0.107 C 
ENDROOT
BRANCH   1   2
HETATM    2  C   UNL     1      23.766  48.345  48.580  1.00  0.00     0.055 C 
BRANCH   2   3
HETATM    3  C   UNL     1      22.390  48.892  48.217  1.00  0.00     0.025 A 
HETATM    4  C   UNL     1      21.968  50.102  48.661  1.00  0.00    -0.037 A 
HETATM    5  C   UNL     1      22.777  50.974  49.597  1.00  0.00     0.050 C 
HETATM    6  C   UNL     1      20.641  50.618  48.262  1.00  0.00     0.005 A 
HETATM    7  C   UNL     1      19.804  49.821  47.480  1.00  0.00     0.099 A 
HETATM    8  C   UNL     1      20.164  51.884  48.629  1.00  0.00     0.017 A 
HETATM    9  O   UNL     1      20.246  48.552  47.065  1.00  0.00    -0.274 OA
HETATM   10  C   UNL     1      18.514  50.221  47.071  1.00  0.00     0.006 A 
HETATM   11  C   UNL     1      21.495  48.044  47.382  1.00  0.00     0.295 A 
HETATM   12  O   UNL     1      21.815  46.929  46.985  1.00  0.00    -0.259 OA
HETATM   13  C   UNL     1      17.645  49.324  46.239  1.00  0.00     0.054 C 
HETATM   14  C   UNL     1      18.080  51.488  47.471  1.00  0.00     0.074 A 
HETATM   15  C   UNL     1      18.894  52.314  48.239  1.00  0.00     0.038 A 
BRANCH  14  16
HETATM   16  O   UNL     1      16.856  51.999  47.143  1.00  0.00    -0.360 OA
HETATM   17  H   UNL     1      16.644  51.778  46.223  1.00  0.00     0.217 HD
ENDBRANCH  14  16
ENDBRANCH   2   3
ENDBRANCH   1   2
BRANCH   1  18
HETATM   18  C   UNL     1      25.137  47.516  50.515  1.00  0.00     0.217 C 
HETATM   19  N   UNL     1      25.085  46.891  51.744  1.00  0.00    -0.361 N 
HETATM   20  H   UNL     1      24.181  46.566  52.065  1.00  0.00     0.162 HD
HETATM   21  O   UNL     1      26.082  48.209  50.154  1.00  0.00    -0.274 OA
BRANCH  19  22
HETATM   22  C   UNL     1      26.120  47.149  52.732  1.00  0.00     0.127 C 
BRANCH  22  23
HETATM   23  C   UNL     1      25.968  46.287  53.984  1.00  0.00     0.060 C 
BRANCH  23  24
HETATM   24  C   UNL     1      27.284  46.023  54.643  1.00  0.00    -0.029 A 
HETATM   25  C   UNL     1      28.044  44.811  54.580  1.00  0.00    -0.000 A 
HETATM   26  C   UNL     1      29.217  45.012  55.310  1.00  0.00     0.043 A 
HETATM   27  C   UNL     1      27.844  43.561  53.958  1.00  0.00     0.038 A 
HETATM   28  C   UNL     1      30.203  44.028  55.452  1.00  0.00     0.032 A 
HETATM   29  N   UNL     1      29.168  46.294  55.805  1.00  0.00    -0.365 N 
HETATM   30  C   UNL     1      29.982  42.796  54.828  1.00  0.00     0.026 A 
HETATM   31  C   UNL     1      28.820  42.569  54.095  1.00  0.00     0.035 A 
HETATM   32 CL   UNL     1      28.579  41.038  53.341  1.00  0.00    -0.084 Cl
HETATM   33  H   UNL     1      29.891  46.717  56.371  1.00  0.00     0.165 HD
HETATM   34  C   UNL     1      28.011  46.911  55.412  1.00  0.00     0.096 A 
ENDBRANCH  23  24
ENDBRANCH  22  23
ENDBRANCH  19  22
ENDBRANCH   1  18
TORSDOF 7
ENDMDL
