MODEL 1
REMARK VINA RESULT:      -7.9      0.000      0.000
REMARK  8 active torsions:
REMARK  status: ('A' for Active; 'I' for Inactive)
REMARK    1  A    between atoms: C_2  and  N_3 
REMARK       I    between atoms: N_3  and  C_4 
REMARK    2  A    between atoms: C_4  and  C_5 
REMARK    3  A    between atoms: C_5  and  C_6 
REMARK    4  A    between atoms: C_10  and  C_11 
REMARK    5  A    between atoms: C_11  and  O_12 
REMARK    6  A    between atoms: C_14  and  O_15 
REMARK    7  A    between atoms: C_22  and  N_23 
REMARK       I    between atoms: N_23  and  C_24 
REMARK    8  A    between atoms: C_24  and  C_25 
ROOT
HETATM    1  C   UNL     1      18.110  49.457  48.347  1.00  0.00     0.056 C 
HETATM    2  C   UNL     1      16.910  48.505  47.904  1.00  0.00    -0.030 C 
HETATM    3  C   UNL     1      16.588  47.502  49.061  1.00  0.00     0.016 C 
HETATM    4  C   UNL     1      17.251  47.631  46.619  1.00  0.00     0.012 C 
HETATM    5  C   UNL     1      17.077  48.298  45.188  1.00  0.00     0.008 C 
HETATM    6  C   UNL     1      16.639  47.157  44.216  1.00  0.00     0.020 C 
HETATM    7  C   UNL     1      15.923  49.350  45.189  1.00  0.00     0.128 C 
HETATM    8  C   UNL     1      14.942  49.136  46.338  1.00  0.00     0.033 C 
HETATM    9  C   UNL     1      15.626  49.364  47.683  1.00  0.00     0.013 C 
HETATM   10  C   UNL     1      18.559  46.810  46.785  1.00  0.00     0.055 C 
HETATM   11  C   UNL     1      19.615  47.591  47.474  1.00  0.00     0.012 A 
HETATM   12  C   UNL     1      19.435  48.743  48.212  1.00  0.00     0.056 A 
HETATM   13  N   UNL     1      20.588  49.232  48.808  1.00  0.00    -0.227 NA
HETATM   14  C   UNL     1      21.601  48.482  48.458  1.00  0.00     0.174 A 
HETATM   15  S   UNL     1      21.255  47.136  47.467  1.00  0.00    -0.055 SA
ENDROOT
BRANCH  14  16
HETATM   16  N   UNL     1      22.924  48.608  48.757  1.00  0.00    -0.300 N 
HETATM   17  C   UNL     1      23.766  49.474  48.106  1.00  0.00     0.281 C 
HETATM   18  O   UNL     1      23.438  50.289  47.252  1.00  0.00    -0.265 OA
HETATM   19  H   UNL     1      23.303  48.009  49.476  1.00  0.00     0.171 HD
BRANCH  17  20
HETATM   20  C   UNL     1      25.141  49.336  48.557  1.00  0.00     0.142 A 
HETATM   21  O   UNL     1      25.428  48.479  49.592  1.00  0.00    -0.317 OA
HETATM   22  C   UNL     1      26.768  48.533  49.797  1.00  0.00     0.143 A 
HETATM   23  C   UNL     1      27.356  49.411  48.919  1.00  0.00     0.027 A 
HETATM   24  C   UNL     1      26.309  49.930  48.119  1.00  0.00     0.045 A 
ENDBRANCH  17  20
ENDBRANCH  14  16
BRANCH   1  25
HETATM   25  C   UNL     1      17.914  50.050  49.758  1.00  0.00     0.114 C 
BRANCH  25  26
HETATM   26  C   UNL     1      17.631  51.540  49.761  1.00  0.00     0.218 C 
HETATM   27  N   UNL     1      16.309  51.880  49.884  1.00  0.00    -0.357 N 
HETATM   28  H   UNL     1      15.641  51.136  50.104  1.00  0.00     0.162 HD
HETATM   29  O   UNL     1      18.541  52.353  49.612  1.00  0.00    -0.274 OA
BRANCH  27  30
HETATM   30  C   UNL     1      15.774  53.225  49.736  1.00  0.00     0.076 C 
HETATM   31  C   UNL     1      14.986  53.655  50.973  1.00  0.00     0.032 C 
HETATM   32  C   UNL     1      14.957  53.404  48.459  1.00  0.00     0.032 C 
ENDBRANCH  27  30
ENDBRANCH  25  26
ENDBRANCH   1  25
BRANCH   5  33
HETATM   33  C   UNL     1      18.369  48.887  44.565  1.00  0.00     0.176 C 
BRANCH  33  34
HETATM   34  O   UNL     1      18.164  49.447  43.282  1.00  0.00    -0.400 OA
HETATM   35  H   UNL     1      17.188  49.470  43.166  1.00  0.00     0.209 HD
ENDBRANCH  33  34
ENDBRANCH   5  33
BRANCH   7  36
HETATM   36  O   UNL     1      16.438  50.683  45.271  1.00  0.00    -0.395 OA
HETATM   37  H   UNL     1      15.825  51.265  44.783  1.00  0.00     0.210 HD
ENDBRANCH   7  36
TORSDOF 8
ENDMDL
MODEL 2
REMARK VINA RESULT:      -7.2      2.247      5.196
REMARK  8 active torsions:
REMARK  status: ('A' for Active; 'I' for Inactive)
REMARK    1  A    between atoms: C_2  and  N_3 
REMARK       I    between atoms: N_3  and  C_4 
REMARK    2  A    between atoms: C_4  and  C_5 
REMARK    3  A    between atoms: C_5  and  C_6 
REMARK    4  A    between atoms: C_10  and  C_11 
REMARK    5  A    between atoms: C_11  and  O_12 
REMARK    6  A    between atoms: C_14  and  O_15 
REMARK    7  A    between atoms: C_22  and  N_23 
REMARK       I    between atoms: N_23  and  C_24 
REMARK    8  A    between atoms: C_24  and  C_25 
ROOT
HETATM    1  C   UNL     1      18.736  48.490  46.490  1.00  0.00     0.056 C 
HETATM    2  C   UNL     1      17.694  49.562  45.936  1.00  0.00    -0.030 C 
HETATM    3  C   UNL     1      18.232  50.165  44.597  1.00  0.00     0.016 C 
HETATM    4  C   UNL     1      17.468  50.783  46.932  1.00  0.00     0.012 C 
HETATM    5  C   UNL     1      16.440  50.596  48.129  1.00  0.00     0.008 C 
HETATM    6  C   UNL     1      15.787  51.993  48.375  1.00  0.00     0.020 C 
HETATM    7  C   UNL     1      15.282  49.625  47.736  1.00  0.00     0.128 C 
HETATM    8  C   UNL     1      15.118  49.498  46.224  1.00  0.00     0.033 C 
HETATM    9  C   UNL     1      16.349  48.847  45.599  1.00  0.00     0.013 C 
HETATM   10  C   UNL     1      18.797  51.478  47.335  1.00  0.00     0.055 C 
HETATM   11  C   UNL     1      19.883  50.495  47.572  1.00  0.00     0.012 A 
HETATM   12  C   UNL     1      19.900  49.177  47.167  1.00  0.00     0.056 A 
HETATM   13  N   UNL     1      21.073  48.497  47.461  1.00  0.00    -0.227 NA
HETATM   14  C   UNL     1      21.872  49.293  48.125  1.00  0.00     0.174 A 
HETATM   15  S   UNL     1      21.324  50.889  48.387  1.00  0.00    -0.055 SA
ENDROOT
BRANCH  14  16
HETATM   16  N   UNL     1      23.099  49.047  48.660  1.00  0.00    -0.300 N 
HETATM   17  C   UNL     1      24.259  49.591  48.169  1.00  0.00     0.281 C 
HETATM   18  O   UNL     1      24.341  50.413  47.264  1.00  0.00    -0.265 OA
HETATM   19  H   UNL     1      23.153  48.408  49.440  1.00  0.00     0.171 HD
BRANCH  17  20
HETATM   20  C   UNL     1      25.432  49.087  48.865  1.00  0.00     0.142 A 
HETATM   21  O   UNL     1      25.269  48.230  49.926  1.00  0.00    -0.317 OA
HETATM   22  C   UNL     1      26.509  47.908  50.375  1.00  0.00     0.143 A 
HETATM   23  C   UNL     1      27.473  48.544  49.630  1.00  0.00     0.027 A 
HETATM   24  C   UNL     1      26.781  49.304  48.656  1.00  0.00     0.045 A 
ENDBRANCH  17  20
ENDBRANCH  14  16
BRANCH   1  25
HETATM   25  C   UNL     1      19.202  47.494  45.408  1.00  0.00     0.114 C 
BRANCH  25  26
HETATM   26  C   UNL     1      19.276  46.058  45.888  1.00  0.00     0.218 C 
HETATM   27  N   UNL     1      20.528  45.623  46.232  1.00  0.00    -0.357 N 
HETATM   28  H   UNL     1      21.281  46.316  46.279  1.00  0.00     0.162 HD
HETATM   29  O   UNL     1      18.270  45.349  45.907  1.00  0.00    -0.274 OA
BRANCH  27  30
HETATM   30  C   UNL     1      20.879  44.247  46.549  1.00  0.00     0.076 C 
HETATM   31  C   UNL     1      21.776  44.166  47.783  1.00  0.00     0.032 C 
HETATM   32  C   UNL     1      21.484  43.498  45.364  1.00  0.00     0.032 C 
ENDBRANCH  27  30
ENDBRANCH  25  26
ENDBRANCH   1  25
BRANCH   5  33
HETATM   33  C   UNL     1      17.067  50.196  49.490  1.00  0.00     0.176 C 
BRANCH  33  34
HETATM   34  O   UNL     1      17.483  51.308  50.259  1.00  0.00    -0.400 OA
HETATM   35  H   UNL     1      16.746  51.473  50.889  1.00  0.00     0.209 HD
ENDBRANCH  33  34
ENDBRANCH   5  33
BRANCH   7  36
HETATM   36  O   UNL     1      15.493  48.320  48.284  1.00  0.00    -0.395 OA
HETATM   37  H   UNL     1      15.694  48.429  49.233  1.00  0.00     0.210 HD
ENDBRANCH   7  36
TORSDOF 8
ENDMDL
MODEL 3
REMARK VINA RESULT:      -7.2      3.353      5.922
REMARK  8 active torsions:
REMARK  status: ('A' for Active; 'I' for Inactive)
REMARK    1  A    between atoms: C_2  and  N_3 
REMARK       I    between atoms: N_3  and  C_4 
REMARK    2  A    between atoms: C_4  and  C_5 
REMARK    3  A    between atoms: C_5  and  C_6 
REMARK    4  A    between atoms: C_10  and  C_11 
REMARK    5  A    between atoms: C_11  and  O_12 
REMARK    6  A    between atoms: C_14  and  O_15 
REMARK    7  A    between atoms: C_22  and  N_23 
REMARK       I    between atoms: N_23  and  C_24 
REMARK    8  A    between atoms: C_24  and  C_25 
ROOT
HETATM    1  C   UNL     1      20.913  49.314  48.503  1.00  0.00     0.056 C 
HETATM    2  C   UNL     1      19.579  49.994  49.053  1.00  0.00    -0.030 C 
HETATM    3  C   UNL     1      19.592  49.972  50.618  1.00  0.00     0.016 C 
HETATM    4  C   UNL     1      18.258  49.234  48.594  1.00  0.00     0.012 C 
HETATM    5  C   UNL     1      17.671  49.553  47.153  1.00  0.00     0.008 C 
HETATM    6  C   UNL     1      16.119  49.420  47.267  1.00  0.00     0.020 C 
HETATM    7  C   UNL     1      17.963  51.028  46.735  1.00  0.00     0.128 C 
HETATM    8  C   UNL     1      18.260  51.924  47.934  1.00  0.00     0.033 C 
HETATM    9  C   UNL     1      19.551  51.493  48.625  1.00  0.00     0.013 C 
HETATM   10  C   UNL     1      18.283  47.723  48.953  1.00  0.00     0.055 C 
HETATM   11  C   UNL     1      19.621  47.125  48.726  1.00  0.00     0.012 A 
HETATM   12  C   UNL     1      20.810  47.808  48.570  1.00  0.00     0.056 A 
HETATM   13  N   UNL     1      21.928  46.996  48.439  1.00  0.00    -0.227 NA
HETATM   14  C   UNL     1      21.550  45.744  48.438  1.00  0.00     0.174 A 
HETATM   15  S   UNL     1      19.882  45.445  48.650  1.00  0.00    -0.055 SA
ENDROOT
BRANCH  14  16
HETATM   16  N   UNL     1      22.288  44.611  48.285  1.00  0.00    -0.300 N 
HETATM   17  C   UNL     1      22.743  43.858  49.338  1.00  0.00     0.281 C 
HETATM   18  O   UNL     1      22.484  44.048  50.521  1.00  0.00    -0.265 OA
HETATM   19  H   UNL     1      22.534  44.332  47.346  1.00  0.00     0.171 HD
BRANCH  17  20
HETATM   20  C   UNL     1      23.585  42.759  48.897  1.00  0.00     0.142 A 
HETATM   21  O   UNL     1      24.951  42.906  48.920  1.00  0.00    -0.317 OA
HETATM   22  C   UNL     1      25.487  41.742  48.476  1.00  0.00     0.143 A 
HETATM   23  C   UNL     1      24.497  40.843  48.160  1.00  0.00     0.027 A 
HETATM   24  C   UNL     1      23.270  41.497  48.431  1.00  0.00     0.045 A 
ENDBRANCH  17  20
ENDBRANCH  14  16
BRANCH   1  25
HETATM   25  C   UNL     1      22.184  49.838  49.204  1.00  0.00     0.114 C 
BRANCH  25  26
HETATM   26  C   UNL     1      23.462  49.567  48.434  1.00  0.00     0.218 C 
HETATM   27  N   UNL     1      24.476  49.010  49.168  1.00  0.00    -0.357 N 
HETATM   28  H   UNL     1      24.261  48.689  50.116  1.00  0.00     0.162 HD
HETATM   29  O   UNL     1      23.562  49.885  47.250  1.00  0.00    -0.274 OA
BRANCH  27  30
HETATM   30  C   UNL     1      25.841  48.823  48.702  1.00  0.00     0.076 C 
HETATM   31  C   UNL     1      26.657  47.976  49.678  1.00  0.00     0.032 C 
HETATM   32  C   UNL     1      26.544  50.138  48.377  1.00  0.00     0.032 C 
ENDBRANCH  27  30
ENDBRANCH  25  26
ENDBRANCH   1  25
BRANCH   5  33
HETATM   33  C   UNL     1      18.080  48.562  46.032  1.00  0.00     0.176 C 
BRANCH  33  34
HETATM   34  O   UNL     1      17.591  48.932  44.757  1.00  0.00    -0.400 OA
HETATM   35  H   UNL     1      18.175  49.665  44.461  1.00  0.00     0.209 HD
ENDBRANCH  33  34
ENDBRANCH   5  33
BRANCH   7  36
HETATM   36  O   UNL     1      19.067  51.100  45.827  1.00  0.00    -0.395 OA
HETATM   37  H   UNL     1      19.768  51.626  46.257  1.00  0.00     0.210 HD
ENDBRANCH   7  36
TORSDOF 8
ENDMDL
MODEL 4
REMARK VINA RESULT:      -7.1      4.552      7.823
REMARK  8 active torsions:
REMARK  status: ('A' for Active; 'I' for Inactive)
REMARK    1  A    between atoms: C_2  and  N_3 
REMARK       I    between atoms: N_3  and  C_4 
REMARK    2  A    between atoms: C_4  and  C_5 
REMARK    3  A    between atoms: C_5  and  C_6 
REMARK    4  A    between atoms: C_10  and  C_11 
REMARK    5  A    between atoms: C_11  and  O_12 
REMARK    6  A    between atoms: C_14  and  O_15 
REMARK    7  A    between atoms: C_22  and  N_23 
REMARK       I    between atoms: N_23  and  C_24 
REMARK    8  A    between atoms: C_24  and  C_25 
ROOT
HETATM    1  C   UNL     1      22.044  44.555  48.111  1.00  0.00     0.056 C 
HETATM    2  C   UNL     1      21.357  45.147  46.799  1.00  0.00    -0.030 C 
HETATM    3  C   UNL     1      22.406  45.193  45.639  1.00  0.00     0.016 C 
HETATM    4  C   UNL     1      20.821  46.633  46.994  1.00  0.00     0.012 C 
HETATM    5  C   UNL     1      19.399  46.836  47.672  1.00  0.00     0.008 C 
HETATM    6  C   UNL     1      18.772  48.108  47.017  1.00  0.00     0.020 C 
HETATM    7  C   UNL     1      18.440  45.648  47.346  1.00  0.00     0.128 C 
HETATM    8  C   UNL     1      18.874  44.874  46.104  1.00  0.00     0.033 C 
HETATM    9  C   UNL     1      20.217  44.187  46.337  1.00  0.00     0.013 C 
HETATM   10  C   UNL     1      21.920  47.600  47.513  1.00  0.00     0.055 C 
HETATM   11  C   UNL     1      22.775  46.961  48.542  1.00  0.00     0.012 A 
HETATM   12  C   UNL     1      22.883  45.609  48.796  1.00  0.00     0.056 A 
HETATM   13  N   UNL     1      23.812  45.277  49.772  1.00  0.00    -0.227 NA
HETATM   14  C   UNL     1      24.327  46.376  50.262  1.00  0.00     0.174 A 
HETATM   15  S   UNL     1      23.801  47.846  49.572  1.00  0.00    -0.055 SA
ENDROOT
BRANCH  14  16
HETATM   16  N   UNL     1      25.233  46.542  51.265  1.00  0.00    -0.300 N 
HETATM   17  C   UNL     1      25.257  45.766  52.396  1.00  0.00     0.281 C 
HETATM   18  O   UNL     1      24.545  44.793  52.615  1.00  0.00    -0.265 OA
HETATM   19  H   UNL     1      25.899  47.295  51.177  1.00  0.00     0.171 HD
BRANCH  17  20
HETATM   20  C   UNL     1      26.261  46.219  53.344  1.00  0.00     0.142 A 
HETATM   21  O   UNL     1      27.222  45.339  53.779  1.00  0.00    -0.317 OA
HETATM   22  C   UNL     1      28.028  46.017  54.635  1.00  0.00     0.143 A 
HETATM   23  C   UNL     1      27.606  47.319  54.768  1.00  0.00     0.027 A 
HETATM   24  C   UNL     1      26.468  47.451  53.936  1.00  0.00     0.045 A 
ENDBRANCH  17  20
ENDBRANCH  14  16
BRANCH   1  25
HETATM   25  C   UNL     1      22.846  43.266  47.837  1.00  0.00     0.114 C 
BRANCH  25  26
HETATM   26  C   UNL     1      23.332  42.569  49.092  1.00  0.00     0.218 C 
HETATM   27  N   UNL     1      24.692  42.443  49.199  1.00  0.00    -0.357 N 
HETATM   28  H   UNL     1      25.274  42.940  48.519  1.00  0.00     0.162 HD
HETATM   29  O   UNL     1      22.531  42.116  49.910  1.00  0.00    -0.274 OA
BRANCH  27  30
HETATM   30  C   UNL     1      25.384  41.663  50.214  1.00  0.00     0.076 C 
HETATM   31  C   UNL     1      26.451  42.491  50.928  1.00  0.00     0.032 C 
HETATM   32  C   UNL     1      25.955  40.355  49.673  1.00  0.00     0.032 C 
ENDBRANCH  27  30
ENDBRANCH  25  26
ENDBRANCH   1  25
BRANCH   5  33
HETATM   33  C   UNL     1      19.422  47.134  49.194  1.00  0.00     0.176 C 
BRANCH  33  34
HETATM   34  O   UNL     1      18.139  47.388  49.731  1.00  0.00    -0.400 OA
HETATM   35  H   UNL     1      17.950  46.621  50.316  1.00  0.00     0.209 HD
ENDBRANCH  33  34
ENDBRANCH   5  33
BRANCH   7  36
HETATM   36  O   UNL     1      18.354  44.736  48.446  1.00  0.00    -0.395 OA
HETATM   37  H   UNL     1      17.678  45.080  49.060  1.00  0.00     0.210 HD
ENDBRANCH   7  36
TORSDOF 8
ENDMDL
MODEL 5
REMARK VINA RESULT:      -7.1     12.771     18.813
REMARK  8 active torsions:
REMARK  status: ('A' for Active; 'I' for Inactive)
REMARK    1  A    between atoms: C_2  and  N_3 
REMARK       I    between atoms: N_3  and  C_4 
REMARK    2  A    between atoms: C_4  and  C_5 
REMARK    3  A    between atoms: C_5  and  C_6 
REMARK    4  A    between atoms: C_10  and  C_11 
REMARK    5  A    between atoms: C_11  and  O_12 
REMARK    6  A    between atoms: C_14  and  O_15 
REMARK    7  A    between atoms: C_22  and  N_23 
REMARK       I    between atoms: N_23  and  C_24 
REMARK    8  A    between atoms: C_24  and  C_25 
ROOT
HETATM    1  C   UNL     1      36.345  53.336  40.207  1.00  0.00     0.056 C 
HETATM    2  C   UNL     1      37.718  52.533  40.100  1.00  0.00    -0.030 C 
HETATM    3  C   UNL     1      37.848  51.914  38.669  1.00  0.00     0.016 C 
HETATM    4  C   UNL     1      37.815  51.326  41.132  1.00  0.00     0.012 C 
HETATM    5  C   UNL     1      38.269  51.645  42.621  1.00  0.00     0.008 C 
HETATM    6  C   UNL     1      39.065  50.398  43.120  1.00  0.00     0.020 C 
HETATM    7  C   UNL     1      39.258  52.853  42.666  1.00  0.00     0.128 C 
HETATM    8  C   UNL     1      39.934  53.101  41.320  1.00  0.00     0.033 C 
HETATM    9  C   UNL     1      38.910  53.525  40.271  1.00  0.00     0.013 C 
HETATM   10  C   UNL     1      36.609  50.352  41.028  1.00  0.00     0.055 C 
HETATM   11  C   UNL     1      35.332  51.078  40.826  1.00  0.00     0.012 A 
HETATM   12  C   UNL     1      35.187  52.388  40.417  1.00  0.00     0.056 A 
HETATM   13  N   UNL     1      33.872  52.796  40.243  1.00  0.00    -0.227 NA
HETATM   14  C   UNL     1      33.073  51.816  40.579  1.00  0.00     0.174 A 
HETATM   15  S   UNL     1      33.810  50.352  41.057  1.00  0.00    -0.055 SA
ENDROOT
BRANCH  14  16
HETATM   16  N   UNL     1      31.713  51.775  40.616  1.00  0.00    -0.300 N 
HETATM   17  C   UNL     1      30.982  51.992  41.758  1.00  0.00     0.281 C 
HETATM   18  O   UNL     1      31.434  52.325  42.847  1.00  0.00    -0.265 OA
HETATM   19  H   UNL     1      31.225  51.545  39.763  1.00  0.00     0.171 HD
BRANCH  17  20
HETATM   20  C   UNL     1      29.559  51.793  41.538  1.00  0.00     0.142 A 
HETATM   21  O   UNL     1      29.028  50.532  41.663  1.00  0.00    -0.317 OA
HETATM   22  C   UNL     1      27.697  50.632  41.422  1.00  0.00     0.143 A 
HETATM   23  C   UNL     1      27.354  51.932  41.136  1.00  0.00     0.027 A 
HETATM   24  C   UNL     1      28.553  52.682  41.210  1.00  0.00     0.045 A 
ENDBRANCH  17  20
ENDBRANCH  14  16
BRANCH   1  25
HETATM   25  C   UNL     1      36.109  54.279  39.008  1.00  0.00     0.114 C 
BRANCH  25  26
HETATM   26  C   UNL     1      36.003  55.742  39.393  1.00  0.00     0.218 C 
HETATM   27  N   UNL     1      34.736  56.178  39.679  1.00  0.00    -0.357 N 
HETATM   28  H   UNL     1      33.993  55.478  39.753  1.00  0.00     0.162 HD
HETATM   29  O   UNL     1      36.997  56.466  39.388  1.00  0.00    -0.274 OA
BRANCH  27  30
HETATM   30  C   UNL     1      34.358  57.566  39.898  1.00  0.00     0.076 C 
HETATM   31  C   UNL     1      32.987  57.676  40.563  1.00  0.00     0.032 C 
HETATM   32  C   UNL     1      34.438  58.412  38.630  1.00  0.00     0.032 C 
ENDBRANCH  27  30
ENDBRANCH  25  26
ENDBRANCH   1  25
BRANCH   5  33
HETATM   33  C   UNL     1      37.118  51.827  43.645  1.00  0.00     0.176 C 
BRANCH  33  34
HETATM   34  O   UNL     1      37.552  51.751  44.989  1.00  0.00    -0.400 OA
HETATM   35  H   UNL     1      37.949  50.857  45.080  1.00  0.00     0.209 HD
ENDBRANCH  33  34
ENDBRANCH   5  33
BRANCH   7  36
HETATM   36  O   UNL     1      38.591  54.053  43.070  1.00  0.00    -0.395 OA
HETATM   37  H   UNL     1      37.842  54.192  42.460  1.00  0.00     0.210 HD
ENDBRANCH   7  36
TORSDOF 8
ENDMDL
MODEL 6
REMARK VINA RESULT:      -7.0      7.480     11.599
REMARK  8 active torsions:
REMARK  status: ('A' for Active; 'I' for Inactive)
REMARK    1  A    between atoms: C_2  and  N_3 
REMARK       I    between atoms: N_3  and  C_4 
REMARK    2  A    between atoms: C_4  and  C_5 
REMARK    3  A    between atoms: C_5  and  C_6 
REMARK    4  A    between atoms: C_10  and  C_11 
REMARK    5  A    between atoms: C_11  and  O_12 
REMARK    6  A    between atoms: C_14  and  O_15 
REMARK    7  A    between atoms: C_22  and  N_23 
REMARK       I    between atoms: N_23  and  C_24 
REMARK    8  A    between atoms: C_24  and  C_25 
ROOT
HETATM    1  C   UNL     1      25.463  43.803  50.575  1.00  0.00     0.056 C 
HETATM    2  C   UNL     1      26.344  45.018  51.113  1.00  0.00    -0.030 C 
HETATM    3  C   UNL     1      27.169  45.625  49.930  1.00  0.00     0.016 C 
HETATM    4  C   UNL     1      27.392  44.582  52.227  1.00  0.00     0.012 C 
HETATM    5  C   UNL     1      26.885  44.457  53.728  1.00  0.00     0.008 C 
HETATM    6  C   UNL     1      28.086  44.863  54.639  1.00  0.00     0.020 C 
HETATM    7  C   UNL     1      25.737  45.473  54.025  1.00  0.00     0.128 C 
HETATM    8  C   UNL     1      25.721  46.637  53.039  1.00  0.00     0.033 C 
HETATM    9  C   UNL     1      25.401  46.148  51.629  1.00  0.00     0.013 C 
HETATM   10  C   UNL     1      28.307  43.415  51.764  1.00  0.00     0.055 C 
HETATM   11  C   UNL     1      27.552  42.398  50.992  1.00  0.00     0.012 A 
HETATM   12  C   UNL     1      26.310  42.561  50.414  1.00  0.00     0.056 A 
HETATM   13  N   UNL     1      25.863  41.466  49.687  1.00  0.00    -0.227 NA
HETATM   14  C   UNL     1      26.741  40.501  49.787  1.00  0.00     0.174 A 
HETATM   15  S   UNL     1      28.157  40.838  50.680  1.00  0.00    -0.055 SA
ENDROOT
BRANCH  14  16
HETATM   16  N   UNL     1      26.705  39.236  49.286  1.00  0.00    -0.300 N 
HETATM   17  C   UNL     1      27.240  38.890  48.071  1.00  0.00     0.281 C 
HETATM   18  O   UNL     1      27.877  39.629  47.329  1.00  0.00    -0.265 OA
HETATM   19  H   UNL     1      26.234  38.527  49.830  1.00  0.00     0.171 HD
BRANCH  17  20
HETATM   20  C   UNL     1      26.978  37.499  47.738  1.00  0.00     0.142 A 
HETATM   21  O   UNL     1      27.549  36.957  46.613  1.00  0.00    -0.317 OA
HETATM   22  C   UNL     1      27.155  35.660  46.549  1.00  0.00     0.143 A 
HETATM   23  C   UNL     1      26.335  35.351  47.608  1.00  0.00     0.027 A 
HETATM   24  C   UNL     1      26.220  36.535  48.375  1.00  0.00     0.045 A 
ENDBRANCH  17  20
ENDBRANCH  14  16
BRANCH   1  25
HETATM   25  C   UNL     1      24.692  44.147  49.283  1.00  0.00     0.114 C 
BRANCH  25  26
HETATM   26  C   UNL     1      23.189  44.213  49.467  1.00  0.00     0.218 C 
HETATM   27  N   UNL     1      22.507  44.851  48.465  1.00  0.00    -0.357 N 
HETATM   28  H   UNL     1      23.025  45.102  47.618  1.00  0.00     0.162 HD
HETATM   29  O   UNL     1      22.659  43.759  50.481  1.00  0.00    -0.274 OA
BRANCH  27  30
HETATM   30  C   UNL     1      21.094  45.193  48.500  1.00  0.00     0.076 C 
HETATM   31  C   UNL     1      20.321  44.507  47.374  1.00  0.00     0.032 C 
HETATM   32  C   UNL     1      20.846  46.699  48.514  1.00  0.00     0.032 C 
ENDBRANCH  27  30
ENDBRANCH  25  26
ENDBRANCH   1  25
BRANCH   5  33
HETATM   33  C   UNL     1      26.497  43.026  54.184  1.00  0.00     0.176 C 
BRANCH  33  34
HETATM   34  O   UNL     1      25.824  43.001  55.428  1.00  0.00    -0.400 OA
HETATM   35  H   UNL     1      24.928  43.359  55.241  1.00  0.00     0.209 HD
ENDBRANCH  33  34
ENDBRANCH   5  33
BRANCH   7  36
HETATM   36  O   UNL     1      24.457  44.831  53.994  1.00  0.00    -0.395 OA
HETATM   37  H   UNL     1      23.891  45.334  53.378  1.00  0.00     0.210 HD
ENDBRANCH   7  36
TORSDOF 8
ENDMDL
MODEL 7
REMARK VINA RESULT:      -6.9     11.997     14.194
REMARK  8 active torsions:
REMARK  status: ('A' for Active; 'I' for Inactive)
REMARK    1  A    between atoms: C_2  and  N_3 
REMARK       I    between atoms: N_3  and  C_4 
REMARK    2  A    between atoms: C_4  and  C_5 
REMARK    3  A    between atoms: C_5  and  C_6 
REMARK    4  A    between atoms: C_10  and  C_11 
REMARK    5  A    between atoms: C_11  and  O_12 
REMARK    6  A    between atoms: C_14  and  O_15 
REMARK    7  A    between atoms: C_22  and  N_23 
REMARK       I    between atoms: N_23  and  C_24 
REMARK    8  A    between atoms: C_24  and  C_25 
ROOT
HETATM    1  C   UNL     1      28.666  50.516  39.238  1.00  0.00     0.056 C 
HETATM    2  C   UNL     1      29.842  51.585  39.106  1.00  0.00    -0.030 C 
HETATM    3  C   UNL     1      30.263  51.711  37.604  1.00  0.00     0.016 C 
HETATM    4  C   UNL     1      31.149  51.175  39.916  1.00  0.00     0.012 C 
HETATM    5  C   UNL     1      31.203  51.502  41.470  1.00  0.00     0.008 C 
HETATM    6  C   UNL     1      32.696  51.812  41.807  1.00  0.00     0.020 C 
HETATM    7  C   UNL     1      30.392  52.794  41.806  1.00  0.00     0.128 C 
HETATM    8  C   UNL     1      30.186  53.686  40.585  1.00  0.00     0.033 C 
HETATM    9  C   UNL     1      29.316  52.986  39.545  1.00  0.00     0.013 C 
HETATM   10  C   UNL     1      31.663  49.757  39.544  1.00  0.00     0.055 C 
HETATM   11  C   UNL     1      30.547  48.797  39.367  1.00  0.00     0.012 A 
HETATM   12  C   UNL     1      29.215  49.109  39.183  1.00  0.00     0.056 A 
HETATM   13  N   UNL     1      28.389  48.013  38.974  1.00  0.00    -0.227 NA
HETATM   14  C   UNL     1      29.100  46.919  39.067  1.00  0.00     0.174 A 
HETATM   15  S   UNL     1      30.774  47.110  39.341  1.00  0.00    -0.055 SA
ENDROOT
BRANCH  14  16
HETATM   16  N   UNL     1      28.710  45.617  38.984  1.00  0.00    -0.300 N 
HETATM   17  C   UNL     1      27.943  44.997  39.938  1.00  0.00     0.281 C 
HETATM   18  O   UNL     1      27.447  45.534  40.922  1.00  0.00    -0.265 OA
HETATM   19  H   UNL     1      29.030  45.079  38.192  1.00  0.00     0.171 HD
BRANCH  17  20
HETATM   20  C   UNL     1      27.755  43.585  39.650  1.00  0.00     0.142 A 
HETATM   21  O   UNL     1      28.813  42.721  39.798  1.00  0.00    -0.317 OA
HETATM   22  C   UNL     1      28.365  41.480  39.481  1.00  0.00     0.143 A 
HETATM   23  C   UNL     1      27.038  41.522  39.125  1.00  0.00     0.027 A 
HETATM   24  C   UNL     1      26.643  42.878  39.234  1.00  0.00     0.045 A 
ENDBRANCH  17  20
ENDBRANCH  14  16
BRANCH   1  25
HETATM   25  C   UNL     1      27.539  50.736  38.207  1.00  0.00     0.114 C 
BRANCH  25  26
HETATM   26  C   UNL     1      26.333  49.841  38.419  1.00  0.00     0.218 C 
HETATM   27  N   UNL     1      26.068  48.971  37.394  1.00  0.00    -0.357 N 
HETATM   28  H   UNL     1      26.761  48.885  36.647  1.00  0.00     0.162 HD
HETATM   29  O   UNL     1      25.638  49.952  39.428  1.00  0.00    -0.274 OA
BRANCH  27  30
HETATM   30  C   UNL     1      24.875  48.144  37.286  1.00  0.00     0.076 C 
HETATM   31  C   UNL     1      25.088  46.767  37.911  1.00  0.00     0.032 C 
HETATM   32  C   UNL     1      24.353  48.038  35.856  1.00  0.00     0.032 C 
ENDBRANCH  27  30
ENDBRANCH  25  26
ENDBRANCH   1  25
BRANCH   5  33
HETATM   33  C   UNL     1      30.809  50.334  42.411  1.00  0.00     0.176 C 
BRANCH  33  34
HETATM   34  O   UNL     1      31.748  50.112  43.445  1.00  0.00    -0.400 OA
HETATM   35  H   UNL     1      31.765  50.949  43.960  1.00  0.00     0.209 HD
ENDBRANCH  33  34
ENDBRANCH   5  33
BRANCH   7  36
HETATM   36  O   UNL     1      29.111  52.472  42.358  1.00  0.00    -0.395 OA
HETATM   37  H   UNL     1      28.833  53.225  42.912  1.00  0.00     0.210 HD
ENDBRANCH   7  36
TORSDOF 8
ENDMDL
MODEL 8
REMARK VINA RESULT:      -6.7     11.834     14.444
REMARK  8 active torsions:
REMARK  status: ('A' for Active; 'I' for Inactive)
REMARK    1  A    between atoms: C_2  and  N_3 
REMARK       I    between atoms: N_3  and  C_4 
REMARK    2  A    between atoms: C_4  and  C_5 
REMARK    3  A    between atoms: C_5  and  C_6 
REMARK    4  A    between atoms: C_10  and  C_11 
REMARK    5  A    between atoms: C_11  and  O_12 
REMARK    6  A    between atoms: C_14  and  O_15 
REMARK    7  A    between atoms: C_22  and  N_23 
REMARK       I    between atoms: N_23  and  C_24 
REMARK    8  A    between atoms: C_24  and  C_25 
ROOT
HETATM    1  C   UNL     1      29.721  49.356  40.877  1.00  0.00     0.056 C 
HETATM    2  C   UNL     1      28.909  50.725  40.962  1.00  0.00    -0.030 C 
HETATM    3  C   UNL     1      27.676  50.540  41.907  1.00  0.00     0.016 C 
HETATM    4  C   UNL     1      28.341  51.201  39.554  1.00  0.00     0.012 C 
HETATM    5  C   UNL     1      29.316  51.991  38.579  1.00  0.00     0.008 C 
HETATM    6  C   UNL     1      28.429  53.004  37.789  1.00  0.00     0.020 C 
HETATM    7  C   UNL     1      30.355  52.837  39.379  1.00  0.00     0.128 C 
HETATM    8  C   UNL     1      29.901  53.116  40.809  1.00  0.00     0.033 C 
HETATM    9  C   UNL     1      29.812  51.820  41.611  1.00  0.00     0.013 C 
HETATM   10  C   UNL     1      27.488  50.108  38.854  1.00  0.00     0.055 C 
HETATM   11  C   UNL     1      28.080  48.758  39.018  1.00  0.00     0.012 A 
HETATM   12  C   UNL     1      29.039  48.388  39.939  1.00  0.00     0.056 A 
HETATM   13  N   UNL     1      29.367  47.040  39.920  1.00  0.00    -0.227 NA
HETATM   14  C   UNL     1      28.702  46.452  38.959  1.00  0.00     0.174 A 
HETATM   15  S   UNL     1      27.617  47.424  38.068  1.00  0.00    -0.055 SA
ENDROOT
BRANCH  14  16
HETATM   16  N   UNL     1      28.740  45.158  38.538  1.00  0.00    -0.300 N 
HETATM   17  C   UNL     1      28.482  44.089  39.359  1.00  0.00     0.281 C 
HETATM   18  O   UNL     1      28.110  44.152  40.526  1.00  0.00    -0.265 OA
HETATM   19  H   UNL     1      29.001  44.982  37.579  1.00  0.00     0.171 HD
BRANCH  17  20
HETATM   20  C   UNL     1      28.687  42.820  38.681  1.00  0.00     0.142 A 
HETATM   21  O   UNL     1      29.961  42.439  38.336  1.00  0.00    -0.317 OA
HETATM   22  C   UNL     1      29.868  41.226  37.736  1.00  0.00     0.143 A 
HETATM   23  C   UNL     1      28.558  40.814  37.679  1.00  0.00     0.027 A 
HETATM   24  C   UNL     1      27.795  41.840  38.287  1.00  0.00     0.045 A 
ENDBRANCH  17  20
ENDBRANCH  14  16
BRANCH   1  25
HETATM   25  C   UNL     1      29.984  48.729  42.263  1.00  0.00     0.114 C 
BRANCH  25  26
HETATM   26  C   UNL     1      31.388  48.967  42.785  1.00  0.00     0.218 C 
HETATM   27  N   UNL     1      31.648  50.249  43.191  1.00  0.00    -0.357 N 
HETATM   28  H   UNL     1      30.862  50.903  43.249  1.00  0.00     0.162 HD
HETATM   29  O   UNL     1      32.221  48.062  42.783  1.00  0.00    -0.274 OA
BRANCH  27  30
HETATM   30  C   UNL     1      32.959  50.761  43.560  1.00  0.00     0.076 C 
HETATM   31  C   UNL     1      32.854  51.885  44.590  1.00  0.00     0.032 C 
HETATM   32  C   UNL     1      33.795  51.180  42.354  1.00  0.00     0.032 C 
ENDBRANCH  27  30
ENDBRANCH  25  26
ENDBRANCH   1  25
BRANCH   5  33
HETATM   33  C   UNL     1      30.013  51.131  37.492  1.00  0.00     0.176 C 
BRANCH  33  34
HETATM   34  O   UNL     1      30.800  51.894  36.598  1.00  0.00    -0.400 OA
HETATM   35  H   UNL     1      30.155  52.413  36.068  1.00  0.00     0.209 HD
ENDBRANCH  33  34
ENDBRANCH   5  33
BRANCH   7  36
HETATM   36  O   UNL     1      31.629  52.186  39.424  1.00  0.00    -0.395 OA
HETATM   37  H   UNL     1      31.657  51.544  38.689  1.00  0.00     0.210 HD
ENDBRANCH   7  36
TORSDOF 8
ENDMDL
MODEL 9
REMARK VINA RESULT:      -6.7      4.238      7.957
REMARK  8 active torsions:
REMARK  status: ('A' for Active; 'I' for Inactive)
REMARK    1  A    between atoms: C_2  and  N_3 
REMARK       I    between atoms: N_3  and  C_4 
REMARK    2  A    between atoms: C_4  and  C_5 
REMARK    3  A    between atoms: C_5  and  C_6 
REMARK    4  A    between atoms: C_10  and  C_11 
REMARK    5  A    between atoms: C_11  and  O_12 
REMARK    6  A    between atoms: C_14  and  O_15 
REMARK    7  A    between atoms: C_22  and  N_23 
REMARK       I    between atoms: N_23  and  C_24 
REMARK    8  A    between atoms: C_24  and  C_25 
ROOT
HETATM    1  C   UNL     1      17.420  51.424  48.510  1.00  0.00     0.056 C 
HETATM    2  C   UNL     1      18.855  50.734  48.606  1.00  0.00    -0.030 C 
HETATM    3  C   UNL     1      19.965  51.835  48.557  1.00  0.00     0.016 C 
HETATM    4  C   UNL     1      19.146  49.734  47.402  1.00  0.00     0.012 C 
HETATM    5  C   UNL     1      18.572  48.255  47.498  1.00  0.00     0.008 C 
HETATM    6  C   UNL     1      19.600  47.332  46.770  1.00  0.00     0.020 C 
HETATM    7  C   UNL     1      18.506  47.768  48.980  1.00  0.00     0.128 C 
HETATM    8  C   UNL     1      19.435  48.561  49.895  1.00  0.00     0.033 C 
HETATM    9  C   UNL     1      18.991  50.018  49.985  1.00  0.00     0.013 C 
HETATM   10  C   UNL     1      18.958  50.402  46.012  1.00  0.00     0.055 C 
HETATM   11  C   UNL     1      17.776  51.297  45.987  1.00  0.00     0.012 A 
HETATM   12  C   UNL     1      17.104  51.802  47.082  1.00  0.00     0.056 A 
HETATM   13  N   UNL     1      16.070  52.674  46.772  1.00  0.00    -0.227 NA
HETATM   14  C   UNL     1      15.954  52.754  45.472  1.00  0.00     0.174 A 
HETATM   15  S   UNL     1      17.078  51.866  44.543  1.00  0.00    -0.055 SA
ENDROOT
BRANCH  14  16
HETATM   16  N   UNL     1      15.053  53.443  44.718  1.00  0.00    -0.300 N 
HETATM   17  C   UNL     1      13.828  52.940  44.359  1.00  0.00     0.281 C 
HETATM   18  O   UNL     1      13.355  51.870  44.725  1.00  0.00    -0.265 OA
HETATM   19  H   UNL     1      15.319  54.359  44.386  1.00  0.00     0.171 HD
BRANCH  17  20
HETATM   20  C   UNL     1      13.109  53.842  43.475  1.00  0.00     0.142 A 
HETATM   21  O   UNL     1      12.293  54.806  44.016  1.00  0.00    -0.317 OA
HETATM   22  C   UNL     1      11.762  55.508  42.983  1.00  0.00     0.143 A 
HETATM   23  C   UNL     1      12.213  55.015  41.781  1.00  0.00     0.027 A 
HETATM   24  C   UNL     1      13.081  53.942  42.097  1.00  0.00     0.045 A 
ENDBRANCH  17  20
ENDBRANCH  14  16
BRANCH   1  25
HETATM   25  C   UNL     1      17.267  52.621  49.472  1.00  0.00     0.114 C 
BRANCH  25  26
HETATM   26  C   UNL     1      15.866  52.783  50.028  1.00  0.00     0.218 C 
HETATM   27  N   UNL     1      15.637  53.958  50.695  1.00  0.00    -0.357 N 
HETATM   28  H   UNL     1      16.357  54.684  50.647  1.00  0.00     0.162 HD
HETATM   29  O   UNL     1      15.036  51.882  49.914  1.00  0.00    -0.274 OA
BRANCH  27  30
HETATM   30  C   UNL     1      14.440  54.266  51.462  1.00  0.00     0.076 C 
HETATM   31  C   UNL     1      13.278  54.666  50.553  1.00  0.00     0.032 C 
HETATM   32  C   UNL     1      14.683  55.304  52.553  1.00  0.00     0.032 C 
ENDBRANCH  27  30
ENDBRANCH  25  26
ENDBRANCH   1  25
BRANCH   5  33
HETATM   33  C   UNL     1      17.225  48.014  46.769  1.00  0.00     0.176 C 
BRANCH  33  34
HETATM   34  O   UNL     1      16.735  46.696  46.926  1.00  0.00    -0.400 OA
HETATM   35  H   UNL     1      16.891  46.261  46.059  1.00  0.00     0.209 HD
ENDBRANCH  33  34
ENDBRANCH   5  33
BRANCH   7  36
HETATM   36  O   UNL     1      17.173  47.856  49.495  1.00  0.00    -0.395 OA
HETATM   37  H   UNL     1      17.158  48.584  50.145  1.00  0.00     0.210 HD
ENDBRANCH   7  36
TORSDOF 8
ENDMDL
MODEL 10
REMARK VINA RESULT:      -6.5      3.029      7.435
REMARK  8 active torsions:
REMARK  status: ('A' for Active; 'I' for Inactive)
REMARK    1  A    between atoms: C_2  and  N_3 
REMARK       I    between atoms: N_3  and  C_4 
REMARK    2  A    between atoms: C_4  and  C_5 
REMARK    3  A    between atoms: C_5  and  C_6 
REMARK    4  A    between atoms: C_10  and  C_11 
REMARK    5  A    between atoms: C_11  and  O_12 
REMARK    6  A    between atoms: C_14  and  O_15 
REMARK    7  A    between atoms: C_22  and  N_23 
REMARK       I    between atoms: N_23  and  C_24 
REMARK    8  A    between atoms: C_24  and  C_25 
ROOT
HETATM    1  C   UNL     1      19.142  48.599  47.946  1.00  0.00     0.056 C 
HETATM    2  C   UNL     1      18.426  49.337  49.165  1.00  0.00    -0.030 C 
HETATM    3  C   UNL     1      17.952  48.273  50.210  1.00  0.00     0.016 C 
HETATM    4  C   UNL     1      17.135  50.155  48.724  1.00  0.00     0.012 C 
HETATM    5  C   UNL     1      17.337  51.615  48.130  1.00  0.00     0.008 C 
HETATM    6  C   UNL     1      16.092  52.449  48.568  1.00  0.00     0.020 C 
HETATM    7  C   UNL     1      18.585  52.314  48.754  1.00  0.00     0.128 C 
HETATM    8  C   UNL     1      18.994  51.692  50.086  1.00  0.00     0.033 C 
HETATM    9  C   UNL     1      19.460  50.252  49.891  1.00  0.00     0.013 C 
HETATM   10  C   UNL     1      16.113  49.284  47.944  1.00  0.00     0.055 C 
HETATM   11  C   UNL     1      16.785  48.361  46.998  1.00  0.00     0.012 A 
HETATM   12  C   UNL     1      18.118  48.004  47.006  1.00  0.00     0.056 A 
HETATM   13  N   UNL     1      18.471  47.066  46.046  1.00  0.00    -0.227 NA
HETATM   14  C   UNL     1      17.423  46.792  45.313  1.00  0.00     0.174 A 
HETATM   15  S   UNL     1      15.962  47.565  45.739  1.00  0.00    -0.055 SA
ENDROOT
BRANCH  14  16
HETATM   16  N   UNL     1      17.307  45.973  44.231  1.00  0.00    -0.300 N 
HETATM   17  C   UNL     1      16.971  44.646  44.322  1.00  0.00     0.281 C 
HETATM   18  O   UNL     1      16.657  44.053  45.347  1.00  0.00    -0.265 OA
HETATM   19  H   UNL     1      17.507  46.363  43.322  1.00  0.00     0.171 HD
BRANCH  17  20
HETATM   20  C   UNL     1      17.013  43.985  43.028  1.00  0.00     0.142 A 
HETATM   21  O   UNL     1      17.291  44.724  41.903  1.00  0.00    -0.317 OA
HETATM   22  C   UNL     1      17.280  43.869  40.850  1.00  0.00     0.143 A 
HETATM   23  C   UNL     1      16.996  42.591  41.267  1.00  0.00     0.027 A 
HETATM   24  C   UNL     1      16.823  42.664  42.671  1.00  0.00     0.045 A 
ENDBRANCH  17  20
ENDBRANCH  14  16
BRANCH   1  25
HETATM   25  C   UNL     1      20.180  47.553  48.406  1.00  0.00     0.114 C 
BRANCH  25  26
HETATM   26  C   UNL     1      21.581  47.812  47.887  1.00  0.00     0.218 C 
HETATM   27  N   UNL     1      22.282  48.776  48.562  1.00  0.00    -0.357 N 
HETATM   28  H   UNL     1      21.882  49.140  49.431  1.00  0.00     0.162 HD
HETATM   29  O   UNL     1      22.005  47.217  46.897  1.00  0.00    -0.274 OA
BRANCH  27  30
HETATM   30  C   UNL     1      23.565  49.323  48.148  1.00  0.00     0.076 C 
HETATM   31  C   UNL     1      24.696  48.856  49.063  1.00  0.00     0.032 C 
HETATM   32  C   UNL     1      23.547  50.842  48.007  1.00  0.00     0.032 C 
ENDBRANCH  27  30
ENDBRANCH  25  26
ENDBRANCH   1  25
BRANCH   5  33
HETATM   33  C   UNL     1      17.360  51.707  46.581  1.00  0.00     0.176 C 
BRANCH  33  34
HETATM   34  O   UNL     1      17.477  53.033  46.104  1.00  0.00    -0.400 OA
HETATM   35  H   UNL     1      16.958  53.579  46.735  1.00  0.00     0.209 HD
ENDBRANCH  33  34
ENDBRANCH   5  33
BRANCH   7  36
HETATM   36  O   UNL     1      19.705  52.264  47.864  1.00  0.00    -0.395 OA
HETATM   37  H   UNL     1      19.956  53.184  47.656  1.00  0.00     0.210 HD
ENDBRANCH   7  36
TORSDOF 8
ENDMDL
