MODEL 1
REMARK VINA RESULT:      -8.2      0.000      0.000
REMARK  8 active torsions:
REMARK  status: ('A' for Active; 'I' for Inactive)
REMARK    1  A    between atoms: C_2  and  O_3 
REMARK    2  A    between atoms: O_3  and  C_4 
REMARK    3  A    between atoms: C_4  and  C_5 
REMARK    4  A    between atoms: C_6  and  O_7 
REMARK    5  A    between atoms: C_6  and  C_8 
REMARK    6  A    between atoms: C_16  and  C_17 
REMARK    7  A    between atoms: C_18  and  C_19 
REMARK    8  A    between atoms: N_26  and  C_27 
ROOT
HETATM    1  C   UNL     1      18.067  48.141  47.269  1.00  0.00     0.177 C 
HETATM    2  C   UNL     1      16.863  47.235  47.000  1.00  0.00     0.250 C 
HETATM    3  N   UNL     1      17.233  45.837  46.874  1.00  0.00    -0.303 N 
HETATM    4  C   UNL     1      18.333  45.267  47.416  1.00  0.00     0.319 C 
HETATM    5  O   UNL     1      18.520  44.059  47.346  1.00  0.00    -0.247 OA
HETATM    6  N   UNL     1      19.218  46.096  48.014  1.00  0.00    -0.333 N 
HETATM    7  C   UNL     1      18.929  47.475  48.339  1.00  0.00     0.142 C 
HETATM    8  H   UNL     1      16.613  45.181  46.412  1.00  0.00     0.167 HD
HETATM    9  H   UNL     1      19.974  45.619  48.490  1.00  0.00     0.165 HD
ENDROOT
BRANCH   7  10
HETATM   10  C   UNL     1      20.217  48.183  48.640  1.00  0.00     0.015 A 
HETATM   11  C   UNL     1      20.433  49.561  48.950  1.00  0.00     0.097 A 
HETATM   12  N   UNL     1      21.729  49.802  49.190  1.00  0.00    -0.167 NA
HETATM   13  N   UNL     1      22.366  48.620  49.037  1.00  0.00    -0.244 N 
HETATM   14  C   UNL     1      21.479  47.621  48.720  1.00  0.00     0.130 A 
BRANCH  11  15
HETATM   15  C   UNL     1      19.462  50.649  49.071  1.00  0.00    -0.005 A 
HETATM   16  C   UNL     1      19.590  51.784  48.256  1.00  0.00     0.014 A 
HETATM   17  C   UNL     1      18.681  52.840  48.357  1.00  0.00     0.001 A 
HETATM   18  C   UNL     1      17.633  52.771  49.271  1.00  0.00     0.000 A 
HETATM   19  C   UNL     1      17.485  51.643  50.075  1.00  0.00     0.001 A 
HETATM   20  C   UNL     1      18.390  50.582  49.972  1.00  0.00     0.014 A 
ENDBRANCH  11  15
BRANCH  13  21
HETATM   21  C   UNL     1      23.775  48.521  49.211  1.00  0.00     0.058 A 
HETATM   22  C   UNL     1      24.299  47.493  50.012  1.00  0.00     0.031 A 
HETATM   23  C   UNL     1      25.678  47.373  50.194  1.00  0.00     0.002 A 
HETATM   24  C   UNL     1      26.543  48.278  49.582  1.00  0.00     0.000 A 
HETATM   25  C   UNL     1      26.031  49.303  48.788  1.00  0.00     0.002 A 
HETATM   26  C   UNL     1      24.652  49.428  48.601  1.00  0.00     0.031 A 
ENDBRANCH  13  21
ENDBRANCH   7  10
BRANCH   1  27
HETATM   27  C   UNL     1      18.835  48.432  46.001  1.00  0.00     0.270 C 
HETATM   28  O   UNL     1      19.363  47.594  45.288  1.00  0.00    -0.265 OA
BRANCH  27  29
HETATM   29  O   UNL     1      18.828  49.772  45.756  1.00  0.00    -0.321 OA
BRANCH  29  30
HETATM   30  C   UNL     1      18.498  50.168  44.414  1.00  0.00     0.174 C 
HETATM   31  C   UNL     1      17.709  51.465  44.411  1.00  0.00     0.034 C 
ENDBRANCH  29  30
ENDBRANCH  27  29
ENDBRANCH   1  27
BRANCH   2  32
HETATM   32  O   UNL     1      16.053  47.265  48.196  1.00  0.00    -0.363 OA
HETATM   33  H   UNL     1      15.291  46.686  48.015  1.00  0.00     0.213 HD
ENDBRANCH   2  32
BRANCH   2  34
HETATM   34  C   UNL     1      16.004  47.754  45.797  1.00  0.00     0.439 C 
HETATM   35  F   UNL     1      15.850  49.097  45.844  1.00  0.00    -0.166 F 
HETATM   36  F   UNL     1      16.524  47.443  44.594  1.00  0.00    -0.166 F 
HETATM   37  F   UNL     1      14.764  47.200  45.850  1.00  0.00    -0.166 F 
ENDBRANCH   2  34
TORSDOF 8
ENDMDL
MODEL 2
REMARK VINA RESULT:      -8.1      7.297     11.293
REMARK  8 active torsions:
REMARK  status: ('A' for Active; 'I' for Inactive)
REMARK    1  A    between atoms: C_2  and  O_3 
REMARK    2  A    between atoms: O_3  and  C_4 
REMARK    3  A    between atoms: C_4  and  C_5 
REMARK    4  A    between atoms: C_6  and  O_7 
REMARK    5  A    between atoms: C_6  and  C_8 
REMARK    6  A    between atoms: C_16  and  C_17 
REMARK    7  A    between atoms: C_18  and  C_19 
REMARK    8  A    between atoms: N_26  and  C_27 
ROOT
HETATM    1  C   UNL     1      25.764  44.067  50.928  1.00  0.00     0.177 C 
HETATM    2  C   UNL     1      25.136  44.660  49.665  1.00  0.00     0.250 C 
HETATM    3  N   UNL     1      25.831  45.847  49.201  1.00  0.00    -0.303 N 
HETATM    4  C   UNL     1      27.126  46.144  49.451  1.00  0.00     0.319 C 
HETATM    5  O   UNL     1      27.663  47.118  48.939  1.00  0.00    -0.247 OA
HETATM    6  N   UNL     1      27.784  45.330  50.306  1.00  0.00    -0.333 N 
HETATM    7  C   UNL     1      27.279  44.045  50.737  1.00  0.00     0.142 C 
HETATM    8  H   UNL     1      25.370  46.501  48.577  1.00  0.00     0.167 HD
HETATM    9  H   UNL     1      28.774  45.530  50.389  1.00  0.00     0.165 HD
ENDROOT
BRANCH   7  10
HETATM   10  C   UNL     1      28.059  43.595  51.937  1.00  0.00     0.015 A 
HETATM   11  C   UNL     1      28.572  42.296  52.238  1.00  0.00     0.097 A 
HETATM   12  N   UNL     1      29.246  42.303  53.397  1.00  0.00    -0.167 NA
HETATM   13  N   UNL     1      29.179  43.568  53.863  1.00  0.00    -0.244 N 
HETATM   14  C   UNL     1      28.483  44.375  52.998  1.00  0.00     0.130 A 
BRANCH  11  15
HETATM   15  C   UNL     1      28.489  41.060  51.458  1.00  0.00    -0.005 A 
HETATM   16  C   UNL     1      27.608  40.988  50.369  1.00  0.00     0.014 A 
HETATM   17  C   UNL     1      27.503  39.818  49.613  1.00  0.00     0.001 A 
HETATM   18  C   UNL     1      28.282  38.709  49.935  1.00  0.00     0.000 A 
HETATM   19  C   UNL     1      29.173  38.773  51.005  1.00  0.00     0.001 A 
HETATM   20  C   UNL     1      29.283  39.945  51.759  1.00  0.00     0.014 A 
ENDBRANCH  11  15
BRANCH  13  21
HETATM   21  C   UNL     1      29.791  43.926  55.098  1.00  0.00     0.058 A 
HETATM   22  C   UNL     1      29.427  45.131  55.722  1.00  0.00     0.031 A 
HETATM   23  C   UNL     1      30.010  45.500  56.935  1.00  0.00     0.002 A 
HETATM   24  C   UNL     1      30.961  44.675  57.533  1.00  0.00     0.000 A 
HETATM   25  C   UNL     1      31.330  43.479  56.918  1.00  0.00     0.002 A 
HETATM   26  C   UNL     1      30.749  43.102  55.704  1.00  0.00     0.031 A 
ENDBRANCH  13  21
ENDBRANCH   7  10
BRANCH   1  27
HETATM   27  C   UNL     1      25.345  44.826  52.165  1.00  0.00     0.270 C 
HETATM   28  O   UNL     1      25.446  46.032  52.320  1.00  0.00    -0.265 OA
BRANCH  27  29
HETATM   29  O   UNL     1      24.808  43.966  53.075  1.00  0.00    -0.321 OA
BRANCH  29  30
HETATM   30  C   UNL     1      24.991  44.312  54.458  1.00  0.00     0.174 C 
HETATM   31  C   UNL     1      25.900  43.313  55.149  1.00  0.00     0.034 C 
ENDBRANCH  29  30
ENDBRANCH  27  29
ENDBRANCH   1  27
BRANCH   2  32
HETATM   32  O   UNL     1      25.360  43.701  48.608  1.00  0.00    -0.363 OA
HETATM   33  H   UNL     1      26.215  43.943  48.207  1.00  0.00     0.213 HD
ENDBRANCH   2  32
BRANCH   2  34
HETATM   34  C   UNL     1      23.594  44.876  49.830  1.00  0.00     0.439 C 
HETATM   35  F   UNL     1      23.068  44.011  50.727  1.00  0.00    -0.166 F 
HETATM   36  F   UNL     1      23.267  46.122  50.224  1.00  0.00    -0.166 F 
HETATM   37  F   UNL     1      22.972  44.658  48.642  1.00  0.00    -0.166 F 
ENDBRANCH   2  34
TORSDOF 8
ENDMDL
MODEL 3
REMARK VINA RESULT:      -8.1      5.334      7.915
REMARK  8 active torsions:
REMARK  status: ('A' for Active; 'I' for Inactive)
REMARK    1  A    between atoms: C_2  and  O_3 
REMARK    2  A    between atoms: O_3  and  C_4 
REMARK    3  A    between atoms: C_4  and  C_5 
REMARK    4  A    between atoms: C_6  and  O_7 
REMARK    5  A    between atoms: C_6  and  C_8 
REMARK    6  A    between atoms: C_16  and  C_17 
REMARK    7  A    between atoms: C_18  and  C_19 
REMARK    8  A    between atoms: N_26  and  C_27 
ROOT
HETATM    1  C   UNL     1      24.620  43.807  48.875  1.00  0.00     0.177 C 
HETATM    2  C   UNL     1      23.646  43.197  47.865  1.00  0.00     0.250 C 
HETATM    3  N   UNL     1      22.257  43.437  48.212  1.00  0.00    -0.303 N 
HETATM    4  C   UNL     1      21.807  44.461  48.970  1.00  0.00     0.319 C 
HETATM    5  O   UNL     1      20.608  44.648  49.134  1.00  0.00    -0.247 OA
HETATM    6  N   UNL     1      22.740  45.247  49.553  1.00  0.00    -0.333 N 
HETATM    7  C   UNL     1      24.142  45.222  49.197  1.00  0.00     0.142 C 
HETATM    8  H   UNL     1      21.523  42.858  47.820  1.00  0.00     0.167 HD
HETATM    9  H   UNL     1      22.361  46.056  50.029  1.00  0.00     0.165 HD
ENDROOT
BRANCH   7  10
HETATM   10  C   UNL     1      24.926  45.924  50.265  1.00  0.00     0.015 A 
HETATM   11  C   UNL     1      25.262  47.309  50.368  1.00  0.00     0.097 A 
HETATM   12  N   UNL     1      25.949  47.554  51.492  1.00  0.00    -0.167 NA
HETATM   13  N   UNL     1      26.078  46.366  52.121  1.00  0.00    -0.244 N 
HETATM   14  C   UNL     1      25.459  45.365  51.414  1.00  0.00     0.130 A 
BRANCH  11  15
HETATM   15  C   UNL     1      24.925  48.416  49.472  1.00  0.00    -0.005 A 
HETATM   16  C   UNL     1      23.582  48.791  49.311  1.00  0.00     0.014 A 
HETATM   17  C   UNL     1      23.232  49.839  48.456  1.00  0.00     0.001 A 
HETATM   18  C   UNL     1      24.221  50.525  47.755  1.00  0.00     0.000 A 
HETATM   19  C   UNL     1      25.560  50.172  47.918  1.00  0.00     0.001 A 
HETATM   20  C   UNL     1      25.912  49.128  48.778  1.00  0.00     0.014 A 
ENDBRANCH  11  15
BRANCH  13  21
HETATM   21  C   UNL     1      26.775  46.264  53.358  1.00  0.00     0.058 A 
HETATM   22  C   UNL     1      27.356  45.038  53.722  1.00  0.00     0.031 A 
HETATM   23  C   UNL     1      28.048  44.915  54.928  1.00  0.00     0.002 A 
HETATM   24  C   UNL     1      28.164  46.012  55.780  1.00  0.00     0.000 A 
HETATM   25  C   UNL     1      27.588  47.232  55.427  1.00  0.00     0.002 A 
HETATM   26  C   UNL     1      26.895  47.362  54.221  1.00  0.00     0.031 A 
ENDBRANCH  13  21
ENDBRANCH   7  10
BRANCH   1  27
HETATM   27  C   UNL     1      24.752  42.944  50.109  1.00  0.00     0.270 C 
HETATM   28  O   UNL     1      23.856  42.706  50.902  1.00  0.00    -0.265 OA
BRANCH  27  29
HETATM   29  O   UNL     1      26.018  42.447  50.189  1.00  0.00    -0.321 OA
BRANCH  29  30
HETATM   30  C   UNL     1      26.196  41.303  51.041  1.00  0.00     0.174 C 
HETATM   31  C   UNL     1      26.329  40.034  50.221  1.00  0.00     0.034 C 
ENDBRANCH  29  30
ENDBRANCH  27  29
ENDBRANCH   1  27
BRANCH   2  32
HETATM   32  O   UNL     1      23.820  43.932  46.634  1.00  0.00    -0.363 OA
HETATM   33  H   UNL     1      23.110  44.600  46.621  1.00  0.00     0.213 HD
ENDBRANCH   2  32
BRANCH   2  34
HETATM   34  C   UNL     1      23.960  41.686  47.597  1.00  0.00     0.439 C 
HETATM   35  F   UNL     1      25.287  41.478  47.440  1.00  0.00    -0.166 F 
HETATM   36  F   UNL     1      23.531  40.868  48.578  1.00  0.00    -0.166 F 
HETATM   37  F   UNL     1      23.347  41.288  46.452  1.00  0.00    -0.166 F 
ENDBRANCH   2  34
TORSDOF 8
ENDMDL
MODEL 4
REMARK VINA RESULT:      -7.6      5.418      8.738
REMARK  8 active torsions:
REMARK  status: ('A' for Active; 'I' for Inactive)
REMARK    1  A    between atoms: C_2  and  O_3 
REMARK    2  A    between atoms: O_3  and  C_4 
REMARK    3  A    between atoms: C_4  and  C_5 
REMARK    4  A    between atoms: C_6  and  O_7 
REMARK    5  A    between atoms: C_6  and  C_8 
REMARK    6  A    between atoms: C_16  and  C_17 
REMARK    7  A    between atoms: C_18  and  C_19 
REMARK    8  A    between atoms: N_26  and  C_27 
ROOT
HETATM    1  C   UNL     1      25.411  45.135  50.245  1.00  0.00     0.177 C 
HETATM    2  C   UNL     1      26.140  43.797  50.105  1.00  0.00     0.250 C 
HETATM    3  N   UNL     1      25.249  42.711  49.740  1.00  0.00    -0.303 N 
HETATM    4  C   UNL     1      24.072  42.850  49.089  1.00  0.00     0.319 C 
HETATM    5  O   UNL     1      23.427  41.873  48.731  1.00  0.00    -0.247 OA
HETATM    6  N   UNL     1      23.637  44.112  48.878  1.00  0.00    -0.333 N 
HETATM    7  C   UNL     1      24.466  45.285  49.055  1.00  0.00     0.142 C 
HETATM    8  H   UNL     1      25.520  41.748  49.902  1.00  0.00     0.167 HD
HETATM    9  H   UNL     1      22.804  44.172  48.304  1.00  0.00     0.165 HD
ENDROOT
BRANCH   7  10
HETATM   10  C   UNL     1      23.586  46.499  49.100  1.00  0.00     0.015 A 
HETATM   11  C   UNL     1      23.959  47.878  49.109  1.00  0.00     0.097 A 
HETATM   12  N   UNL     1      22.877  48.668  49.119  1.00  0.00    -0.167 NA
HETATM   13  N   UNL     1      21.808  47.842  49.124  1.00  0.00    -0.244 N 
HETATM   14  C   UNL     1      22.202  46.528  49.097  1.00  0.00     0.130 A 
BRANCH  11  15
HETATM   15  C   UNL     1      25.292  48.480  49.066  1.00  0.00    -0.005 A 
HETATM   16  C   UNL     1      25.483  49.692  48.385  1.00  0.00     0.014 A 
HETATM   17  C   UNL     1      26.747  50.283  48.323  1.00  0.00     0.001 A 
HETATM   18  C   UNL     1      27.833  49.671  48.943  1.00  0.00     0.000 A 
HETATM   19  C   UNL     1      27.654  48.475  49.636  1.00  0.00     0.001 A 
HETATM   20  C   UNL     1      26.389  47.885  49.704  1.00  0.00     0.014 A 
ENDBRANCH  11  15
BRANCH  13  21
HETATM   21  C   UNL     1      20.483  48.361  49.146  1.00  0.00     0.058 A 
HETATM   22  C   UNL     1      19.395  47.475  49.077  1.00  0.00     0.031 A 
HETATM   23  C   UNL     1      18.087  47.960  49.101  1.00  0.00     0.002 A 
HETATM   24  C   UNL     1      17.853  49.331  49.190  1.00  0.00     0.000 A 
HETATM   25  C   UNL     1      18.927  50.218  49.255  1.00  0.00     0.002 A 
HETATM   26  C   UNL     1      20.239  49.739  49.233  1.00  0.00     0.031 A 
ENDBRANCH  13  21
ENDBRANCH   7  10
BRANCH   1  27
HETATM   27  C   UNL     1      24.698  45.241  51.573  1.00  0.00     0.270 C 
HETATM   28  O   UNL     1      23.871  44.449  51.993  1.00  0.00    -0.265 OA
BRANCH  27  29
HETATM   29  O   UNL     1      25.136  46.342  52.245  1.00  0.00    -0.321 OA
BRANCH  29  30
HETATM   30  C   UNL     1      25.671  46.110  53.559  1.00  0.00     0.174 C 
HETATM   31  C   UNL     1      26.082  47.416  54.214  1.00  0.00     0.034 C 
ENDBRANCH  29  30
ENDBRANCH  27  29
ENDBRANCH   1  27
BRANCH   2  32
HETATM   32  O   UNL     1      27.009  43.923  48.958  1.00  0.00    -0.363 OA
HETATM   33  H   UNL     1      26.558  43.456  48.231  1.00  0.00     0.213 HD
ENDBRANCH   2  32
BRANCH   2  34
HETATM   34  C   UNL     1      27.014  43.478  51.365  1.00  0.00     0.439 C 
HETATM   35  F   UNL     1      27.703  44.566  51.777  1.00  0.00    -0.166 F 
HETATM   36  F   UNL     1      26.297  43.026  52.413  1.00  0.00    -0.166 F 
HETATM   37  F   UNL     1      27.921  42.514  51.060  1.00  0.00    -0.166 F 
ENDBRANCH   2  34
TORSDOF 8
ENDMDL
MODEL 5
REMARK VINA RESULT:      -7.4      2.723      5.537
REMARK  8 active torsions:
REMARK  status: ('A' for Active; 'I' for Inactive)
REMARK    1  A    between atoms: C_2  and  O_3 
REMARK    2  A    between atoms: O_3  and  C_4 
REMARK    3  A    between atoms: C_4  and  C_5 
REMARK    4  A    between atoms: C_6  and  O_7 
REMARK    5  A    between atoms: C_6  and  C_8 
REMARK    6  A    between atoms: C_16  and  C_17 
REMARK    7  A    between atoms: C_18  and  C_19 
REMARK    8  A    between atoms: N_26  and  C_27 
ROOT
HETATM    1  C   UNL     1      19.708  49.815  48.466  1.00  0.00     0.177 C 
HETATM    2  C   UNL     1      19.101  50.844  49.422  1.00  0.00     0.250 C 
HETATM    3  N   UNL     1      18.450  50.228  50.565  1.00  0.00    -0.303 N 
HETATM    4  C   UNL     1      18.741  49.007  51.067  1.00  0.00     0.319 C 
HETATM    5  O   UNL     1      18.213  48.603  52.094  1.00  0.00    -0.247 OA
HETATM    6  N   UNL     1      19.620  48.254  50.368  1.00  0.00    -0.333 N 
HETATM    7  C   UNL     1      20.448  48.772  49.302  1.00  0.00     0.142 C 
HETATM    8  H   UNL     1      17.765  50.745  51.105  1.00  0.00     0.167 HD
HETATM    9  H   UNL     1      19.882  47.391  50.829  1.00  0.00     0.165 HD
ENDROOT
BRANCH   7  10
HETATM   10  C   UNL     1      21.009  47.621  48.520  1.00  0.00     0.015 A 
HETATM   11  C   UNL     1      22.360  47.381  48.121  1.00  0.00     0.097 A 
HETATM   12  N   UNL     1      22.466  46.220  47.460  1.00  0.00    -0.167 NA
HETATM   13  N   UNL     1      21.220  45.700  47.411  1.00  0.00    -0.244 N 
HETATM   14  C   UNL     1      20.322  46.515  48.054  1.00  0.00     0.130 A 
BRANCH  11  15
HETATM   15  C   UNL     1      23.559  48.180  48.375  1.00  0.00    -0.005 A 
HETATM   16  C   UNL     1      23.667  49.462  47.815  1.00  0.00     0.014 A 
HETATM   17  C   UNL     1      24.805  50.243  48.035  1.00  0.00     0.001 A 
HETATM   18  C   UNL     1      25.845  49.751  48.819  1.00  0.00     0.000 A 
HETATM   19  C   UNL     1      25.744  48.485  49.393  1.00  0.00     0.001 A 
HETATM   20  C   UNL     1      24.604  47.705  49.179  1.00  0.00     0.014 A 
ENDBRANCH  11  15
BRANCH  13  21
HETATM   21  C   UNL     1      20.971  44.459  46.760  1.00  0.00     0.058 A 
HETATM   22  C   UNL     1      21.914  43.424  46.867  1.00  0.00     0.031 A 
HETATM   23  C   UNL     1      21.689  42.197  46.241  1.00  0.00     0.002 A 
HETATM   24  C   UNL     1      20.525  41.994  45.502  1.00  0.00     0.000 A 
HETATM   25  C   UNL     1      19.586  43.017  45.388  1.00  0.00     0.002 A 
HETATM   26  C   UNL     1      19.804  44.248  46.013  1.00  0.00     0.031 A 
ENDBRANCH  13  21
ENDBRANCH   7  10
BRANCH   1  27
HETATM   27  C   UNL     1      18.657  49.203  47.570  1.00  0.00     0.270 C 
HETATM   28  O   UNL     1      17.660  48.614  47.953  1.00  0.00    -0.265 OA
BRANCH  27  29
HETATM   29  O   UNL     1      18.975  49.431  46.265  1.00  0.00    -0.321 OA
BRANCH  29  30
HETATM   30  C   UNL     1      17.888  49.812  45.406  1.00  0.00     0.174 C 
HETATM   31  C   UNL     1      18.331  50.866  44.408  1.00  0.00     0.034 C 
ENDBRANCH  29  30
ENDBRANCH  27  29
ENDBRANCH   1  27
BRANCH   2  32
HETATM   32  O   UNL     1      20.209  51.561  50.009  1.00  0.00    -0.363 OA
HETATM   33  H   UNL     1      21.003  51.033  49.807  1.00  0.00     0.213 HD
ENDBRANCH   2  32
BRANCH   2  34
HETATM   34  C   UNL     1      18.183  51.865  48.668  1.00  0.00     0.439 C 
HETATM   35  F   UNL     1      18.743  52.267  47.505  1.00  0.00    -0.166 F 
HETATM   36  F   UNL     1      16.959  51.377  48.386  1.00  0.00    -0.166 F 
HETATM   37  F   UNL     1      18.002  52.970  49.437  1.00  0.00    -0.166 F 
ENDBRANCH   2  34
TORSDOF 8
ENDMDL
MODEL 6
REMARK VINA RESULT:      -7.4      8.279     11.113
REMARK  8 active torsions:
REMARK  status: ('A' for Active; 'I' for Inactive)
REMARK    1  A    between atoms: C_2  and  O_3 
REMARK    2  A    between atoms: O_3  and  C_4 
REMARK    3  A    between atoms: C_4  and  C_5 
REMARK    4  A    between atoms: C_6  and  O_7 
REMARK    5  A    between atoms: C_6  and  C_8 
REMARK    6  A    between atoms: C_16  and  C_17 
REMARK    7  A    between atoms: C_18  and  C_19 
REMARK    8  A    between atoms: N_26  and  C_27 
ROOT
HETATM    1  C   UNL     1      26.413  40.485  48.299  1.00  0.00     0.177 C 
HETATM    2  C   UNL     1      25.969  39.219  47.564  1.00  0.00     0.250 C 
HETATM    3  N   UNL     1      26.280  38.007  48.301  1.00  0.00    -0.303 N 
HETATM    4  C   UNL     1      26.440  37.926  49.641  1.00  0.00     0.319 C 
HETATM    5  O   UNL     1      26.603  36.846  50.195  1.00  0.00    -0.247 OA
HETATM    6  N   UNL     1      26.434  39.090  50.328  1.00  0.00    -0.333 N 
HETATM    7  C   UNL     1      26.003  40.350  49.764  1.00  0.00     0.142 C 
HETATM    8  H   UNL     1      26.321  37.113  47.825  1.00  0.00     0.167 HD
HETATM    9  H   UNL     1      26.458  38.976  51.335  1.00  0.00     0.165 HD
ENDROOT
BRANCH   7  10
HETATM   10  C   UNL     1      26.468  41.465  50.654  1.00  0.00     0.015 A 
HETATM   11  C   UNL     1      25.941  42.786  50.788  1.00  0.00     0.097 A 
HETATM   12  N   UNL     1      26.614  43.479  51.716  1.00  0.00    -0.167 NA
HETATM   13  N   UNL     1      27.570  42.650  52.186  1.00  0.00    -0.244 N 
HETATM   14  C   UNL     1      27.499  41.422  51.576  1.00  0.00     0.130 A 
BRANCH  11  15
HETATM   15  C   UNL     1      24.803  43.405  50.106  1.00  0.00    -0.005 A 
HETATM   16  C   UNL     1      25.026  44.452  49.199  1.00  0.00     0.014 A 
HETATM   17  C   UNL     1      23.958  45.065  48.541  1.00  0.00     0.001 A 
HETATM   18  C   UNL     1      22.654  44.637  48.782  1.00  0.00     0.000 A 
HETATM   19  C   UNL     1      22.420  43.589  49.669  1.00  0.00     0.001 A 
HETATM   20  C   UNL     1      23.489  42.969  50.324  1.00  0.00     0.014 A 
ENDBRANCH  11  15
BRANCH  13  21
HETATM   21  C   UNL     1      28.483  43.079  53.190  1.00  0.00     0.058 A 
HETATM   22  C   UNL     1      28.087  44.073  54.101  1.00  0.00     0.031 A 
HETATM   23  C   UNL     1      28.964  44.507  55.096  1.00  0.00     0.002 A 
HETATM   24  C   UNL     1      30.241  43.958  55.189  1.00  0.00     0.000 A 
HETATM   25  C   UNL     1      30.643  42.974  54.287  1.00  0.00     0.002 A 
HETATM   26  C   UNL     1      29.770  42.533  53.288  1.00  0.00     0.031 A 
ENDBRANCH  13  21
ENDBRANCH   7  10
BRANCH   1  27
HETATM   27  C   UNL     1      27.894  40.732  48.131  1.00  0.00     0.270 C 
HETATM   28  O   UNL     1      28.393  41.510  47.334  1.00  0.00    -0.265 OA
BRANCH  27  29
HETATM   29  O   UNL     1      28.592  39.976  49.024  1.00  0.00    -0.321 OA
BRANCH  29  30
HETATM   30  C   UNL     1      29.628  39.144  48.476  1.00  0.00     0.174 C 
HETATM   31  C   UNL     1      30.111  38.135  49.502  1.00  0.00     0.034 C 
ENDBRANCH  29  30
ENDBRANCH  27  29
ENDBRANCH   1  27
BRANCH   2  32
HETATM   32  O   UNL     1      24.525  39.242  47.545  1.00  0.00    -0.363 OA
HETATM   33  H   UNL     1      24.259  38.614  46.849  1.00  0.00     0.213 HD
ENDBRANCH   2  32
BRANCH   2  34
HETATM   34  C   UNL     1      26.492  39.191  46.088  1.00  0.00     0.439 C 
HETATM   35  F   UNL     1      26.391  40.408  45.506  1.00  0.00    -0.166 F 
HETATM   36  F   UNL     1      27.774  38.791  45.982  1.00  0.00    -0.166 F 
HETATM   37  F   UNL     1      25.744  38.326  45.355  1.00  0.00    -0.166 F 
ENDBRANCH   2  34
TORSDOF 8
ENDMDL
MODEL 7
REMARK VINA RESULT:      -7.3      7.487     10.937
REMARK  8 active torsions:
REMARK  status: ('A' for Active; 'I' for Inactive)
REMARK    1  A    between atoms: C_2  and  O_3 
REMARK    2  A    between atoms: O_3  and  C_4 
REMARK    3  A    between atoms: C_4  and  C_5 
REMARK    4  A    between atoms: C_6  and  O_7 
REMARK    5  A    between atoms: C_6  and  C_8 
REMARK    6  A    between atoms: C_16  and  C_17 
REMARK    7  A    between atoms: C_18  and  C_19 
REMARK    8  A    between atoms: N_26  and  C_27 
ROOT
HETATM    1  C   UNL     1      26.358  45.060  51.398  1.00  0.00     0.177 C 
HETATM    2  C   UNL     1      25.104  45.937  51.432  1.00  0.00     0.250 C 
HETATM    3  N   UNL     1      23.897  45.198  51.104  1.00  0.00    -0.303 N 
HETATM    4  C   UNL     1      23.730  43.865  51.257  1.00  0.00     0.319 C 
HETATM    5  O   UNL     1      22.647  43.335  51.049  1.00  0.00    -0.247 OA
HETATM    6  N   UNL     1      24.818  43.152  51.625  1.00  0.00    -0.333 N 
HETATM    7  C   UNL     1      26.039  43.752  52.118  1.00  0.00     0.142 C 
HETATM    8  H   UNL     1      23.063  45.687  50.799  1.00  0.00     0.167 HD
HETATM    9  H   UNL     1      24.626  42.178  51.823  1.00  0.00     0.165 HD
ENDROOT
BRANCH   7  10
HETATM   10  C   UNL     1      27.134  42.727  52.076  1.00  0.00     0.015 A 
HETATM   11  C   UNL     1      28.320  42.648  52.869  1.00  0.00     0.097 A 
HETATM   12  N   UNL     1      29.037  41.561  52.553  1.00  0.00    -0.167 NA
HETATM   13  N   UNL     1      28.355  40.933  51.570  1.00  0.00    -0.244 N 
HETATM   14  C   UNL     1      27.195  41.604  51.270  1.00  0.00     0.130 A 
BRANCH  11  15
HETATM   15  C   UNL     1      28.782  43.531  53.940  1.00  0.00    -0.005 A 
HETATM   16  C   UNL     1      30.013  43.278  54.563  1.00  0.00     0.014 A 
HETATM   17  C   UNL     1      30.474  44.102  55.593  1.00  0.00     0.001 A 
HETATM   18  C   UNL     1      29.709  45.189  56.009  1.00  0.00     0.000 A 
HETATM   19  C   UNL     1      28.492  45.461  55.389  1.00  0.00     0.001 A 
HETATM   20  C   UNL     1      28.032  44.641  54.353  1.00  0.00     0.014 A 
ENDBRANCH  11  15
BRANCH  13  21
HETATM   21  C   UNL     1      28.850  39.732  50.988  1.00  0.00     0.058 A 
HETATM   22  C   UNL     1      28.617  39.480  49.626  1.00  0.00     0.031 A 
HETATM   23  C   UNL     1      29.096  38.311  49.033  1.00  0.00     0.002 A 
HETATM   24  C   UNL     1      29.808  37.384  49.792  1.00  0.00     0.000 A 
HETATM   25  C   UNL     1      30.041  37.626  51.145  1.00  0.00     0.002 A 
HETATM   26  C   UNL     1      29.565  38.795  51.746  1.00  0.00     0.031 A 
ENDBRANCH  13  21
ENDBRANCH   7  10
BRANCH   1  27
HETATM   27  C   UNL     1      26.845  44.843  49.985  1.00  0.00     0.270 C 
HETATM   28  O   UNL     1      27.936  45.178  49.556  1.00  0.00    -0.265 OA
BRANCH  27  29
HETATM   29  O   UNL     1      25.890  44.190  49.264  1.00  0.00    -0.321 OA
BRANCH  29  30
HETATM   30  C   UNL     1      26.305  42.973  48.620  1.00  0.00     0.174 C 
HETATM   31  C   UNL     1      25.107  42.110  48.273  1.00  0.00     0.034 C 
ENDBRANCH  29  30
ENDBRANCH  27  29
ENDBRANCH   1  27
BRANCH   2  32
HETATM   32  O   UNL     1      24.905  46.314  52.812  1.00  0.00    -0.363 OA
HETATM   33  H   UNL     1      24.521  47.210  52.789  1.00  0.00     0.213 HD
ENDBRANCH   2  32
BRANCH   2  34
HETATM   34  C   UNL     1      25.281  47.236  50.574  1.00  0.00     0.439 C 
HETATM   35  F   UNL     1      26.416  47.893  50.903  1.00  0.00    -0.166 F 
HETATM   36  F   UNL     1      25.313  47.002  49.248  1.00  0.00    -0.166 F 
HETATM   37  F   UNL     1      24.241  48.079  50.804  1.00  0.00    -0.166 F 
ENDBRANCH   2  34
TORSDOF 8
ENDMDL
MODEL 8
REMARK VINA RESULT:      -7.1      3.469      7.278
REMARK  8 active torsions:
REMARK  status: ('A' for Active; 'I' for Inactive)
REMARK    1  A    between atoms: C_2  and  O_3 
REMARK    2  A    between atoms: O_3  and  C_4 
REMARK    3  A    between atoms: C_4  and  C_5 
REMARK    4  A    between atoms: C_6  and  O_7 
REMARK    5  A    between atoms: C_6  and  C_8 
REMARK    6  A    between atoms: C_16  and  C_17 
REMARK    7  A    between atoms: C_18  and  C_19 
REMARK    8  A    between atoms: N_26  and  C_27 
ROOT
HETATM    1  C   UNL     1      18.591  48.510  48.044  1.00  0.00     0.177 C 
HETATM    2  C   UNL     1      19.308  47.437  48.867  1.00  0.00     0.250 C 
HETATM    3  N   UNL     1      19.372  47.767  50.280  1.00  0.00    -0.303 N 
HETATM    4  C   UNL     1      18.513  48.581  50.932  1.00  0.00     0.319 C 
HETATM    5  O   UNL     1      18.578  48.729  52.146  1.00  0.00    -0.247 OA
HETATM    6  N   UNL     1      17.602  49.237  50.179  1.00  0.00    -0.333 N 
HETATM    7  C   UNL     1      17.325  48.914  48.796  1.00  0.00     0.142 C 
HETATM    8  H   UNL     1      20.054  47.319  50.881  1.00  0.00     0.167 HD
HETATM    9  H   UNL     1      16.919  49.758  50.716  1.00  0.00     0.165 HD
ENDROOT
BRANCH   7  10
HETATM   10  C   UNL     1      16.559  50.046  48.177  1.00  0.00     0.015 A 
HETATM   11  C   UNL     1      16.001  50.140  46.865  1.00  0.00     0.097 A 
HETATM   12  N   UNL     1      15.359  51.305  46.700  1.00  0.00    -0.167 NA
HETATM   13  N   UNL     1      15.489  51.975  47.865  1.00  0.00    -0.244 N 
HETATM   14  C   UNL     1      16.195  51.236  48.781  1.00  0.00     0.130 A 
BRANCH  11  15
HETATM   15  C   UNL     1      16.013  49.161  45.778  1.00  0.00    -0.005 A 
HETATM   16  C   UNL     1      15.017  48.174  45.725  1.00  0.00     0.014 A 
HETATM   17  C   UNL     1      15.010  47.222  44.702  1.00  0.00     0.001 A 
HETATM   18  C   UNL     1      15.997  47.249  43.720  1.00  0.00     0.000 A 
HETATM   19  C   UNL     1      16.983  48.233  43.753  1.00  0.00     0.001 A 
HETATM   20  C   UNL     1      16.988  49.190  44.772  1.00  0.00     0.014 A 
ENDBRANCH  11  15
BRANCH  13  21
HETATM   21  C   UNL     1      14.925  53.272  48.030  1.00  0.00     0.058 A 
HETATM   22  C   UNL     1      14.311  53.900  46.933  1.00  0.00     0.031 A 
HETATM   23  C   UNL     1      13.749  55.170  47.072  1.00  0.00     0.002 A 
HETATM   24  C   UNL     1      13.796  55.823  48.302  1.00  0.00     0.000 A 
HETATM   25  C   UNL     1      14.406  55.208  49.395  1.00  0.00     0.002 A 
HETATM   26  C   UNL     1      14.970  53.936  49.263  1.00  0.00     0.031 A 
ENDBRANCH  13  21
ENDBRANCH   7  10
BRANCH   1  27
HETATM   27  C   UNL     1      19.496  49.684  47.756  1.00  0.00     0.270 C 
HETATM   28  O   UNL     1      19.780  50.099  46.644  1.00  0.00    -0.265 OA
BRANCH  27  29
HETATM   29  O   UNL     1      19.928  50.231  48.926  1.00  0.00    -0.321 OA
BRANCH  29  30
HETATM   30  C   UNL     1      20.742  51.410  48.812  1.00  0.00     0.174 C 
HETATM   31  C   UNL     1      22.216  51.049  48.792  1.00  0.00     0.034 C 
ENDBRANCH  29  30
ENDBRANCH  27  29
ENDBRANCH   1  27
BRANCH   2  32
HETATM   32  O   UNL     1      18.467  46.263  48.830  1.00  0.00    -0.363 OA
HETATM   33  H   UNL     1      18.072  46.192  49.718  1.00  0.00     0.213 HD
ENDBRANCH   2  32
BRANCH   2  34
HETATM   34  C   UNL     1      20.705  47.075  48.257  1.00  0.00     0.439 C 
HETATM   35  F   UNL     1      20.712  47.231  46.914  1.00  0.00    -0.166 F 
HETATM   36  F   UNL     1      21.715  47.812  48.759  1.00  0.00    -0.166 F 
HETATM   37  F   UNL     1      20.994  45.774  48.518  1.00  0.00    -0.166 F 
ENDBRANCH   2  34
TORSDOF 8
ENDMDL
MODEL 9
REMARK VINA RESULT:      -7.1      2.248      3.735
REMARK  8 active torsions:
REMARK  status: ('A' for Active; 'I' for Inactive)
REMARK    1  A    between atoms: C_2  and  O_3 
REMARK    2  A    between atoms: O_3  and  C_4 
REMARK    3  A    between atoms: C_4  and  C_5 
REMARK    4  A    between atoms: C_6  and  O_7 
REMARK    5  A    between atoms: C_6  and  C_8 
REMARK    6  A    between atoms: C_16  and  C_17 
REMARK    7  A    between atoms: C_18  and  C_19 
REMARK    8  A    between atoms: N_26  and  C_27 
ROOT
HETATM    1  C   UNL     1      20.234  46.354  46.589  1.00  0.00     0.177 C 
HETATM    2  C   UNL     1      18.914  45.725  46.137  1.00  0.00     0.250 C 
HETATM    3  N   UNL     1      17.873  45.827  47.145  1.00  0.00    -0.303 N 
HETATM    4  C   UNL     1      17.817  46.764  48.118  1.00  0.00     0.319 C 
HETATM    5  O   UNL     1      16.852  46.840  48.868  1.00  0.00    -0.247 OA
HETATM    6  N   UNL     1      18.881  47.588  48.235  1.00  0.00    -0.333 N 
HETATM    7  C   UNL     1      19.919  47.702  47.233  1.00  0.00     0.142 C 
HETATM    8  H   UNL     1      17.067  45.214  47.114  1.00  0.00     0.167 HD
HETATM    9  H   UNL     1      18.756  48.333  48.909  1.00  0.00     0.165 HD
ENDROOT
BRANCH   7  10
HETATM   10  C   UNL     1      21.101  48.402  47.836  1.00  0.00     0.015 A 
HETATM   11  C   UNL     1      21.148  49.658  48.517  1.00  0.00     0.097 A 
HETATM   12  N   UNL     1      22.391  49.928  48.940  1.00  0.00    -0.167 NA
HETATM   13  N   UNL     1      23.156  48.886  48.548  1.00  0.00    -0.244 N 
HETATM   14  C   UNL     1      22.404  47.942  47.893  1.00  0.00     0.130 A 
BRANCH  11  15
HETATM   15  C   UNL     1      20.063  50.592  48.819  1.00  0.00    -0.005 A 
HETATM   16  C   UNL     1      19.205  50.330  49.898  1.00  0.00     0.014 A 
HETATM   17  C   UNL     1      18.157  51.202  50.203  1.00  0.00     0.001 A 
HETATM   18  C   UNL     1      17.957  52.346  49.435  1.00  0.00     0.000 A 
HETATM   19  C   UNL     1      18.811  52.626  48.371  1.00  0.00     0.001 A 
HETATM   20  C   UNL     1      19.865  51.758  48.067  1.00  0.00     0.014 A 
ENDBRANCH  11  15
BRANCH  13  21
HETATM   21  C   UNL     1      24.551  48.856  48.831  1.00  0.00     0.058 A 
HETATM   22  C   UNL     1      25.387  49.839  48.277  1.00  0.00     0.031 A 
HETATM   23  C   UNL     1      26.757  49.832  48.544  1.00  0.00     0.002 A 
HETATM   24  C   UNL     1      27.304  48.844  49.360  1.00  0.00     0.000 A 
HETATM   25  C   UNL     1      26.481  47.862  49.911  1.00  0.00     0.002 A 
HETATM   26  C   UNL     1      25.108  47.864  49.650  1.00  0.00     0.031 A 
ENDBRANCH  13  21
ENDBRANCH   7  10
BRANCH   1  27
HETATM   27  C   UNL     1      21.000  45.433  47.510  1.00  0.00     0.270 C 
HETATM   28  O   UNL     1      20.647  45.105  48.631  1.00  0.00    -0.265 OA
BRANCH  27  29
HETATM   29  O   UNL     1      22.133  45.000  46.890  1.00  0.00    -0.321 OA
BRANCH  29  30
HETATM   30  C   UNL     1      22.859  43.954  47.557  1.00  0.00     0.174 C 
HETATM   31  C   UNL     1      22.577  42.607  46.917  1.00  0.00     0.034 C 
ENDBRANCH  29  30
ENDBRANCH  27  29
ENDBRANCH   1  27
BRANCH   2  32
HETATM   32  O   UNL     1      18.420  46.544  45.055  1.00  0.00    -0.363 OA
HETATM   33  H   UNL     1      18.981  47.341  45.048  1.00  0.00     0.213 HD
ENDBRANCH   2  32
BRANCH   2  34
HETATM   34  C   UNL     1      19.117  44.264  45.611  1.00  0.00     0.439 C 
HETATM   35  F   UNL     1      20.194  44.178  44.797  1.00  0.00    -0.166 F 
HETATM   36  F   UNL     1      19.275  43.357  46.595  1.00  0.00    -0.166 F 
HETATM   37  F   UNL     1      18.031  43.883  44.889  1.00  0.00    -0.166 F 
ENDBRANCH   2  34
TORSDOF 8
ENDMDL
MODEL 10
REMARK VINA RESULT:      -7.0      6.893     10.094
REMARK  8 active torsions:
REMARK  status: ('A' for Active; 'I' for Inactive)
REMARK    1  A    between atoms: C_2  and  O_3 
REMARK    2  A    between atoms: O_3  and  C_4 
REMARK    3  A    between atoms: C_4  and  C_5 
REMARK    4  A    between atoms: C_6  and  O_7 
REMARK    5  A    between atoms: C_6  and  C_8 
REMARK    6  A    between atoms: C_16  and  C_17 
REMARK    7  A    between atoms: C_18  and  C_19 
REMARK    8  A    between atoms: N_26  and  C_27 
ROOT
HETATM    1  C   UNL     1      26.740  44.666  52.175  1.00  0.00     0.177 C 
HETATM    2  C   UNL     1      27.704  43.600  52.700  1.00  0.00     0.250 C 
HETATM    3  N   UNL     1      27.430  42.282  52.155  1.00  0.00    -0.303 N 
HETATM    4  C   UNL     1      26.809  42.035  50.980  1.00  0.00     0.319 C 
HETATM    5  O   UNL     1      26.705  40.895  50.546  1.00  0.00    -0.247 OA
HETATM    6  N   UNL     1      26.291  43.100  50.328  1.00  0.00    -0.333 N 
HETATM    7  C   UNL     1      26.598  44.473  50.666  1.00  0.00     0.142 C 
HETATM    8  H   UNL     1      27.776  41.452  52.623  1.00  0.00     0.167 HD
HETATM    9  H   UNL     1      25.923  42.883  49.410  1.00  0.00     0.165 HD
ENDROOT
BRANCH   7  10
HETATM   10  C   UNL     1      25.593  45.371  50.008  1.00  0.00     0.015 A 
HETATM   11  C   UNL     1      24.460  45.018  49.212  1.00  0.00     0.097 A 
HETATM   12  N   UNL     1      23.784  46.110  48.830  1.00  0.00    -0.167 NA
HETATM   13  N   UNL     1      24.449  47.165  49.348  1.00  0.00    -0.244 N 
HETATM   14  C   UNL     1      25.536  46.752  50.077  1.00  0.00     0.130 A 
BRANCH  11  15
HETATM   15  C   UNL     1      23.967  43.694  48.833  1.00  0.00    -0.005 A 
HETATM   16  C   UNL     1      24.279  43.175  47.567  1.00  0.00     0.014 A 
HETATM   17  C   UNL     1      23.814  41.917  47.178  1.00  0.00     0.001 A 
HETATM   18  C   UNL     1      23.035  41.162  48.051  1.00  0.00     0.000 A 
HETATM   19  C   UNL     1      22.731  41.658  49.317  1.00  0.00     0.001 A 
HETATM   20  C   UNL     1      23.200  42.915  49.710  1.00  0.00     0.014 A 
ENDBRANCH  11  15
BRANCH  13  21
HETATM   21  C   UNL     1      23.999  48.497  49.122  1.00  0.00     0.058 A 
HETATM   22  C   UNL     1      24.843  49.406  48.462  1.00  0.00     0.031 A 
HETATM   23  C   UNL     1      24.422  50.715  48.226  1.00  0.00     0.002 A 
HETATM   24  C   UNL     1      23.159  51.129  48.646  1.00  0.00     0.000 A 
HETATM   25  C   UNL     1      22.317  50.234  49.304  1.00  0.00     0.002 A 
HETATM   26  C   UNL     1      22.731  48.921  49.543  1.00  0.00     0.031 A 
ENDBRANCH  13  21
ENDBRANCH   7  10
BRANCH   1  27
HETATM   27  C   UNL     1      25.413  44.616  52.895  1.00  0.00     0.270 C 
HETATM   28  O   UNL     1      24.573  43.740  52.765  1.00  0.00    -0.265 OA
BRANCH  27  29
HETATM   29  O   UNL     1      25.304  45.683  53.735  1.00  0.00    -0.321 OA
BRANCH  29  30
HETATM   30  C   UNL     1      26.075  46.844  53.386  1.00  0.00     0.174 C 
HETATM   31  C   UNL     1      26.311  47.722  54.601  1.00  0.00     0.034 C 
ENDBRANCH  29  30
ENDBRANCH  27  29
ENDBRANCH   1  27
BRANCH   2  32
HETATM   32  O   UNL     1      29.005  43.925  52.163  1.00  0.00    -0.363 OA
HETATM   33  H   UNL     1      28.976  43.670  51.223  1.00  0.00     0.213 HD
ENDBRANCH   2  32
BRANCH   2  34
HETATM   34  C   UNL     1      27.787  43.613  54.264  1.00  0.00     0.439 C 
HETATM   35  F   UNL     1      28.049  44.854  54.734  1.00  0.00    -0.166 F 
HETATM   36  F   UNL     1      26.661  43.178  54.864  1.00  0.00    -0.166 F 
HETATM   37  F   UNL     1      28.795  42.801  54.675  1.00  0.00    -0.166 F 
ENDBRANCH   2  34
TORSDOF 8
ENDMDL
