MODEL 1
REMARK VINA RESULT:      -8.8      0.000      0.000
REMARK  4 active torsions:
REMARK  status: ('A' for Active; 'I' for Inactive)
REMARK    1  A    between atoms: C_10  and  C_11 
REMARK    2  A    between atoms: N_14  and  C_16 
REMARK    3  A    between atoms: C_16  and  C_17 
REMARK    4  A    between atoms: C_22  and  C_23 
ROOT
HETATM    1  C   UNL     1      25.882  45.426  54.592  1.00  0.00     0.024 C 
HETATM    2  C   UNL     1      24.793  44.864  53.656  1.00  0.00     0.037 C 
HETATM    3  C   UNL     1      25.209  44.990  52.197  1.00  0.00     0.236 C 
HETATM    4  N   UNL     1      25.453  46.441  51.850  1.00  0.00    -0.066 N 
HETATM    5  H   UNL     1      24.526  46.895  51.838  1.00  0.00     0.280 HD
HETATM    6  C   UNL     1      26.378  47.156  52.792  1.00  0.00     0.236 C 
HETATM    7  C   UNL     1      26.015  46.912  54.252  1.00  0.00     0.037 C 
ENDROOT
BRANCH   4   8
HETATM    8  C   UNL     1      25.957  46.596  50.414  1.00  0.00     0.294 C 
BRANCH   8   9
HETATM    9  C   UNL     1      25.300  47.728  49.648  1.00  0.00     0.075 A 
HETATM   10  N   UNL     1      23.938  47.673  49.577  1.00  0.00    -0.263 NA
HETATM   11  C   UNL     1      23.311  48.666  48.903  1.00  0.00     0.117 A 
HETATM   12  C   UNL     1      23.974  49.719  48.298  1.00  0.00     0.020 A 
HETATM   13  C   UNL     1      25.360  49.771  48.396  1.00  0.00     0.020 A 
HETATM   14  C   UNL     1      26.049  48.771  49.090  1.00  0.00     0.074 A 
BRANCH  14  15
HETATM   15  C   UNL     1      27.547  48.798  49.210  1.00  0.00     0.419 C 
HETATM   16  F   UNL     1      28.117  47.754  48.545  1.00  0.00    -0.166 F 
HETATM   17  F   UNL     1      28.070  49.917  48.640  1.00  0.00    -0.166 F 
HETATM   18  F   UNL     1      28.012  48.749  50.480  1.00  0.00    -0.166 F 
ENDBRANCH  14  15
ENDBRANCH   8   9
ENDBRANCH   4   8
BRANCH   1  19
HETATM   19  C   UNL     1      27.156  44.594  54.525  1.00  0.00    -0.024 A 
HETATM   20  C   UNL     1      28.437  44.756  55.176  1.00  0.00     0.018 A 
HETATM   21  C   UNL     1      29.283  43.778  54.655  1.00  0.00     0.138 A 
HETATM   22  C   UNL     1      29.018  45.613  56.133  1.00  0.00     0.017 A 
HETATM   23  N   UNL     1      30.590  43.591  54.903  1.00  0.00    -0.242 NA
HETATM   24  N   UNL     1      28.559  42.978  53.827  1.00  0.00    -0.350 N 
HETATM   25  C   UNL     1      31.095  44.459  55.801  1.00  0.00     0.119 A 
HETATM   26  C   UNL     1      30.374  45.456  56.437  1.00  0.00     0.020 A 
HETATM   27  H   UNL     1      28.940  42.166  53.361  1.00  0.00     0.166 HD
HETATM   28  C   UNL     1      27.275  43.444  53.751  1.00  0.00     0.098 A 
ENDBRANCH   1  19
TORSDOF 4
ENDMDL
MODEL 2
REMARK VINA RESULT:      -8.4      2.424      3.576
REMARK  4 active torsions:
REMARK  status: ('A' for Active; 'I' for Inactive)
REMARK    1  A    between atoms: C_10  and  C_11 
REMARK    2  A    between atoms: N_14  and  C_16 
REMARK    3  A    between atoms: C_16  and  C_17 
REMARK    4  A    between atoms: C_22  and  C_23 
ROOT
HETATM    1  C   UNL     1      28.877  43.105  53.756  1.00  0.00     0.024 C 
HETATM    2  C   UNL     1      28.753  43.691  52.335  1.00  0.00     0.037 C 
HETATM    3  C   UNL     1      27.557  44.628  52.233  1.00  0.00     0.236 C 
HETATM    4  N   UNL     1      26.285  43.884  52.570  1.00  0.00    -0.066 N 
HETATM    5  H   UNL     1      26.109  43.241  51.781  1.00  0.00     0.280 HD
HETATM    6  C   UNL     1      26.334  43.127  53.866  1.00  0.00     0.236 C 
HETATM    7  C   UNL     1      27.603  42.294  53.998  1.00  0.00     0.037 C 
ENDROOT
BRANCH   4   8
HETATM    8  C   UNL     1      25.072  44.816  52.562  1.00  0.00     0.294 C 
BRANCH   8   9
HETATM    9  C   UNL     1      24.283  44.791  51.267  1.00  0.00     0.075 A 
HETATM   10  N   UNL     1      23.540  43.665  51.057  1.00  0.00    -0.263 NA
HETATM   11  C   UNL     1      22.818  43.603  49.912  1.00  0.00     0.117 A 
HETATM   12  C   UNL     1      22.794  44.612  48.966  1.00  0.00     0.020 A 
HETATM   13  C   UNL     1      23.540  45.761  49.205  1.00  0.00     0.020 A 
HETATM   14  C   UNL     1      24.294  45.872  50.377  1.00  0.00     0.074 A 
BRANCH  14  15
HETATM   15  C   UNL     1      25.114  47.100  50.662  1.00  0.00     0.419 C 
HETATM   16  F   UNL     1      26.418  46.918  50.313  1.00  0.00    -0.166 F 
HETATM   17  F   UNL     1      24.688  48.161  49.925  1.00  0.00    -0.166 F 
HETATM   18  F   UNL     1      25.111  47.492  51.957  1.00  0.00    -0.166 F 
ENDBRANCH  14  15
ENDBRANCH   8   9
ENDBRANCH   4   8
BRANCH   1  19
HETATM   19  C   UNL     1      29.201  44.188  54.777  1.00  0.00    -0.024 A 
HETATM   20  C   UNL     1      30.131  44.208  55.885  1.00  0.00     0.018 A 
HETATM   21  C   UNL     1      29.923  45.406  56.566  1.00  0.00     0.138 A 
HETATM   22  C   UNL     1      31.120  43.364  56.429  1.00  0.00     0.017 A 
HETATM   23  N   UNL     1      30.502  45.827  57.704  1.00  0.00    -0.242 NA
HETATM   24  N   UNL     1      29.017  46.146  55.872  1.00  0.00    -0.350 N 
HETATM   25  C   UNL     1      31.415  44.965  58.192  1.00  0.00     0.119 A 
HETATM   26  C   UNL     1      31.761  43.757  57.608  1.00  0.00     0.020 A 
HETATM   27  H   UNL     1      28.735  47.078  56.140  1.00  0.00     0.166 HD
HETATM   28  C   UNL     1      28.586  45.436  54.786  1.00  0.00     0.098 A 
ENDBRANCH   1  19
TORSDOF 4
ENDMDL
MODEL 3
REMARK VINA RESULT:      -8.4     11.518     13.644
REMARK  4 active torsions:
REMARK  status: ('A' for Active; 'I' for Inactive)
REMARK    1  A    between atoms: C_10  and  C_11 
REMARK    2  A    between atoms: N_14  and  C_16 
REMARK    3  A    between atoms: C_16  and  C_17 
REMARK    4  A    between atoms: C_22  and  C_23 
ROOT
HETATM    1  C   UNL     1      32.092  48.858  42.340  1.00  0.00     0.024 C 
HETATM    2  C   UNL     1      32.456  47.766  41.313  1.00  0.00     0.037 C 
HETATM    3  C   UNL     1      31.604  47.892  40.057  1.00  0.00     0.236 C 
HETATM    4  N   UNL     1      30.139  47.766  40.409  1.00  0.00    -0.066 N 
HETATM    5  H   UNL     1      29.987  46.776  40.661  1.00  0.00     0.280 HD
HETATM    6  C   UNL     1      29.690  48.668  41.522  1.00  0.00     0.236 C 
HETATM    7  C   UNL     1      30.630  48.619  42.719  1.00  0.00     0.037 C 
ENDROOT
BRANCH   4   8
HETATM    8  C   UNL     1      29.249  47.974  39.183  1.00  0.00     0.294 C 
BRANCH   8   9
HETATM    9  C   UNL     1      29.058  49.428  38.798  1.00  0.00     0.075 A 
HETATM   10  N   UNL     1      30.179  50.068  38.353  1.00  0.00    -0.263 NA
HETATM   11  C   UNL     1      30.050  51.368  37.997  1.00  0.00     0.117 A 
HETATM   12  C   UNL     1      28.857  52.065  38.056  1.00  0.00     0.020 A 
HETATM   13  C   UNL     1      27.720  51.394  38.494  1.00  0.00     0.020 A 
HETATM   14  C   UNL     1      27.804  50.048  38.864  1.00  0.00     0.074 A 
BRANCH  14  15
HETATM   15  C   UNL     1      26.594  49.296  39.343  1.00  0.00     0.419 C 
HETATM   16  F   UNL     1      25.466  50.055  39.244  1.00  0.00    -0.166 F 
HETATM   17  F   UNL     1      26.357  48.197  38.576  1.00  0.00    -0.166 F 
HETATM   18  F   UNL     1      26.664  48.873  40.627  1.00  0.00    -0.166 F 
ENDBRANCH  14  15
ENDBRANCH   8   9
ENDBRANCH   4   8
BRANCH   1  19
HETATM   19  C   UNL     1      32.445  50.247  41.823  1.00  0.00    -0.024 A 
HETATM   20  C   UNL     1      31.627  51.417  41.599  1.00  0.00     0.018 A 
HETATM   21  C   UNL     1      32.443  52.372  40.994  1.00  0.00     0.138 A 
HETATM   22  C   UNL     1      30.288  51.808  41.806  1.00  0.00     0.017 A 
HETATM   23  N   UNL     1      32.100  53.586  40.531  1.00  0.00    -0.242 NA
HETATM   24  N   UNL     1      33.714  51.888  40.950  1.00  0.00    -0.350 N 
HETATM   25  C   UNL     1      30.803  53.890  40.731  1.00  0.00     0.119 A 
HETATM   26  C   UNL     1      29.879  53.066  41.354  1.00  0.00     0.020 A 
HETATM   27  H   UNL     1      34.500  52.416  40.597  1.00  0.00     0.166 HD
HETATM   28  C   UNL     1      33.735  50.620  41.459  1.00  0.00     0.098 A 
ENDBRANCH   1  19
TORSDOF 4
ENDMDL
MODEL 4
REMARK VINA RESULT:      -8.4      3.829      7.598
REMARK  4 active torsions:
REMARK  status: ('A' for Active; 'I' for Inactive)
REMARK    1  A    between atoms: C_10  and  C_11 
REMARK    2  A    between atoms: N_14  and  C_16 
REMARK    3  A    between atoms: C_16  and  C_17 
REMARK    4  A    between atoms: C_22  and  C_23 
ROOT
HETATM    1  C   UNL     1      25.952  45.479  49.787  1.00  0.00     0.024 C 
HETATM    2  C   UNL     1      27.232  44.629  49.911  1.00  0.00     0.037 C 
HETATM    3  C   UNL     1      27.272  43.893  51.243  1.00  0.00     0.236 C 
HETATM    4  N   UNL     1      27.227  44.883  52.385  1.00  0.00    -0.066 N 
HETATM    5  H   UNL     1      28.142  45.361  52.389  1.00  0.00     0.280 HD
HETATM    6  C   UNL     1      26.111  45.883  52.294  1.00  0.00     0.236 C 
HETATM    7  C   UNL     1      26.013  46.514  50.911  1.00  0.00     0.037 C 
ENDROOT
BRANCH   4   8
HETATM    8  C   UNL     1      27.178  44.174  53.740  1.00  0.00     0.294 C 
BRANCH   8   9
HETATM    9  C   UNL     1      28.161  44.719  54.758  1.00  0.00     0.075 A 
HETATM   10  N   UNL     1      27.703  45.758  55.515  1.00  0.00    -0.263 NA
HETATM   11  C   UNL     1      28.550  46.274  56.438  1.00  0.00     0.117 A 
HETATM   12  C   UNL     1      29.833  45.801  56.650  1.00  0.00     0.020 A 
HETATM   13  C   UNL     1      30.277  44.729  55.884  1.00  0.00     0.020 A 
HETATM   14  C   UNL     1      29.434  44.160  54.924  1.00  0.00     0.074 A 
BRANCH  14  15
HETATM   15  C   UNL     1      29.886  43.002  54.078  1.00  0.00     0.419 C 
HETATM   16  F   UNL     1      30.052  43.373  52.777  1.00  0.00    -0.166 F 
HETATM   17  F   UNL     1      31.102  42.541  54.479  1.00  0.00    -0.166 F 
HETATM   18  F   UNL     1      29.044  41.943  54.074  1.00  0.00    -0.166 F 
ENDBRANCH  14  15
ENDBRANCH   8   9
ENDBRANCH   4   8
BRANCH   1  19
HETATM   19  C   UNL     1      24.707  44.604  49.732  1.00  0.00    -0.024 A 
HETATM   20  C   UNL     1      24.484  43.296  49.157  1.00  0.00     0.018 A 
HETATM   21  C   UNL     1      23.123  43.024  49.283  1.00  0.00     0.138 A 
HETATM   22  C   UNL     1      25.246  42.295  48.521  1.00  0.00     0.017 A 
HETATM   23  N   UNL     1      22.441  41.962  48.822  1.00  0.00    -0.242 NA
HETATM   24  N   UNL     1      22.546  44.030  49.995  1.00  0.00    -0.350 N 
HETATM   25  C   UNL     1      23.217  41.055  48.198  1.00  0.00     0.119 A 
HETATM   26  C   UNL     1      24.588  41.162  48.031  1.00  0.00     0.020 A 
HETATM   27  H   UNL     1      21.570  44.039  50.258  1.00  0.00     0.166 HD
HETATM   28  C   UNL     1      23.487  44.978  50.287  1.00  0.00     0.098 A 
ENDBRANCH   1  19
TORSDOF 4
ENDMDL
MODEL 5
REMARK VINA RESULT:      -8.3     12.033     13.660
REMARK  4 active torsions:
REMARK  status: ('A' for Active; 'I' for Inactive)
REMARK    1  A    between atoms: C_10  and  C_11 
REMARK    2  A    between atoms: N_14  and  C_16 
REMARK    3  A    between atoms: C_16  and  C_17 
REMARK    4  A    between atoms: C_22  and  C_23 
ROOT
HETATM    1  C   UNL     1      29.365  53.342  40.402  1.00  0.00     0.024 C 
HETATM    2  C   UNL     1      28.268  52.604  41.196  1.00  0.00     0.037 C 
HETATM    3  C   UNL     1      28.040  51.204  40.640  1.00  0.00     0.236 C 
HETATM    4  N   UNL     1      27.625  51.284  39.188  1.00  0.00    -0.066 N 
HETATM    5  H   UNL     1      26.666  51.666  39.182  1.00  0.00     0.280 HD
HETATM    6  C   UNL     1      28.530  52.122  38.330  1.00  0.00     0.236 C 
HETATM    7  C   UNL     1      28.845  53.468  38.969  1.00  0.00     0.037 C 
ENDROOT
BRANCH   4   8
HETATM    8  C   UNL     1      27.470  49.893  38.572  1.00  0.00     0.294 C 
BRANCH   8   9
HETATM    9  C   UNL     1      28.542  48.907  38.997  1.00  0.00     0.075 A 
HETATM   10  N   UNL     1      29.805  49.193  38.563  1.00  0.00    -0.263 NA
HETATM   11  C   UNL     1      30.792  48.338  38.922  1.00  0.00     0.117 A 
HETATM   12  C   UNL     1      30.586  47.212  39.698  1.00  0.00     0.020 A 
HETATM   13  C   UNL     1      29.297  46.945  40.148  1.00  0.00     0.020 A 
HETATM   14  C   UNL     1      28.248  47.805  39.809  1.00  0.00     0.074 A 
BRANCH  14  15
HETATM   15  C   UNL     1      26.844  47.542  40.277  1.00  0.00     0.419 C 
HETATM   16  F   UNL     1      26.003  47.327  39.227  1.00  0.00    -0.166 F 
HETATM   17  F   UNL     1      26.776  46.411  41.030  1.00  0.00    -0.166 F 
HETATM   18  F   UNL     1      26.298  48.539  41.012  1.00  0.00    -0.166 F 
ENDBRANCH  14  15
ENDBRANCH   8   9
ENDBRANCH   4   8
BRANCH   1  19
HETATM   19  C   UNL     1      30.723  52.676  40.579  1.00  0.00    -0.024 A 
HETATM   20  C   UNL     1      31.450  52.292  41.769  1.00  0.00     0.018 A 
HETATM   21  C   UNL     1      32.701  51.839  41.351  1.00  0.00     0.138 A 
HETATM   22  C   UNL     1      31.235  52.281  43.162  1.00  0.00     0.017 A 
HETATM   23  N   UNL     1      33.741  51.454  42.109  1.00  0.00    -0.242 NA
HETATM   24  N   UNL     1      32.720  51.820  39.991  1.00  0.00    -0.350 N 
HETATM   25  C   UNL     1      33.486  51.492  43.431  1.00  0.00     0.119 A 
HETATM   26  C   UNL     1      32.281  51.878  43.998  1.00  0.00     0.020 A 
HETATM   27  H   UNL     1      33.505  51.485  39.449  1.00  0.00     0.166 HD
HETATM   28  C   UNL     1      31.534  52.303  39.512  1.00  0.00     0.098 A 
ENDBRANCH   1  19
TORSDOF 4
ENDMDL
MODEL 6
REMARK VINA RESULT:      -8.2     12.044     13.552
REMARK  4 active torsions:
REMARK  status: ('A' for Active; 'I' for Inactive)
REMARK    1  A    between atoms: C_10  and  C_11 
REMARK    2  A    between atoms: N_14  and  C_16 
REMARK    3  A    between atoms: C_16  and  C_17 
REMARK    4  A    between atoms: C_22  and  C_23 
ROOT
HETATM    1  C   UNL     1      27.464  48.726  40.451  1.00  0.00     0.024 C 
HETATM    2  C   UNL     1      26.916  49.063  39.050  1.00  0.00     0.037 C 
HETATM    3  C   UNL     1      27.772  50.122  38.368  1.00  0.00     0.236 C 
HETATM    4  N   UNL     1      27.799  51.383  39.201  1.00  0.00    -0.066 N 
HETATM    5  H   UNL     1      26.857  51.800  39.123  1.00  0.00     0.280 HD
HETATM    6  C   UNL     1      28.161  51.166  40.642  1.00  0.00     0.236 C 
HETATM    7  C   UNL     1      27.379  50.018  41.267  1.00  0.00     0.037 C 
ENDROOT
BRANCH   4   8
HETATM    8  C   UNL     1      28.720  52.439  38.589  1.00  0.00     0.294 C 
BRANCH   8   9
HETATM    9  C   UNL     1      30.198  52.127  38.732  1.00  0.00     0.075 A 
HETATM   10  N   UNL     1      30.685  51.194  37.862  1.00  0.00    -0.263 NA
HETATM   11  C   UNL     1      32.001  50.887  37.956  1.00  0.00     0.117 A 
HETATM   12  C   UNL     1      32.861  51.469  38.870  1.00  0.00     0.020 A 
HETATM   13  C   UNL     1      32.353  52.431  39.736  1.00  0.00     0.020 A 
HETATM   14  C   UNL     1      31.002  52.785  39.670  1.00  0.00     0.074 A 
BRANCH  14  15
HETATM   15  C   UNL     1      30.422  53.820  40.595  1.00  0.00     0.419 C 
HETATM   16  F   UNL     1      30.188  53.303  41.834  1.00  0.00    -0.166 F 
HETATM   17  F   UNL     1      31.289  54.849  40.792  1.00  0.00    -0.166 F 
HETATM   18  F   UNL     1      29.255  54.362  40.174  1.00  0.00    -0.166 F 
ENDBRANCH  14  15
ENDBRANCH   8   9
ENDBRANCH   4   8
BRANCH   1  19
HETATM   19  C   UNL     1      28.831  48.060  40.367  1.00  0.00    -0.024 A 
HETATM   20  C   UNL     1      30.100  48.408  40.968  1.00  0.00     0.018 A 
HETATM   21  C   UNL     1      31.048  47.526  40.450  1.00  0.00     0.138 A 
HETATM   22  C   UNL     1      30.595  49.368  41.873  1.00  0.00     0.017 A 
HETATM   23  N   UNL     1      32.375  47.516  40.658  1.00  0.00    -0.242 NA
HETATM   24  N   UNL     1      30.407  46.610  39.675  1.00  0.00    -0.350 N 
HETATM   25  C   UNL     1      32.792  48.474  41.508  1.00  0.00     0.119 A 
HETATM   26  C   UNL     1      31.969  49.396  42.135  1.00  0.00     0.020 A 
HETATM   27  H   UNL     1      30.875  45.836  39.224  1.00  0.00     0.166 HD
HETATM   28  C   UNL     1      29.073  46.906  39.628  1.00  0.00     0.098 A 
ENDBRANCH   1  19
TORSDOF 4
ENDMDL
MODEL 7
REMARK VINA RESULT:      -7.9     11.753     13.399
REMARK  4 active torsions:
REMARK  status: ('A' for Active; 'I' for Inactive)
REMARK    1  A    between atoms: C_10  and  C_11 
REMARK    2  A    between atoms: N_14  and  C_16 
REMARK    3  A    between atoms: C_16  and  C_17 
REMARK    4  A    between atoms: C_22  and  C_23 
ROOT
HETATM    1  C   UNL     1      29.352  53.148  40.449  1.00  0.00     0.024 C 
HETATM    2  C   UNL     1      28.262  52.370  41.213  1.00  0.00     0.037 C 
HETATM    3  C   UNL     1      28.044  50.992  40.602  1.00  0.00     0.236 C 
HETATM    4  N   UNL     1      27.629  51.126  39.155  1.00  0.00    -0.066 N 
HETATM    5  H   UNL     1      26.666  51.500  39.164  1.00  0.00     0.280 HD
HETATM    6  C   UNL     1      28.526  52.004  38.331  1.00  0.00     0.236 C 
HETATM    7  C   UNL     1      28.830  53.327  39.022  1.00  0.00     0.037 C 
ENDROOT
BRANCH   4   8
HETATM    8  C   UNL     1      27.485  49.759  38.484  1.00  0.00     0.294 C 
BRANCH   8   9
HETATM    9  C   UNL     1      27.081  48.645  39.432  1.00  0.00     0.075 A 
HETATM   10  N   UNL     1      25.771  48.651  39.816  1.00  0.00    -0.263 NA
HETATM   11  C   UNL     1      25.369  47.672  40.662  1.00  0.00     0.117 A 
HETATM   12  C   UNL     1      26.206  46.681  41.140  1.00  0.00     0.020 A 
HETATM   13  C   UNL     1      27.533  46.677  40.723  1.00  0.00     0.020 A 
HETATM   14  C   UNL     1      27.991  47.664  39.844  1.00  0.00     0.074 A 
BRANCH  14  15
HETATM   15  C   UNL     1      29.420  47.689  39.378  1.00  0.00     0.419 C 
HETATM   16  F   UNL     1      30.147  46.690  39.953  1.00  0.00    -0.166 F 
HETATM   17  F   UNL     1      29.507  47.474  38.038  1.00  0.00    -0.166 F 
HETATM   18  F   UNL     1      30.077  48.844  39.636  1.00  0.00    -0.166 F 
ENDBRANCH  14  15
ENDBRANCH   8   9
ENDBRANCH   4   8
BRANCH   1  19
HETATM   19  C   UNL     1      30.715  52.486  40.600  1.00  0.00    -0.024 A 
HETATM   20  C   UNL     1      31.482  52.138  41.775  1.00  0.00     0.018 A 
HETATM   21  C   UNL     1      32.718  51.672  41.329  1.00  0.00     0.138 A 
HETATM   22  C   UNL     1      31.315  52.167  43.175  1.00  0.00     0.017 A 
HETATM   23  N   UNL     1      33.784  51.308  42.062  1.00  0.00    -0.242 NA
HETATM   24  N   UNL     1      32.692  51.613  39.970  1.00  0.00    -0.350 N 
HETATM   25  C   UNL     1      33.573  51.386  43.390  1.00  0.00     0.119 A 
HETATM   26  C   UNL     1      32.389  51.788  43.986  1.00  0.00     0.020 A 
HETATM   27  H   UNL     1      33.458  51.262  39.412  1.00  0.00     0.166 HD
HETATM   28  C   UNL     1      31.490  52.083  39.517  1.00  0.00     0.098 A 
ENDBRANCH   1  19
TORSDOF 4
ENDMDL
MODEL 8
REMARK VINA RESULT:      -7.9     11.228     14.184
REMARK  4 active torsions:
REMARK  status: ('A' for Active; 'I' for Inactive)
REMARK    1  A    between atoms: C_10  and  C_11 
REMARK    2  A    between atoms: N_14  and  C_16 
REMARK    3  A    between atoms: C_16  and  C_17 
REMARK    4  A    between atoms: C_22  and  C_23 
ROOT
HETATM    1  C   UNL     1      28.714  47.715  39.887  1.00  0.00     0.024 C 
HETATM    2  C   UNL     1      28.370  47.584  41.384  1.00  0.00     0.037 C 
HETATM    3  C   UNL     1      29.108  48.630  42.208  1.00  0.00     0.236 C 
HETATM    4  N   UNL     1      30.601  48.469  42.033  1.00  0.00    -0.066 N 
HETATM    5  H   UNL     1      30.858  47.600  42.527  1.00  0.00     0.280 HD
HETATM    6  C   UNL     1      31.055  48.415  40.602  1.00  0.00     0.236 C 
HETATM    7  C   UNL     1      30.217  47.453  39.769  1.00  0.00     0.037 C 
ENDROOT
BRANCH   4   8
HETATM    8  C   UNL     1      31.373  49.558  42.779  1.00  0.00     0.294 C 
BRANCH   8   9
HETATM    9  C   UNL     1      32.386  50.294  41.922  1.00  0.00     0.075 A 
HETATM   10  N   UNL     1      33.549  49.622  41.684  1.00  0.00    -0.263 NA
HETATM   11  C   UNL     1      34.480  50.244  40.921  1.00  0.00     0.117 A 
HETATM   12  C   UNL     1      34.308  51.504  40.377  1.00  0.00     0.020 A 
HETATM   13  C   UNL     1      33.109  52.168  40.614  1.00  0.00     0.020 A 
HETATM   14  C   UNL     1      32.116  51.561  41.389  1.00  0.00     0.074 A 
BRANCH  14  15
HETATM   15  C   UNL     1      30.811  52.254  41.665  1.00  0.00     0.419 C 
HETATM   16  F   UNL     1      30.717  52.635  42.970  1.00  0.00    -0.166 F 
HETATM   17  F   UNL     1      30.699  53.403  40.945  1.00  0.00    -0.166 F 
HETATM   18  F   UNL     1      29.711  51.512  41.398  1.00  0.00    -0.166 F 
ENDBRANCH  14  15
ENDBRANCH   8   9
ENDBRANCH   4   8
BRANCH   1  19
HETATM   19  C   UNL     1      28.203  49.030  39.312  1.00  0.00    -0.024 A 
HETATM   20  C   UNL     1      28.901  50.141  38.706  1.00  0.00     0.018 A 
HETATM   21  C   UNL     1      27.954  51.138  38.476  1.00  0.00     0.138 A 
HETATM   22  C   UNL     1      30.222  50.462  38.330  1.00  0.00     0.017 A 
HETATM   23  N   UNL     1      28.151  52.379  38.001  1.00  0.00    -0.242 NA
HETATM   24  N   UNL     1      26.726  50.648  38.798  1.00  0.00    -0.350 N 
HETATM   25  C   UNL     1      29.435  52.637  37.688  1.00  0.00     0.119 A 
HETATM   26  C   UNL     1      30.482  51.738  37.819  1.00  0.00     0.020 A 
HETATM   27  H   UNL     1      25.868  51.168  38.675  1.00  0.00     0.166 HD
HETATM   28  C   UNL     1      26.856  49.378  39.286  1.00  0.00     0.098 A 
ENDBRANCH   1  19
TORSDOF 4
ENDMDL
MODEL 9
REMARK VINA RESULT:      -7.7      5.150     10.549
REMARK  4 active torsions:
REMARK  status: ('A' for Active; 'I' for Inactive)
REMARK    1  A    between atoms: C_10  and  C_11 
REMARK    2  A    between atoms: N_14  and  C_16 
REMARK    3  A    between atoms: C_16  and  C_17 
REMARK    4  A    between atoms: C_22  and  C_23 
ROOT
HETATM    1  C   UNL     1      18.366  49.885  50.166  1.00  0.00     0.024 C 
HETATM    2  C   UNL     1      19.714  50.541  50.528  1.00  0.00     0.037 C 
HETATM    3  C   UNL     1      20.792  50.164  49.521  1.00  0.00     0.236 C 
HETATM    4  N   UNL     1      20.970  48.663  49.488  1.00  0.00    -0.066 N 
HETATM    5  H   UNL     1      21.424  48.406  50.380  1.00  0.00     0.280 HD
HETATM    6  C   UNL     1      19.694  47.892  49.306  1.00  0.00     0.236 C 
HETATM    7  C   UNL     1      18.591  48.374  50.239  1.00  0.00     0.037 C 
ENDROOT
BRANCH   4   8
HETATM    8  C   UNL     1      21.985  48.242  48.425  1.00  0.00     0.294 C 
BRANCH   8   9
HETATM    9  C   UNL     1      23.366  47.941  48.974  1.00  0.00     0.075 A 
HETATM   10  N   UNL     1      23.511  46.714  49.554  1.00  0.00    -0.263 NA
HETATM   11  C   UNL     1      24.730  46.405  50.057  1.00  0.00     0.117 A 
HETATM   12  C   UNL     1      25.819  47.257  50.005  1.00  0.00     0.020 A 
HETATM   13  C   UNL     1      25.660  48.496  49.393  1.00  0.00     0.020 A 
HETATM   14  C   UNL     1      24.421  48.854  48.853  1.00  0.00     0.074 A 
BRANCH  14  15
HETATM   15  C   UNL     1      24.218  50.187  48.188  1.00  0.00     0.419 C 
HETATM   16  F   UNL     1      23.268  50.116  47.214  1.00  0.00    -0.166 F 
HETATM   17  F   UNL     1      23.759  51.116  49.071  1.00  0.00    -0.166 F 
HETATM   18  F   UNL     1      25.327  50.705  47.611  1.00  0.00    -0.166 F 
ENDBRANCH  14  15
ENDBRANCH   8   9
ENDBRANCH   4   8
BRANCH   1  19
HETATM   19  C   UNL     1      17.817  50.431  48.854  1.00  0.00    -0.024 A 
HETATM   20  C   UNL     1      16.739  49.972  48.007  1.00  0.00     0.018 A 
HETATM   21  C   UNL     1      16.754  50.771  46.864  1.00  0.00     0.138 A 
HETATM   22  C   UNL     1      15.749  48.969  48.033  1.00  0.00     0.017 A 
HETATM   23  N   UNL     1      15.988  50.665  45.766  1.00  0.00    -0.242 NA
HETATM   24  N   UNL     1      17.691  51.743  47.029  1.00  0.00    -0.350 N 
HETATM   25  C   UNL     1      15.082  49.670  45.837  1.00  0.00     0.119 A 
HETATM   26  C   UNL     1      14.916  48.821  46.919  1.00  0.00     0.020 A 
HETATM   27  H   UNL     1      17.860  52.475  46.354  1.00  0.00     0.166 HD
HETATM   28  C   UNL     1      18.327  51.563  48.227  1.00  0.00     0.098 A 
ENDBRANCH   1  19
TORSDOF 4
ENDMDL
MODEL 10
REMARK VINA RESULT:      -7.7      7.934     11.034
REMARK  4 active torsions:
REMARK  status: ('A' for Active; 'I' for Inactive)
REMARK    1  A    between atoms: C_10  and  C_11 
REMARK    2  A    between atoms: N_14  and  C_16 
REMARK    3  A    between atoms: C_16  and  C_17 
REMARK    4  A    between atoms: C_22  and  C_23 
ROOT
HETATM    1  C   UNL     1      18.585  51.677  49.802  1.00  0.00     0.024 C 
HETATM    2  C   UNL     1      17.091  51.298  49.821  1.00  0.00     0.037 C 
HETATM    3  C   UNL     1      16.666  50.686  48.493  1.00  0.00     0.236 C 
HETATM    4  N   UNL     1      16.909  51.666  47.368  1.00  0.00    -0.066 N 
HETATM    5  H   UNL     1      16.208  52.416  47.481  1.00  0.00     0.280 HD
HETATM    6  C   UNL     1      18.296  52.242  47.337  1.00  0.00     0.236 C 
HETATM    7  C   UNL     1      18.746  52.733  48.707  1.00  0.00     0.037 C 
ENDROOT
BRANCH   4   8
HETATM    8  C   UNL     1      16.574  51.052  46.007  1.00  0.00     0.294 C 
BRANCH   8   9
HETATM    9  C   UNL     1      16.515  52.058  44.874  1.00  0.00     0.075 A 
HETATM   10  N   UNL     1      15.607  53.065  45.031  1.00  0.00    -0.263 NA
HETATM   11  C   UNL     1      15.523  53.986  44.041  1.00  0.00     0.117 A 
HETATM   12  C   UNL     1      16.306  53.958  42.901  1.00  0.00     0.020 A 
HETATM   13  C   UNL     1      17.240  52.937  42.765  1.00  0.00     0.020 A 
HETATM   14  C   UNL     1      17.367  51.969  43.766  1.00  0.00     0.074 A 
BRANCH  14  15
HETATM   15  C   UNL     1      18.365  50.851  43.646  1.00  0.00     0.419 C 
HETATM   16  F   UNL     1      17.747  49.653  43.444  1.00  0.00    -0.166 F 
HETATM   17  F   UNL     1      19.176  51.025  42.567  1.00  0.00    -0.166 F 
HETATM   18  F   UNL     1      19.170  50.696  44.723  1.00  0.00    -0.166 F 
ENDBRANCH  14  15
ENDBRANCH   8   9
ENDBRANCH   4   8
BRANCH   1  19
HETATM   19  C   UNL     1      19.470  50.442  49.694  1.00  0.00    -0.024 A 
HETATM   20  C   UNL     1      20.783  50.256  49.117  1.00  0.00     0.018 A 
HETATM   21  C   UNL     1      21.063  48.892  49.180  1.00  0.00     0.138 A 
HETATM   22  C   UNL     1      21.782  51.054  48.523  1.00  0.00     0.017 A 
HETATM   23  N   UNL     1      22.133  48.240  48.693  1.00  0.00    -0.242 NA
HETATM   24  N   UNL     1      20.058  48.275  49.858  1.00  0.00    -0.350 N 
HETATM   25  C   UNL     1      23.038  49.051  48.112  1.00  0.00     0.119 A 
HETATM   26  C   UNL     1      22.922  50.428  48.010  1.00  0.00     0.020 A 
HETATM   27  H   UNL     1      20.055  47.288  50.074  1.00  0.00     0.166 HD
HETATM   28  C   UNL     1      19.101  49.195  50.188  1.00  0.00     0.098 A 
ENDBRANCH   1  19
TORSDOF 4
ENDMDL
