MODEL 1
REMARK VINA RESULT:     -10.2      0.000      0.000
REMARK  4 active torsions:
REMARK  status: ('A' for Active; 'I' for Inactive)
REMARK    1  A    between atoms: C_7  and  C_8 
REMARK    2  A    between atoms: N_9  and  N_10 
REMARK       I    between atoms: N_10  and  C_11 
REMARK    3  A    between atoms: C_11  and  C_12 
REMARK    4  A    between atoms: C_16  and  C_17 
ROOT
HETATM    1  N   UNL     1      26.332  45.101  52.447  1.00  0.00    -0.242 N 
HETATM    2  C   UNL     1      26.450  45.179  51.068  1.00  0.00     0.289 C 
HETATM    3  O   UNL     1      27.340  44.640  50.415  1.00  0.00    -0.264 OA
HETATM    4  H   UNL     1      25.600  45.606  52.929  1.00  0.00     0.192 HD
ENDROOT
BRANCH   1   5
HETATM    5  N   UNL     1      27.254  44.399  53.174  1.00  0.00    -0.183 NA
HETATM    6  C   UNL     1      28.159  45.104  53.773  1.00  0.00     0.153 C 
BRANCH   6   7
HETATM    7  C   UNL     1      29.188  44.456  54.566  1.00  0.00     0.018 A 
HETATM    8  C   UNL     1      29.928  43.332  54.221  1.00  0.00     0.018 A 
HETATM    9  C   UNL     1      29.906  42.479  53.000  1.00  0.00     0.069 C 
HETATM   10  N   UNL     1      30.786  43.062  55.258  1.00  0.00    -0.358 N 
HETATM   11  H   UNL     1      31.446  42.297  55.279  1.00  0.00     0.166 HD
HETATM   12  C   UNL     1      30.630  43.978  56.268  1.00  0.00     0.043 A 
HETATM   13  C   UNL     1      29.634  44.868  55.867  1.00  0.00     0.004 A 
HETATM   14  C   UNL     1      31.293  44.081  57.498  1.00  0.00     0.030 A 
HETATM   15  C   UNL     1      29.285  45.918  56.744  1.00  0.00     0.014 A 
HETATM   16  C   UNL     1      29.938  46.036  57.976  1.00  0.00     0.001 A 
HETATM   17  C   UNL     1      30.927  45.130  58.346  1.00  0.00     0.002 A 
ENDBRANCH   6   7
ENDBRANCH   1   5
BRANCH   2  18
HETATM   18  C   UNL     1      25.436  45.977  50.423  1.00  0.00     0.121 A 
HETATM   19  N   UNL     1      24.422  45.393  49.717  1.00  0.00    -0.272 N 
HETATM   20  H   UNL     1      24.274  44.397  49.581  1.00  0.00     0.189 HD
HETATM   21  N   UNL     1      23.561  46.264  49.169  1.00  0.00    -0.174 NA
HETATM   22  C   UNL     1      24.035  47.472  49.513  1.00  0.00     0.091 A 
HETATM   23  C   UNL     1      25.192  47.333  50.330  1.00  0.00     0.071 A 
BRANCH  22  24
HETATM   24  C   UNL     1      23.347  48.698  49.099  1.00  0.00     0.016 A 
HETATM   25  C   UNL     1      24.003  49.820  48.565  1.00  0.00     0.046 A 
HETATM   26 CL   UNL     1      25.708  49.873  48.265  1.00  0.00    -0.083 Cl
HETATM   27  C   UNL     1      23.274  50.963  48.206  1.00  0.00     0.025 A 
HETATM   28  C   UNL     1      21.889  50.998  48.367  1.00  0.00     0.002 A 
HETATM   29  C   UNL     1      21.224  49.890  48.880  1.00  0.00     0.001 A 
HETATM   30  C   UNL     1      21.947  48.751  49.241  1.00  0.00     0.015 A 
ENDBRANCH  22  24
ENDBRANCH   2  18
TORSDOF 4
ENDMDL
MODEL 2
REMARK VINA RESULT:     -10.0      1.396      1.918
REMARK  4 active torsions:
REMARK  status: ('A' for Active; 'I' for Inactive)
REMARK    1  A    between atoms: C_7  and  C_8 
REMARK    2  A    between atoms: N_9  and  N_10 
REMARK       I    between atoms: N_10  and  C_11 
REMARK    3  A    between atoms: C_11  and  C_12 
REMARK    4  A    between atoms: C_16  and  C_17 
ROOT
HETATM    1  N   UNL     1      25.663  45.461  51.203  1.00  0.00    -0.242 N 
HETATM    2  C   UNL     1      25.709  46.155  50.003  1.00  0.00     0.289 C 
HETATM    3  O   UNL     1      26.709  46.258  49.298  1.00  0.00    -0.264 OA
HETATM    4  H   UNL     1      24.818  45.451  51.758  1.00  0.00     0.192 HD
ENDROOT
BRANCH   1   5
HETATM    5  N   UNL     1      26.788  44.847  51.681  1.00  0.00    -0.183 NA
HETATM    6  C   UNL     1      26.680  44.292  52.845  1.00  0.00     0.153 C 
BRANCH   6   7
HETATM    7  C   UNL     1      27.817  43.619  53.445  1.00  0.00     0.018 A 
HETATM    8  C   UNL     1      28.256  42.326  53.192  1.00  0.00     0.018 A 
HETATM    9  C   UNL     1      27.733  41.274  52.277  1.00  0.00     0.069 C 
HETATM   10  N   UNL     1      29.360  42.098  53.974  1.00  0.00    -0.358 N 
HETATM   11  H   UNL     1      29.888  41.237  53.995  1.00  0.00     0.166 HD
HETATM   12  C   UNL     1      29.657  43.206  54.730  1.00  0.00     0.043 A 
HETATM   13  C   UNL     1      28.708  44.180  54.422  1.00  0.00     0.004 A 
HETATM   14  C   UNL     1      30.688  43.413  55.655  1.00  0.00     0.030 A 
HETATM   15  C   UNL     1      28.798  45.428  55.076  1.00  0.00     0.014 A 
HETATM   16  C   UNL     1      29.822  45.652  56.003  1.00  0.00     0.001 A 
HETATM   17  C   UNL     1      30.753  44.657  56.287  1.00  0.00     0.002 A 
ENDBRANCH   6   7
ENDBRANCH   1   5
BRANCH   2  18
HETATM   18  C   UNL     1      24.467  46.786  49.628  1.00  0.00     0.121 A 
HETATM   19  N   UNL     1      23.500  46.095  48.952  1.00  0.00    -0.272 N 
HETATM   20  H   UNL     1      23.542  45.122  48.663  1.00  0.00     0.189 HD
HETATM   21  N   UNL     1      22.407  46.818  48.666  1.00  0.00    -0.174 NA
HETATM   22  C   UNL     1      22.669  48.039  49.158  1.00  0.00     0.091 A 
HETATM   23  C   UNL     1      23.939  48.050  49.800  1.00  0.00     0.071 A 
BRANCH  22  24
HETATM   24  C   UNL     1      21.690  49.123  49.045  1.00  0.00     0.016 A 
HETATM   25  C   UNL     1      21.984  50.391  48.514  1.00  0.00     0.046 A 
HETATM   26 CL   UNL     1      23.533  50.814  47.864  1.00  0.00    -0.083 Cl
HETATM   27  C   UNL     1      20.994  51.382  48.455  1.00  0.00     0.025 A 
HETATM   28  C   UNL     1      19.702  51.121  48.912  1.00  0.00     0.002 A 
HETATM   29  C   UNL     1      19.392  49.867  49.426  1.00  0.00     0.001 A 
HETATM   30  C   UNL     1      20.376  48.878  49.490  1.00  0.00     0.015 A 
ENDBRANCH  22  24
ENDBRANCH   2  18
TORSDOF 4
ENDMDL
MODEL 3
REMARK VINA RESULT:      -9.9      2.505      3.744
REMARK  4 active torsions:
REMARK  status: ('A' for Active; 'I' for Inactive)
REMARK    1  A    between atoms: C_7  and  C_8 
REMARK    2  A    between atoms: N_9  and  N_10 
REMARK       I    between atoms: N_10  and  C_11 
REMARK    3  A    between atoms: C_11  and  C_12 
REMARK    4  A    between atoms: C_16  and  C_17 
ROOT
HETATM    1  N   UNL     1      24.522  46.671  50.680  1.00  0.00    -0.242 N 
HETATM    2  C   UNL     1      24.484  47.736  49.792  1.00  0.00     0.289 C 
HETATM    3  O   UNL     1      25.472  48.223  49.250  1.00  0.00    -0.264 OA
HETATM    4  H   UNL     1      23.675  46.345  51.127  1.00  0.00     0.192 HD
ENDROOT
BRANCH   1   5
HETATM    5  N   UNL     1      25.719  46.102  51.015  1.00  0.00    -0.183 NA
HETATM    6  C   UNL     1      25.688  45.244  51.983  1.00  0.00     0.153 C 
BRANCH   6   7
HETATM    7  C   UNL     1      26.906  44.588  52.422  1.00  0.00     0.018 A 
HETATM    8  C   UNL     1      27.572  43.546  51.789  1.00  0.00     0.018 A 
HETATM    9  C   UNL     1      27.269  42.809  50.530  1.00  0.00     0.069 C 
HETATM   10  N   UNL     1      28.674  43.233  52.544  1.00  0.00    -0.358 N 
HETATM   11  H   UNL     1      29.343  42.510  52.320  1.00  0.00     0.166 HD
HETATM   12  C   UNL     1      28.750  44.042  53.651  1.00  0.00     0.043 A 
HETATM   13  C   UNL     1      27.655  44.905  53.605  1.00  0.00     0.004 A 
HETATM   14  C   UNL     1      29.700  44.071  54.680  1.00  0.00     0.030 A 
HETATM   15  C   UNL     1      27.505  45.847  54.646  1.00  0.00     0.014 A 
HETATM   16  C   UNL     1      28.446  45.891  55.681  1.00  0.00     0.001 A 
HETATM   17  C   UNL     1      29.526  45.014  55.696  1.00  0.00     0.002 A 
ENDBRANCH   6   7
ENDBRANCH   1   5
BRANCH   2  18
HETATM   18  C   UNL     1      23.165  48.268  49.549  1.00  0.00     0.121 A 
HETATM   19  N   UNL     1      22.177  47.488  49.016  1.00  0.00    -0.272 N 
HETATM   20  H   UNL     1      22.253  46.509  48.755  1.00  0.00     0.189 HD
HETATM   21  N   UNL     1      21.009  48.124  48.841  1.00  0.00    -0.174 NA
HETATM   22  C   UNL     1      21.240  49.379  49.259  1.00  0.00     0.091 A 
HETATM   23  C   UNL     1      22.573  49.499  49.744  1.00  0.00     0.071 A 
BRANCH  22  24
HETATM   24  C   UNL     1      20.180  50.390  49.230  1.00  0.00     0.016 A 
HETATM   25  C   UNL     1      19.023  50.333  50.025  1.00  0.00     0.046 A 
HETATM   26 CL   UNL     1      18.731  49.087  51.193  1.00  0.00    -0.083 Cl
HETATM   27  C   UNL     1      18.046  51.334  49.928  1.00  0.00     0.025 A 
HETATM   28  C   UNL     1      18.213  52.404  49.048  1.00  0.00     0.002 A 
HETATM   29  C   UNL     1      19.360  52.482  48.266  1.00  0.00     0.001 A 
HETATM   30  C   UNL     1      20.334  51.486  48.358  1.00  0.00     0.015 A 
ENDBRANCH  22  24
ENDBRANCH   2  18
TORSDOF 4
ENDMDL
MODEL 4
REMARK VINA RESULT:      -9.8      2.631      4.163
REMARK  4 active torsions:
REMARK  status: ('A' for Active; 'I' for Inactive)
REMARK    1  A    between atoms: C_7  and  C_8 
REMARK    2  A    between atoms: N_9  and  N_10 
REMARK       I    between atoms: N_10  and  C_11 
REMARK    3  A    between atoms: C_11  and  C_12 
REMARK    4  A    between atoms: C_16  and  C_17 
ROOT
HETATM    1  N   UNL     1      25.220  47.449  50.698  1.00  0.00    -0.242 N 
HETATM    2  C   UNL     1      25.558  48.232  49.604  1.00  0.00     0.289 C 
HETATM    3  O   UNL     1      26.700  48.367  49.173  1.00  0.00    -0.264 OA
HETATM    4  H   UNL     1      24.265  47.416  51.029  1.00  0.00     0.192 HD
ENDROOT
BRANCH   1   5
HETATM    5  N   UNL     1      26.192  46.777  51.385  1.00  0.00    -0.183 NA
HETATM    6  C   UNL     1      25.912  46.469  52.610  1.00  0.00     0.153 C 
BRANCH   6   7
HETATM    7  C   UNL     1      26.879  45.761  53.428  1.00  0.00     0.018 A 
HETATM    8  C   UNL     1      27.565  46.253  54.531  1.00  0.00     0.018 A 
HETATM    9  C   UNL     1      27.531  47.587  55.192  1.00  0.00     0.069 C 
HETATM   10  N   UNL     1      28.375  45.250  55.002  1.00  0.00    -0.358 N 
HETATM   11  H   UNL     1      28.989  45.329  55.801  1.00  0.00     0.166 HD
HETATM   12  C   UNL     1      28.238  44.117  54.240  1.00  0.00     0.043 A 
HETATM   13  C   UNL     1      27.305  44.402  53.242  1.00  0.00     0.004 A 
HETATM   14  C   UNL     1      28.866  42.870  54.361  1.00  0.00     0.030 A 
HETATM   15  C   UNL     1      26.986  43.384  52.318  1.00  0.00     0.014 A 
HETATM   16  C   UNL     1      27.604  42.133  52.424  1.00  0.00     0.001 A 
HETATM   17  C   UNL     1      28.530  41.882  53.432  1.00  0.00     0.002 A 
ENDBRANCH   6   7
ENDBRANCH   1   5
BRANCH   2  18
HETATM   18  C   UNL     1      24.446  48.916  48.989  1.00  0.00     0.121 A 
HETATM   19  N   UNL     1      24.630  49.732  47.909  1.00  0.00    -0.272 N 
HETATM   20  H   UNL     1      25.511  49.931  47.443  1.00  0.00     0.189 HD
HETATM   21  N   UNL     1      23.504  50.304  47.454  1.00  0.00    -0.174 NA
HETATM   22  C   UNL     1      22.541  49.860  48.278  1.00  0.00     0.091 A 
HETATM   23  C   UNL     1      23.088  48.959  49.234  1.00  0.00     0.071 A 
BRANCH  22  24
HETATM   24  C   UNL     1      21.146  50.266  48.094  1.00  0.00     0.016 A 
HETATM   25  C   UNL     1      20.168  49.453  47.496  1.00  0.00     0.046 A 
HETATM   26 CL   UNL     1      20.474  47.836  46.957  1.00  0.00    -0.083 Cl
HETATM   27  C   UNL     1      18.854  49.921  47.342  1.00  0.00     0.025 A 
HETATM   28  C   UNL     1      18.500  51.194  47.788  1.00  0.00     0.002 A 
HETATM   29  C   UNL     1      19.453  52.004  48.395  1.00  0.00     0.001 A 
HETATM   30  C   UNL     1      20.762  51.543  48.547  1.00  0.00     0.015 A 
ENDBRANCH  22  24
ENDBRANCH   2  18
TORSDOF 4
ENDMDL
MODEL 5
REMARK VINA RESULT:      -9.6      5.375      7.896
REMARK  4 active torsions:
REMARK  status: ('A' for Active; 'I' for Inactive)
REMARK    1  A    between atoms: C_7  and  C_8 
REMARK    2  A    between atoms: N_9  and  N_10 
REMARK       I    between atoms: N_10  and  C_11 
REMARK    3  A    between atoms: C_11  and  C_12 
REMARK    4  A    between atoms: C_16  and  C_17 
ROOT
HETATM    1  N   UNL     1      29.164  41.315  52.278  1.00  0.00    -0.242 N 
HETATM    2  C   UNL     1      28.047  40.996  51.521  1.00  0.00     0.289 C 
HETATM    3  O   UNL     1      26.904  41.363  51.781  1.00  0.00    -0.264 OA
HETATM    4  H   UNL     1      30.073  40.943  52.034  1.00  0.00     0.192 HD
ENDROOT
BRANCH   1   5
HETATM    5  N   UNL     1      29.031  42.073  53.409  1.00  0.00    -0.183 NA
HETATM    6  C   UNL     1      29.345  43.323  53.293  1.00  0.00     0.153 C 
BRANCH   6   7
HETATM    7  C   UNL     1      29.245  44.213  54.436  1.00  0.00     0.018 A 
HETATM    8  C   UNL     1      28.336  45.247  54.616  1.00  0.00     0.018 A 
HETATM    9  C   UNL     1      27.235  45.748  53.747  1.00  0.00     0.069 C 
HETATM   10  N   UNL     1      28.597  45.827  55.832  1.00  0.00    -0.358 N 
HETATM   11  H   UNL     1      28.087  46.607  56.223  1.00  0.00     0.166 HD
HETATM   12  C   UNL     1      29.649  45.200  56.453  1.00  0.00     0.043 A 
HETATM   13  C   UNL     1      30.079  44.181  55.604  1.00  0.00     0.004 A 
HETATM   14  C   UNL     1      30.244  45.459  57.694  1.00  0.00     0.030 A 
HETATM   15  C   UNL     1      31.164  43.379  56.022  1.00  0.00     0.014 A 
HETATM   16  C   UNL     1      31.770  43.624  57.259  1.00  0.00     0.001 A 
HETATM   17  C   UNL     1      31.315  44.650  58.082  1.00  0.00     0.002 A 
ENDBRANCH   6   7
ENDBRANCH   1   5
BRANCH   2  18
HETATM   18  C   UNL     1      28.317  40.163  50.375  1.00  0.00     0.121 A 
HETATM   19  N   UNL     1      29.361  39.279  50.375  1.00  0.00    -0.272 N 
HETATM   20  H   UNL     1      30.016  39.116  51.134  1.00  0.00     0.189 HD
HETATM   21  N   UNL     1      29.490  38.582  49.236  1.00  0.00    -0.174 NA
HETATM   22  C   UNL     1      28.503  39.034  48.447  1.00  0.00     0.091 A 
HETATM   23  C   UNL     1      27.723  40.003  49.139  1.00  0.00     0.071 A 
BRANCH  22  24
HETATM   24  C   UNL     1      28.309  38.496  47.098  1.00  0.00     0.016 A 
HETATM   25  C   UNL     1      28.104  39.293  45.960  1.00  0.00     0.046 A 
HETATM   26 CL   UNL     1      28.119  41.025  45.996  1.00  0.00    -0.083 Cl
HETATM   27  C   UNL     1      27.912  38.700  44.703  1.00  0.00     0.025 A 
HETATM   28  C   UNL     1      27.929  37.312  44.566  1.00  0.00     0.002 A 
HETATM   29  C   UNL     1      28.146  36.510  45.680  1.00  0.00     0.001 A 
HETATM   30  C   UNL     1      28.336  37.097  46.934  1.00  0.00     0.015 A 
ENDBRANCH  22  24
ENDBRANCH   2  18
TORSDOF 4
ENDMDL
MODEL 6
REMARK VINA RESULT:      -9.3      2.784     10.628
REMARK  4 active torsions:
REMARK  status: ('A' for Active; 'I' for Inactive)
REMARK    1  A    between atoms: C_7  and  C_8 
REMARK    2  A    between atoms: N_9  and  N_10 
REMARK       I    between atoms: N_10  and  C_11 
REMARK    3  A    between atoms: C_11  and  C_12 
REMARK    4  A    between atoms: C_16  and  C_17 
ROOT
HETATM    1  N   UNL     1      23.336  47.697  49.958  1.00  0.00    -0.242 N 
HETATM    2  C   UNL     1      23.905  46.439  49.824  1.00  0.00     0.289 C 
HETATM    3  O   UNL     1      23.790  45.728  48.830  1.00  0.00    -0.264 OA
HETATM    4  H   UNL     1      23.432  48.214  50.822  1.00  0.00     0.192 HD
ENDROOT
BRANCH   1   5
HETATM    5  N   UNL     1      22.574  48.214  48.947  1.00  0.00    -0.183 NA
HETATM    6  C   UNL     1      21.300  48.267  49.167  1.00  0.00     0.153 C 
BRANCH   6   7
HETATM    7  C   UNL     1      20.402  48.794  48.156  1.00  0.00     0.018 A 
HETATM    8  C   UNL     1      19.982  48.158  46.995  1.00  0.00     0.018 A 
HETATM    9  C   UNL     1      20.298  46.810  46.445  1.00  0.00     0.069 C 
HETATM   10  N   UNL     1      19.140  49.013  46.329  1.00  0.00    -0.358 N 
HETATM   11  H   UNL     1      18.684  48.811  45.451  1.00  0.00     0.166 HD
HETATM   12  C   UNL     1      18.996  50.189  47.023  1.00  0.00     0.043 A 
HETATM   13  C   UNL     1      19.775  50.085  48.176  1.00  0.00     0.004 A 
HETATM   14  C   UNL     1      18.239  51.327  46.716  1.00  0.00     0.030 A 
HETATM   15  C   UNL     1      19.795  51.180  49.067  1.00  0.00     0.014 A 
HETATM   16  C   UNL     1      19.044  52.324  48.776  1.00  0.00     0.001 A 
HETATM   17  C   UNL     1      18.279  52.395  47.617  1.00  0.00     0.002 A 
ENDBRANCH   6   7
ENDBRANCH   1   5
BRANCH   2  18
HETATM   18  C   UNL     1      24.655  45.995  50.973  1.00  0.00     0.121 A 
HETATM   19  N   UNL     1      24.281  44.882  51.673  1.00  0.00    -0.272 N 
HETATM   20  H   UNL     1      23.489  44.277  51.471  1.00  0.00     0.189 HD
HETATM   21  N   UNL     1      25.070  44.600  52.720  1.00  0.00    -0.174 NA
HETATM   22  C   UNL     1      25.993  45.575  52.723  1.00  0.00     0.091 A 
HETATM   23  C   UNL     1      25.786  46.451  51.620  1.00  0.00     0.071 A 
BRANCH  22  24
HETATM   24  C   UNL     1      27.054  45.606  53.732  1.00  0.00     0.016 A 
HETATM   25  C   UNL     1      27.218  46.646  54.662  1.00  0.00     0.046 A 
HETATM   26 CL   UNL     1      26.142  47.998  54.778  1.00  0.00    -0.083 Cl
HETATM   27  C   UNL     1      28.271  46.609  55.588  1.00  0.00     0.025 A 
HETATM   28  C   UNL     1      29.164  45.538  55.603  1.00  0.00     0.002 A 
HETATM   29  C   UNL     1      29.006  44.494  54.698  1.00  0.00     0.001 A 
HETATM   30  C   UNL     1      27.960  44.528  53.773  1.00  0.00     0.015 A 
ENDBRANCH  22  24
ENDBRANCH   2  18
TORSDOF 4
ENDMDL
MODEL 7
REMARK VINA RESULT:      -9.3      2.241      9.926
REMARK  4 active torsions:
REMARK  status: ('A' for Active; 'I' for Inactive)
REMARK    1  A    between atoms: C_7  and  C_8 
REMARK    2  A    between atoms: N_9  and  N_10 
REMARK       I    between atoms: N_10  and  C_11 
REMARK    3  A    between atoms: C_11  and  C_12 
REMARK    4  A    between atoms: C_16  and  C_17 
ROOT
HETATM    1  N   UNL     1      25.140  45.464  50.518  1.00  0.00    -0.242 N 
HETATM    2  C   UNL     1      25.095  44.349  51.341  1.00  0.00     0.289 C 
HETATM    3  O   UNL     1      24.120  43.611  51.458  1.00  0.00    -0.264 OA
HETATM    4  H   UNL     1      25.960  46.056  50.501  1.00  0.00     0.192 HD
ENDROOT
BRANCH   1   5
HETATM    5  N   UNL     1      24.042  45.816  49.781  1.00  0.00    -0.183 NA
HETATM    6  C   UNL     1      23.962  47.062  49.443  1.00  0.00     0.153 C 
BRANCH   6   7
HETATM    7  C   UNL     1      22.833  47.539  48.666  1.00  0.00     0.018 A 
HETATM    8  C   UNL     1      22.096  46.824  47.731  1.00  0.00     0.018 A 
HETATM    9  C   UNL     1      22.219  45.419  47.252  1.00  0.00     0.069 C 
HETATM   10  N   UNL     1      21.124  47.657  47.237  1.00  0.00    -0.358 N 
HETATM   11  H   UNL     1      20.440  47.400  46.539  1.00  0.00     0.166 HD
HETATM   12  C   UNL     1      21.202  48.896  47.824  1.00  0.00     0.043 A 
HETATM   13  C   UNL     1      22.264  48.857  48.727  1.00  0.00     0.004 A 
HETATM   14  C   UNL     1      20.416  50.038  47.622  1.00  0.00     0.030 A 
HETATM   15  C   UNL     1      22.553  50.024  49.467  1.00  0.00     0.014 A 
HETATM   16  C   UNL     1      21.777  51.173  49.279  1.00  0.00     0.001 A 
HETATM   17  C   UNL     1      20.725  51.178  48.369  1.00  0.00     0.002 A 
ENDBRANCH   6   7
ENDBRANCH   1   5
BRANCH   2  18
HETATM   18  C   UNL     1      26.303  44.107  52.090  1.00  0.00     0.121 A 
HETATM   19  N   UNL     1      27.169  43.111  51.733  1.00  0.00    -0.272 N 
HETATM   20  H   UNL     1      27.069  42.475  50.947  1.00  0.00     0.189 HD
HETATM   21  N   UNL     1      28.243  43.004  52.530  1.00  0.00    -0.174 NA
HETATM   22  C   UNL     1      28.072  43.956  53.461  1.00  0.00     0.091 A 
HETATM   23  C   UNL     1      26.883  44.693  53.198  1.00  0.00     0.071 A 
BRANCH  22  24
HETATM   24  C   UNL     1      29.061  44.160  54.521  1.00  0.00     0.016 A 
HETATM   25  C   UNL     1      29.198  45.358  55.244  1.00  0.00     0.046 A 
HETATM   26 CL   UNL     1      28.166  46.730  55.015  1.00  0.00    -0.083 Cl
HETATM   27  C   UNL     1      30.181  45.480  56.236  1.00  0.00     0.025 A 
HETATM   28  C   UNL     1      31.031  44.412  56.525  1.00  0.00     0.002 A 
HETATM   29  C   UNL     1      30.898  43.215  55.829  1.00  0.00     0.001 A 
HETATM   30  C   UNL     1      29.922  43.091  54.838  1.00  0.00     0.015 A 
ENDBRANCH  22  24
ENDBRANCH   2  18
TORSDOF 4
ENDMDL
MODEL 8
REMARK VINA RESULT:      -9.0      2.777     10.093
REMARK  4 active torsions:
REMARK  status: ('A' for Active; 'I' for Inactive)
REMARK    1  A    between atoms: C_7  and  C_8 
REMARK    2  A    between atoms: N_9  and  N_10 
REMARK       I    between atoms: N_10  and  C_11 
REMARK    3  A    between atoms: C_11  and  C_12 
REMARK    4  A    between atoms: C_16  and  C_17 
ROOT
HETATM    1  N   UNL     1      25.327  45.976  50.640  1.00  0.00    -0.242 N 
HETATM    2  C   UNL     1      24.950  44.961  51.506  1.00  0.00     0.289 C 
HETATM    3  O   UNL     1      23.873  44.371  51.457  1.00  0.00    -0.264 OA
HETATM    4  H   UNL     1      26.211  46.452  50.762  1.00  0.00     0.192 HD
ENDROOT
BRANCH   1   5
HETATM    5  N   UNL     1      24.470  46.393  49.660  1.00  0.00    -0.183 NA
HETATM    6  C   UNL     1      23.835  47.496  49.893  1.00  0.00     0.153 C 
BRANCH   6   7
HETATM    7  C   UNL     1      22.897  48.023  48.919  1.00  0.00     0.018 A 
HETATM    8  C   UNL     1      22.918  49.280  48.329  1.00  0.00     0.018 A 
HETATM    9  C   UNL     1      23.854  50.426  48.495  1.00  0.00     0.069 C 
HETATM   10  N   UNL     1      21.849  49.358  47.471  1.00  0.00    -0.358 N 
HETATM   11  H   UNL     1      21.618  50.163  46.906  1.00  0.00     0.166 HD
HETATM   12  C   UNL     1      21.132  48.187  47.482  1.00  0.00     0.043 A 
HETATM   13  C   UNL     1      21.762  47.327  48.380  1.00  0.00     0.004 A 
HETATM   14  C   UNL     1      19.981  47.832  46.767  1.00  0.00     0.030 A 
HETATM   15  C   UNL     1      21.210  46.042  48.571  1.00  0.00     0.014 A 
HETATM   16  C   UNL     1      20.060  45.670  47.865  1.00  0.00     0.001 A 
HETATM   17  C   UNL     1      19.456  46.554  46.976  1.00  0.00     0.002 A 
ENDBRANCH   6   7
ENDBRANCH   1   5
BRANCH   2  18
HETATM   18  C   UNL     1      25.928  44.639  52.516  1.00  0.00     0.121 A 
HETATM   19  N   UNL     1      26.022  43.376  53.031  1.00  0.00    -0.272 N 
HETATM   20  H   UNL     1      25.455  42.573  52.772  1.00  0.00     0.189 HD
HETATM   21  N   UNL     1      26.973  43.233  53.966  1.00  0.00    -0.174 NA
HETATM   22  C   UNL     1      27.518  44.454  54.086  1.00  0.00     0.091 A 
HETATM   23  C   UNL     1      26.912  45.356  53.167  1.00  0.00     0.071 A 
BRANCH  22  24
HETATM   24  C   UNL     1      28.616  44.701  55.023  1.00  0.00     0.016 A 
HETATM   25  C   UNL     1      29.851  44.032  54.974  1.00  0.00     0.046 A 
HETATM   26 CL   UNL     1      30.257  42.872  53.753  1.00  0.00    -0.083 Cl
HETATM   27  C   UNL     1      30.849  44.315  55.918  1.00  0.00     0.025 A 
HETATM   28  C   UNL     1      30.633  45.269  56.913  1.00  0.00     0.002 A 
HETATM   29  C   UNL     1      29.421  45.949  56.965  1.00  0.00     0.001 A 
HETATM   30  C   UNL     1      28.424  45.669  56.028  1.00  0.00     0.015 A 
ENDBRANCH  22  24
ENDBRANCH   2  18
TORSDOF 4
ENDMDL
MODEL 9
REMARK VINA RESULT:      -8.9      6.229     10.314
REMARK  4 active torsions:
REMARK  status: ('A' for Active; 'I' for Inactive)
REMARK    1  A    between atoms: C_7  and  C_8 
REMARK    2  A    between atoms: N_9  and  N_10 
REMARK       I    between atoms: N_10  and  C_11 
REMARK    3  A    between atoms: C_11  and  C_12 
REMARK    4  A    between atoms: C_16  and  C_17 
ROOT
HETATM    1  N   UNL     1      28.687  40.479  51.193  1.00  0.00    -0.242 N 
HETATM    2  C   UNL     1      28.042  41.507  51.864  1.00  0.00     0.289 C 
HETATM    3  O   UNL     1      26.875  41.837  51.671  1.00  0.00    -0.264 OA
HETATM    4  H   UNL     1      29.665  40.286  51.367  1.00  0.00     0.192 HD
ENDROOT
BRANCH   1   5
HETATM    5  N   UNL     1      28.024  39.767  50.232  1.00  0.00    -0.183 NA
HETATM    6  C   UNL     1      28.497  39.858  49.031  1.00  0.00     0.153 C 
BRANCH   6   7
HETATM    7  C   UNL     1      27.862  39.146  47.937  1.00  0.00     0.018 A 
HETATM    8  C   UNL     1      27.254  37.898  47.989  1.00  0.00     0.018 A 
HETATM    9  C   UNL     1      27.068  36.944  49.117  1.00  0.00     0.069 C 
HETATM   10  N   UNL     1      26.787  37.607  46.732  1.00  0.00    -0.358 N 
HETATM   11  H   UNL     1      26.299  36.760  46.476  1.00  0.00     0.166 HD
HETATM   12  C   UNL     1      27.070  38.630  45.860  1.00  0.00     0.043 A 
HETATM   13  C   UNL     1      27.744  39.613  46.584  1.00  0.00     0.004 A 
HETATM   14  C   UNL     1      26.779  38.754  44.495  1.00  0.00     0.030 A 
HETATM   15  C   UNL     1      28.149  40.782  45.903  1.00  0.00     0.014 A 
HETATM   16  C   UNL     1      27.866  40.923  44.540  1.00  0.00     0.001 A 
HETATM   17  C   UNL     1      27.191  39.922  43.848  1.00  0.00     0.002 A 
ENDBRANCH   6   7
ENDBRANCH   1   5
BRANCH   2  18
HETATM   18  C   UNL     1      28.862  42.201  52.827  1.00  0.00     0.121 A 
HETATM   19  N   UNL     1      30.205  42.360  52.627  1.00  0.00    -0.272 N 
HETATM   20  H   UNL     1      30.740  42.035  51.827  1.00  0.00     0.189 HD
HETATM   21  N   UNL     1      30.833  43.019  53.612  1.00  0.00    -0.174 NA
HETATM   22  C   UNL     1      29.870  43.291  54.507  1.00  0.00     0.091 A 
HETATM   23  C   UNL     1      28.611  42.824  54.033  1.00  0.00     0.071 A 
BRANCH  22  24
HETATM   24  C   UNL     1      30.171  44.023  55.740  1.00  0.00     0.016 A 
HETATM   25  C   UNL     1      29.606  45.267  56.069  1.00  0.00     0.046 A 
HETATM   26 CL   UNL     1      28.427  46.067  55.084  1.00  0.00    -0.083 Cl
HETATM   27  C   UNL     1      29.958  45.911  57.263  1.00  0.00     0.025 A 
HETATM   28  C   UNL     1      30.865  45.324  58.145  1.00  0.00     0.002 A 
HETATM   29  C   UNL     1      31.421  44.086  57.840  1.00  0.00     0.001 A 
HETATM   30  C   UNL     1      31.075  43.442  56.650  1.00  0.00     0.015 A 
ENDBRANCH  22  24
ENDBRANCH   2  18
TORSDOF 4
ENDMDL
MODEL 10
REMARK VINA RESULT:      -8.8      6.119     10.262
REMARK  4 active torsions:
REMARK  status: ('A' for Active; 'I' for Inactive)
REMARK    1  A    between atoms: C_7  and  C_8 
REMARK    2  A    between atoms: N_9  and  N_10 
REMARK       I    between atoms: N_10  and  C_11 
REMARK    3  A    between atoms: C_11  and  C_12 
REMARK    4  A    between atoms: C_16  and  C_17 
ROOT
HETATM    1  N   UNL     1      28.681  40.728  50.967  1.00  0.00    -0.242 N 
HETATM    2  C   UNL     1      28.010  41.645  51.762  1.00  0.00     0.289 C 
HETATM    3  O   UNL     1      26.817  41.916  51.652  1.00  0.00    -0.264 OA
HETATM    4  H   UNL     1      29.676  40.583  51.079  1.00  0.00     0.192 HD
ENDROOT
BRANCH   1   5
HETATM    5  N   UNL     1      28.015  40.068  49.971  1.00  0.00    -0.183 NA
HETATM    6  C   UNL     1      28.609  40.027  48.823  1.00  0.00     0.153 C 
BRANCH   6   7
HETATM    7  C   UNL     1      27.984  39.356  47.697  1.00  0.00     0.018 A 
HETATM    8  C   UNL     1      27.864  39.833  46.398  1.00  0.00     0.018 A 
HETATM    9  C   UNL     1      28.311  41.110  45.777  1.00  0.00     0.069 C 
HETATM   10  N   UNL     1      27.207  38.879  45.661  1.00  0.00    -0.358 N 
HETATM   11  H   UNL     1      26.982  38.959  44.679  1.00  0.00     0.166 HD
HETATM   12  C   UNL     1      26.897  37.792  46.440  1.00  0.00     0.043 A 
HETATM   13  C   UNL     1      27.371  38.058  47.725  1.00  0.00     0.004 A 
HETATM   14  C   UNL     1      26.237  36.603  46.103  1.00  0.00     0.030 A 
HETATM   15  C   UNL     1      27.172  37.080  48.724  1.00  0.00     0.014 A 
HETATM   16  C   UNL     1      26.516  35.886  48.404  1.00  0.00     0.001 A 
HETATM   17  C   UNL     1      26.055  35.654  47.112  1.00  0.00     0.002 A 
ENDBRANCH   6   7
ENDBRANCH   1   5
BRANCH   2  18
HETATM   18  C   UNL     1      28.832  42.297  52.750  1.00  0.00     0.121 A 
HETATM   19  N   UNL     1      30.188  42.381  52.597  1.00  0.00    -0.272 N 
HETATM   20  H   UNL     1      30.732  42.023  51.817  1.00  0.00     0.189 HD
HETATM   21  N   UNL     1      30.817  43.009  53.602  1.00  0.00    -0.174 NA
HETATM   22  C   UNL     1      29.840  43.338  54.462  1.00  0.00     0.091 A 
HETATM   23  C   UNL     1      28.575  42.939  53.946  1.00  0.00     0.071 A 
BRANCH  22  24
HETATM   24  C   UNL     1      30.138  44.057  55.703  1.00  0.00     0.016 A 
HETATM   25  C   UNL     1      29.565  45.293  56.047  1.00  0.00     0.046 A 
HETATM   26 CL   UNL     1      28.378  46.096  55.074  1.00  0.00    -0.083 Cl
HETATM   27  C   UNL     1      29.914  45.926  57.248  1.00  0.00     0.025 A 
HETATM   28  C   UNL     1      30.828  45.335  58.121  1.00  0.00     0.002 A 
HETATM   29  C   UNL     1      31.392  44.105  57.801  1.00  0.00     0.001 A 
HETATM   30  C   UNL     1      31.049  43.472  56.604  1.00  0.00     0.015 A 
ENDBRANCH  22  24
ENDBRANCH   2  18
TORSDOF 4
ENDMDL
