MODEL 1
REMARK VINA RESULT:      -9.7      0.000      0.000
REMARK  5 active torsions:
REMARK  status: ('A' for Active; 'I' for Inactive)
REMARK    1  A    between atoms: C_2  and  C_3 
REMARK    2  A    between atoms: C_7  and  N_8 
REMARK    3  A    between atoms: C_13  and  N_14 
REMARK       I    between atoms: N_14  and  C_15 
REMARK    4  A    between atoms: C_15  and  C_16 
REMARK       I    between atoms: C_16  and  N_17 
REMARK    5  A    between atoms: N_17  and  C_18 
ROOT
HETATM    1  N   UNL     1      28.033  43.042  52.403  1.00  0.00    -0.045 N 
HETATM    2  N   UNL     1      28.613  41.826  52.194  1.00  0.00    -0.156 NA
HETATM    3  C   UNL     1      27.974  41.335  51.126  1.00  0.00     0.055 A 
HETATM    4  C   UNL     1      28.319  39.998  50.582  1.00  0.00     0.072 C 
HETATM    5  C   UNL     1      26.994  42.232  50.642  1.00  0.00     0.079 A 
HETATM    6  C   UNL     1      27.042  43.325  51.477  1.00  0.00     0.152 A 
ENDROOT
BRANCH   6   7
HETATM    7  N   UNL     1      26.269  44.483  51.439  1.00  0.00    -0.303 N 
HETATM    8  C   UNL     1      26.417  45.516  50.459  1.00  0.00     0.315 C 
HETATM    9  O   UNL     1      27.281  45.503  49.598  1.00  0.00    -0.262 OA
HETATM   10  H   UNL     1      25.546  44.608  52.158  1.00  0.00     0.171 HD
BRANCH   8  11
HETATM   11  C   UNL     1      25.401  46.669  50.552  1.00  0.00     0.310 C 
HETATM   12  N   UNL     1      24.462  46.667  49.542  1.00  0.00    -0.348 N 
HETATM   13  H   UNL     1      24.577  45.978  48.802  1.00  0.00     0.163 HD
HETATM   14  O   UNL     1      25.487  47.460  51.480  1.00  0.00    -0.262 OA
BRANCH  12  15
HETATM   15  C   UNL     1      23.395  47.654  49.409  1.00  0.00     0.085 C 
HETATM   16  C   UNL     1      22.342  47.122  48.426  1.00  0.00     0.034 C 
HETATM   17  C   UNL     1      21.206  48.119  48.116  1.00  0.00    -0.045 C 
HETATM   18  C   UNL     1      20.280  48.282  49.336  1.00  0.00     0.015 C 
HETATM   19  C   UNL     1      20.362  47.565  46.952  1.00  0.00     0.015 C 
HETATM   20  C   UNL     1      21.804  49.481  47.696  1.00  0.00     0.013 C 
HETATM   21  C   UNL     1      22.840  50.028  48.689  1.00  0.00    -0.016 C 
HETATM   22  C   UNL     1      23.428  51.342  48.174  1.00  0.00     0.010 C 
HETATM   23  C   UNL     1      23.954  49.002  48.942  1.00  0.00     0.029 C 
ENDBRANCH  12  15
ENDBRANCH   8  11
ENDBRANCH   6   7
BRANCH   1  24
HETATM   24  C   UNL     1      28.466  43.854  53.461  1.00  0.00     0.732 A 
HETATM   25  N   UNL     1      29.479  43.273  54.161  1.00  0.00    -0.152 N 
HETATM   26  C   UNL     1      30.062  43.897  55.215  1.00  0.00     0.268 A 
HETATM   27  H   UNL     1      29.826  42.358  53.888  1.00  0.00     0.188 HD
HETATM   28  C   UNL     1      29.502  45.238  55.550  1.00  0.00     0.035 A 
HETATM   29  O   UNL     1      30.985  43.388  55.838  1.00  0.00    -0.267 OA
HETATM   30  C   UNL     1      28.486  45.702  54.786  1.00  0.00     0.061 A 
HETATM   31  N   UNL     1      27.948  45.013  53.711  1.00  0.00    -0.067 NA
HETATM   32  C   UNL     1      27.844  47.049  55.010  1.00  0.00     0.072 C 
BRANCH  28  33
HETATM   33  C   UNL     1      30.114  45.915  56.749  1.00  0.00     0.042 C 
HETATM   34  C   UNL     1      29.208  45.839  57.971  1.00  0.00     0.010 C 
ENDBRANCH  28  33
ENDBRANCH   1  24
TORSDOF 5
ENDMDL
MODEL 2
REMARK VINA RESULT:      -9.1      2.819      9.315
REMARK  5 active torsions:
REMARK  status: ('A' for Active; 'I' for Inactive)
REMARK    1  A    between atoms: C_2  and  C_3 
REMARK    2  A    between atoms: C_7  and  N_8 
REMARK    3  A    between atoms: C_13  and  N_14 
REMARK       I    between atoms: N_14  and  C_15 
REMARK    4  A    between atoms: C_15  and  C_16 
REMARK       I    between atoms: C_16  and  N_17 
REMARK    5  A    between atoms: N_17  and  C_18 
ROOT
HETATM    1  N   UNL     1      21.278  45.790  47.577  1.00  0.00    -0.045 N 
HETATM    2  N   UNL     1      20.213  45.301  46.880  1.00  0.00    -0.156 NA
HETATM    3  C   UNL     1      20.540  44.029  46.626  1.00  0.00     0.055 A 
HETATM    4  C   UNL     1      19.622  43.147  45.863  1.00  0.00     0.072 C 
HETATM    5  C   UNL     1      21.804  43.694  47.163  1.00  0.00     0.079 A 
HETATM    6  C   UNL     1      22.268  44.839  47.770  1.00  0.00     0.152 A 
ENDROOT
BRANCH   6   7
HETATM    7  N   UNL     1      23.475  45.043  48.435  1.00  0.00    -0.303 N 
HETATM    8  C   UNL     1      23.751  44.574  49.759  1.00  0.00     0.315 C 
HETATM    9  O   UNL     1      22.926  44.001  50.453  1.00  0.00    -0.262 OA
HETATM   10  H   UNL     1      24.215  45.562  47.950  1.00  0.00     0.171 HD
BRANCH   8  11
HETATM   11  C   UNL     1      25.180  44.836  50.271  1.00  0.00     0.310 C 
HETATM   12  N   UNL     1      25.473  44.195  51.457  1.00  0.00    -0.348 N 
HETATM   13  H   UNL     1      24.713  43.696  51.915  1.00  0.00     0.163 HD
HETATM   14  O   UNL     1      25.922  45.550  49.613  1.00  0.00    -0.262 OA
BRANCH  12  15
HETATM   15  C   UNL     1      26.756  44.284  52.143  1.00  0.00     0.085 C 
HETATM   16  C   UNL     1      27.200  42.873  52.559  1.00  0.00     0.034 C 
HETATM   17  C   UNL     1      28.500  42.839  53.391  1.00  0.00    -0.045 C 
HETATM   18  C   UNL     1      29.716  43.181  52.509  1.00  0.00     0.015 C 
HETATM   19  C   UNL     1      28.700  41.414  53.941  1.00  0.00     0.015 C 
HETATM   20  C   UNL     1      28.389  43.822  54.578  1.00  0.00     0.013 C 
HETATM   21  C   UNL     1      27.970  45.240  54.163  1.00  0.00    -0.016 C 
HETATM   22  C   UNL     1      27.823  46.133  55.395  1.00  0.00     0.010 C 
HETATM   23  C   UNL     1      26.662  45.213  53.358  1.00  0.00     0.029 C 
ENDBRANCH  12  15
ENDBRANCH   8  11
ENDBRANCH   6   7
BRANCH   1  24
HETATM   24  C   UNL     1      21.278  47.120  48.020  1.00  0.00     0.732 A 
HETATM   25  N   UNL     1      20.252  47.365  48.880  1.00  0.00    -0.152 N 
HETATM   26  C   UNL     1      20.078  48.586  49.446  1.00  0.00     0.268 A 
HETATM   27  H   UNL     1      19.605  46.621  49.125  1.00  0.00     0.188 HD
HETATM   28  C   UNL     1      21.070  49.623  49.042  1.00  0.00     0.035 A 
HETATM   29  O   UNL     1      19.168  48.809  50.234  1.00  0.00    -0.267 OA
HETATM   30  C   UNL     1      22.037  49.258  48.169  1.00  0.00     0.061 A 
HETATM   31  N   UNL     1      22.164  47.984  47.641  1.00  0.00    -0.067 NA
HETATM   32  C   UNL     1      23.110  50.207  47.695  1.00  0.00     0.072 C 
BRANCH  28  33
HETATM   33  C   UNL     1      20.853  50.993  49.631  1.00  0.00     0.042 C 
HETATM   34  C   UNL     1      19.953  51.853  48.754  1.00  0.00     0.010 C 
ENDBRANCH  28  33
ENDBRANCH   1  24
TORSDOF 5
ENDMDL
MODEL 3
REMARK VINA RESULT:      -9.0      2.495      7.750
REMARK  5 active torsions:
REMARK  status: ('A' for Active; 'I' for Inactive)
REMARK    1  A    between atoms: C_2  and  C_3 
REMARK    2  A    between atoms: C_7  and  N_8 
REMARK    3  A    between atoms: C_13  and  N_14 
REMARK       I    between atoms: N_14  and  C_15 
REMARK    4  A    between atoms: C_15  and  C_16 
REMARK       I    between atoms: C_16  and  N_17 
REMARK    5  A    between atoms: N_17  and  C_18 
ROOT
HETATM    1  N   UNL     1      25.207  46.384  51.342  1.00  0.00    -0.045 N 
HETATM    2  N   UNL     1      24.795  47.670  51.149  1.00  0.00    -0.156 NA
HETATM    3  C   UNL     1      24.117  47.629  49.997  1.00  0.00     0.055 A 
HETATM    4  C   UNL     1      23.508  48.859  49.432  1.00  0.00     0.072 C 
HETATM    5  C   UNL     1      24.082  46.325  49.453  1.00  0.00     0.079 A 
HETATM    6  C   UNL     1      24.790  45.535  50.329  1.00  0.00     0.152 A 
ENDROOT
BRANCH   6   7
HETATM    7  N   UNL     1      25.063  44.172  50.245  1.00  0.00    -0.303 N 
HETATM    8  C   UNL     1      26.307  43.628  49.794  1.00  0.00     0.315 C 
HETATM    9  O   UNL     1      27.228  44.315  49.381  1.00  0.00    -0.262 OA
HETATM   10  H   UNL     1      24.327  43.511  50.522  1.00  0.00     0.171 HD
BRANCH   8  11
HETATM   11  C   UNL     1      26.425  42.095  49.861  1.00  0.00     0.310 C 
HETATM   12  N   UNL     1      27.024  41.532  48.753  1.00  0.00    -0.348 N 
HETATM   13  H   UNL     1      27.245  42.155  47.979  1.00  0.00     0.163 HD
HETATM   14  O   UNL     1      26.010  41.512  50.853  1.00  0.00    -0.262 OA
BRANCH  12  15
HETATM   15  C   UNL     1      27.250  40.102  48.579  1.00  0.00     0.085 C 
HETATM   16  C   UNL     1      28.361  39.651  49.539  1.00  0.00     0.034 C 
HETATM   17  C   UNL     1      28.772  38.172  49.381  1.00  0.00    -0.045 C 
HETATM   18  C   UNL     1      27.661  37.243  49.906  1.00  0.00     0.015 C 
HETATM   19  C   UNL     1      30.039  37.915  50.220  1.00  0.00     0.015 C 
HETATM   20  C   UNL     1      29.084  37.870  47.898  1.00  0.00     0.013 C 
HETATM   21  C   UNL     1      27.965  38.297  46.936  1.00  0.00    -0.016 C 
HETATM   22  C   UNL     1      28.375  38.023  45.489  1.00  0.00     0.010 C 
HETATM   23  C   UNL     1      27.615  39.780  47.125  1.00  0.00     0.029 C 
ENDBRANCH  12  15
ENDBRANCH   8  11
ENDBRANCH   6   7
BRANCH   1  24
HETATM   24  C   UNL     1      25.957  46.049  52.478  1.00  0.00     0.732 A 
HETATM   25  N   UNL     1      26.395  47.157  53.138  1.00  0.00    -0.152 N 
HETATM   26  C   UNL     1      27.123  47.061  54.278  1.00  0.00     0.268 A 
HETATM   27  H   UNL     1      26.163  48.081  52.788  1.00  0.00     0.188 HD
HETATM   28  C   UNL     1      27.417  45.671  54.732  1.00  0.00     0.035 A 
HETATM   29  O   UNL     1      27.505  48.052  54.887  1.00  0.00    -0.267 OA
HETATM   30  C   UNL     1      26.937  44.652  53.981  1.00  0.00     0.061 A 
HETATM   31  N   UNL     1      26.184  44.825  52.831  1.00  0.00    -0.067 NA
HETATM   32  C   UNL     1      27.150  43.203  54.340  1.00  0.00     0.072 C 
BRANCH  28  33
HETATM   33  C   UNL     1      28.267  45.560  55.971  1.00  0.00     0.042 C 
HETATM   34  C   UNL     1      29.750  45.464  55.639  1.00  0.00     0.010 C 
ENDBRANCH  28  33
ENDBRANCH   1  24
TORSDOF 5
ENDMDL
MODEL 4
REMARK VINA RESULT:      -9.0      2.742      6.004
REMARK  5 active torsions:
REMARK  status: ('A' for Active; 'I' for Inactive)
REMARK    1  A    between atoms: C_2  and  C_3 
REMARK    2  A    between atoms: C_7  and  N_8 
REMARK    3  A    between atoms: C_13  and  N_14 
REMARK       I    between atoms: N_14  and  C_15 
REMARK    4  A    between atoms: C_15  and  C_16 
REMARK       I    between atoms: C_16  and  N_17 
REMARK    5  A    between atoms: N_17  and  C_18 
ROOT
HETATM    1  N   UNL     1      25.555  45.263  51.587  1.00  0.00    -0.045 N 
HETATM    2  N   UNL     1      26.461  44.952  52.559  1.00  0.00    -0.156 NA
HETATM    3  C   UNL     1      26.565  46.072  53.282  1.00  0.00     0.055 A 
HETATM    4  C   UNL     1      27.480  46.138  54.450  1.00  0.00     0.072 C 
HETATM    5  C   UNL     1      25.727  47.097  52.789  1.00  0.00     0.079 A 
HETATM    6  C   UNL     1      25.085  46.562  51.696  1.00  0.00     0.152 A 
ENDROOT
BRANCH   6   7
HETATM    7  N   UNL     1      24.162  47.168  50.846  1.00  0.00    -0.303 N 
HETATM    8  C   UNL     1      24.507  48.117  49.833  1.00  0.00     0.315 C 
HETATM    9  O   UNL     1      25.642  48.531  49.660  1.00  0.00    -0.262 OA
HETATM   10  H   UNL     1      23.171  46.921  50.951  1.00  0.00     0.171 HD
BRANCH   8  11
HETATM   11  C   UNL     1      23.340  48.598  48.950  1.00  0.00     0.310 C 
HETATM   12  N   UNL     1      22.113  48.563  49.579  1.00  0.00    -0.348 N 
HETATM   13  H   UNL     1      22.080  48.153  50.510  1.00  0.00     0.163 HD
HETATM   14  O   UNL     1      23.576  48.970  47.810  1.00  0.00    -0.262 OA
BRANCH  12  15
HETATM   15  C   UNL     1      20.858  48.967  48.955  1.00  0.00     0.085 C 
HETATM   16  C   UNL     1      20.432  50.328  49.527  1.00  0.00     0.034 C 
HETATM   17  C   UNL     1      19.059  50.823  49.023  1.00  0.00    -0.045 C 
HETATM   18  C   UNL     1      19.144  51.242  47.544  1.00  0.00     0.015 C 
HETATM   19  C   UNL     1      18.646  52.060  49.843  1.00  0.00     0.015 C 
HETATM   20  C   UNL     1      17.999  49.716  49.220  1.00  0.00     0.013 C 
HETATM   21  C   UNL     1      18.411  48.360  48.628  1.00  0.00    -0.016 C 
HETATM   22  C   UNL     1      17.341  47.307  48.917  1.00  0.00     0.010 C 
HETATM   23  C   UNL     1      19.772  47.911  49.180  1.00  0.00     0.029 C 
ENDBRANCH  12  15
ENDBRANCH   8  11
ENDBRANCH   6   7
BRANCH   1  24
HETATM   24  C   UNL     1      25.192  44.304  50.631  1.00  0.00     0.732 A 
HETATM   25  N   UNL     1      25.618  43.058  50.981  1.00  0.00    -0.152 N 
HETATM   26  C   UNL     1      25.355  41.976  50.205  1.00  0.00     0.268 A 
HETATM   27  H   UNL     1      26.130  42.920  51.846  1.00  0.00     0.188 HD
HETATM   28  C   UNL     1      24.594  42.259  48.954  1.00  0.00     0.035 A 
HETATM   29  O   UNL     1      25.719  40.851  50.521  1.00  0.00    -0.267 OA
HETATM   30  C   UNL     1      24.239  43.542  48.713  1.00  0.00     0.061 A 
HETATM   31  N   UNL     1      24.529  44.599  49.560  1.00  0.00    -0.067 NA
HETATM   32  C   UNL     1      23.453  43.957  47.494  1.00  0.00     0.072 C 
BRANCH  28  33
HETATM   33  C   UNL     1      24.341  41.068  48.066  1.00  0.00     0.042 C 
HETATM   34  C   UNL     1      25.460  40.865  47.053  1.00  0.00     0.010 C 
ENDBRANCH  28  33
ENDBRANCH   1  24
TORSDOF 5
ENDMDL
MODEL 5
REMARK VINA RESULT:      -9.0      3.963     10.221
REMARK  5 active torsions:
REMARK  status: ('A' for Active; 'I' for Inactive)
REMARK    1  A    between atoms: C_2  and  C_3 
REMARK    2  A    between atoms: C_7  and  N_8 
REMARK    3  A    between atoms: C_13  and  N_14 
REMARK       I    between atoms: N_14  and  C_15 
REMARK    4  A    between atoms: C_15  and  C_16 
REMARK       I    between atoms: C_16  and  N_17 
REMARK    5  A    between atoms: N_17  and  C_18 
ROOT
HETATM    1  N   UNL     1      19.968  49.336  48.324  1.00  0.00    -0.045 N 
HETATM    2  N   UNL     1      18.938  50.211  48.144  1.00  0.00    -0.156 NA
HETATM    3  C   UNL     1      19.358  51.340  48.725  1.00  0.00     0.055 A 
HETATM    4  C   UNL     1      18.497  52.549  48.748  1.00  0.00     0.072 C 
HETATM    5  C   UNL     1      20.655  51.199  49.270  1.00  0.00     0.079 A 
HETATM    6  C   UNL     1      21.033  49.902  49.007  1.00  0.00     0.152 A 
ENDROOT
BRANCH   6   7
HETATM    7  N   UNL     1      22.219  49.256  49.347  1.00  0.00    -0.303 N 
HETATM    8  C   UNL     1      23.406  49.284  48.549  1.00  0.00     0.315 C 
HETATM    9  O   UNL     1      23.469  49.831  47.459  1.00  0.00    -0.262 OA
HETATM   10  H   UNL     1      22.247  48.724  50.225  1.00  0.00     0.171 HD
BRANCH   8  11
HETATM   11  C   UNL     1      24.630  48.572  49.155  1.00  0.00     0.310 C 
HETATM   12  N   UNL     1      24.311  47.465  49.914  1.00  0.00    -0.348 N 
HETATM   13  H   UNL     1      23.323  47.278  50.071  1.00  0.00     0.163 HD
HETATM   14  O   UNL     1      25.746  49.011  48.920  1.00  0.00    -0.262 OA
BRANCH  12  15
HETATM   15  C   UNL     1      25.291  46.623  50.591  1.00  0.00     0.085 C 
HETATM   16  C   UNL     1      24.935  45.148  50.350  1.00  0.00     0.034 C 
HETATM   17  C   UNL     1      25.839  44.149  51.102  1.00  0.00    -0.045 C 
HETATM   18  C   UNL     1      27.248  44.120  50.482  1.00  0.00     0.015 C 
HETATM   19  C   UNL     1      25.235  42.737  50.972  1.00  0.00     0.015 C 
HETATM   20  C   UNL     1      25.906  44.527  52.600  1.00  0.00     0.013 C 
HETATM   21  C   UNL     1      26.286  45.995  52.845  1.00  0.00    -0.016 C 
HETATM   22  C   UNL     1      26.270  46.305  54.342  1.00  0.00     0.010 C 
HETATM   23  C   UNL     1      25.341  46.940  52.089  1.00  0.00     0.029 C 
ENDBRANCH  12  15
ENDBRANCH   8  11
ENDBRANCH   6   7
BRANCH   1  24
HETATM   24  C   UNL     1      19.873  48.028  47.830  1.00  0.00     0.732 A 
HETATM   25  N   UNL     1      18.745  47.403  48.267  1.00  0.00    -0.152 N 
HETATM   26  C   UNL     1      18.446  46.135  47.891  1.00  0.00     0.268 A 
HETATM   27  H   UNL     1      18.097  47.893  48.877  1.00  0.00     0.188 HD
HETATM   28  C   UNL     1      19.442  45.485  46.991  1.00  0.00     0.035 A 
HETATM   29  O   UNL     1      17.425  45.573  48.266  1.00  0.00    -0.267 OA
HETATM   30  C   UNL     1      20.530  46.207  46.636  1.00  0.00     0.061 A 
HETATM   31  N   UNL     1      20.765  47.508  47.049  1.00  0.00    -0.067 NA
HETATM   32  C   UNL     1      21.602  45.672  45.720  1.00  0.00     0.072 C 
BRANCH  28  33
HETATM   33  C   UNL     1      19.138  44.060  46.609  1.00  0.00     0.042 C 
HETATM   34  C   UNL     1      18.364  43.973  45.300  1.00  0.00     0.010 C 
ENDBRANCH  28  33
ENDBRANCH   1  24
TORSDOF 5
ENDMDL
MODEL 6
REMARK VINA RESULT:      -8.9      2.893      7.392
REMARK  5 active torsions:
REMARK  status: ('A' for Active; 'I' for Inactive)
REMARK    1  A    between atoms: C_2  and  C_3 
REMARK    2  A    between atoms: C_7  and  N_8 
REMARK    3  A    between atoms: C_13  and  N_14 
REMARK       I    between atoms: N_14  and  C_15 
REMARK    4  A    between atoms: C_15  and  C_16 
REMARK       I    between atoms: C_16  and  N_17 
REMARK    5  A    between atoms: N_17  and  C_18 
ROOT
HETATM    1  N   UNL     1      28.702  44.295  53.600  1.00  0.00    -0.045 N 
HETATM    2  N   UNL     1      29.094  44.949  54.730  1.00  0.00    -0.156 NA
HETATM    3  C   UNL     1      30.053  44.171  55.245  1.00  0.00     0.055 A 
HETATM    4  C   UNL     1      30.737  44.546  56.508  1.00  0.00     0.072 C 
HETATM    5  C   UNL     1      30.287  43.027  54.449  1.00  0.00     0.079 A 
HETATM    6  C   UNL     1      29.407  43.119  53.395  1.00  0.00     0.152 A 
ENDROOT
BRANCH   6   7
HETATM    7  N   UNL     1      29.225  42.234  52.334  1.00  0.00    -0.303 N 
HETATM    8  C   UNL     1      28.625  40.942  52.461  1.00  0.00     0.315 C 
HETATM    9  O   UNL     1      28.272  40.468  53.530  1.00  0.00    -0.262 OA
HETATM   10  H   UNL     1      29.539  42.524  51.401  1.00  0.00     0.171 HD
BRANCH   8  11
HETATM   11  C   UNL     1      28.443  40.162  51.146  1.00  0.00     0.310 C 
HETATM   12  N   UNL     1      27.449  40.665  50.333  1.00  0.00    -0.348 N 
HETATM   13  H   UNL     1      26.885  41.425  50.705  1.00  0.00     0.163 HD
HETATM   14  O   UNL     1      29.169  39.205  50.920  1.00  0.00    -0.262 OA
BRANCH  12  15
HETATM   15  C   UNL     1      27.085  40.103  49.037  1.00  0.00     0.085 C 
HETATM   16  C   UNL     1      27.989  40.714  47.956  1.00  0.00     0.034 C 
HETATM   17  C   UNL     1      27.638  40.279  46.517  1.00  0.00    -0.045 C 
HETATM   18  C   UNL     1      28.017  38.804  46.289  1.00  0.00     0.015 C 
HETATM   19  C   UNL     1      28.450  41.135  45.527  1.00  0.00     0.015 C 
HETATM   20  C   UNL     1      26.131  40.504  46.255  1.00  0.00     0.013 C 
HETATM   21  C   UNL     1      25.222  39.874  47.321  1.00  0.00    -0.016 C 
HETATM   22  C   UNL     1      23.757  40.193  47.025  1.00  0.00     0.010 C 
HETATM   23  C   UNL     1      25.606  40.359  48.727  1.00  0.00     0.029 C 
ENDBRANCH  12  15
ENDBRANCH   8  11
ENDBRANCH   6   7
BRANCH   1  24
HETATM   24  C   UNL     1      27.694  44.834  52.789  1.00  0.00     0.732 A 
HETATM   25  N   UNL     1      27.088  45.901  53.381  1.00  0.00    -0.152 N 
HETATM   26  C   UNL     1      26.096  46.587  52.760  1.00  0.00     0.268 A 
HETATM   27  H   UNL     1      27.387  46.209  54.301  1.00  0.00     0.188 HD
HETATM   28  C   UNL     1      25.717  46.078  51.411  1.00  0.00     0.035 A 
HETATM   29  O   UNL     1      25.559  47.557  53.278  1.00  0.00    -0.267 OA
HETATM   30  C   UNL     1      26.386  45.002  50.936  1.00  0.00     0.061 A 
HETATM   31  N   UNL     1      27.403  44.357  51.622  1.00  0.00    -0.067 NA
HETATM   32  C   UNL     1      26.110  44.400  49.581  1.00  0.00     0.072 C 
BRANCH  28  33
HETATM   33  C   UNL     1      24.584  46.807  50.737  1.00  0.00     0.042 C 
HETATM   34  C   UNL     1      25.085  47.886  49.787  1.00  0.00     0.010 C 
ENDBRANCH  28  33
ENDBRANCH   1  24
TORSDOF 5
ENDMDL
MODEL 7
REMARK VINA RESULT:      -8.8      2.716      7.540
REMARK  5 active torsions:
REMARK  status: ('A' for Active; 'I' for Inactive)
REMARK    1  A    between atoms: C_2  and  C_3 
REMARK    2  A    between atoms: C_7  and  N_8 
REMARK    3  A    between atoms: C_13  and  N_14 
REMARK       I    between atoms: N_14  and  C_15 
REMARK    4  A    between atoms: C_15  and  C_16 
REMARK       I    between atoms: C_16  and  N_17 
REMARK    5  A    between atoms: N_17  and  C_18 
ROOT
HETATM    1  N   UNL     1      24.731  46.627  50.553  1.00  0.00    -0.045 N 
HETATM    2  N   UNL     1      24.361  47.940  50.578  1.00  0.00    -0.156 NA
HETATM    3  C   UNL     1      23.603  48.090  49.486  1.00  0.00     0.055 A 
HETATM    4  C   UNL     1      23.007  49.407  49.151  1.00  0.00     0.072 C 
HETATM    5  C   UNL     1      23.476  46.881  48.764  1.00  0.00     0.079 A 
HETATM    6  C   UNL     1      24.210  45.950  49.461  1.00  0.00     0.152 A 
ENDROOT
BRANCH   6   7
HETATM    7  N   UNL     1      24.420  44.605  49.162  1.00  0.00    -0.303 N 
HETATM    8  C   UNL     1      23.657  43.530  49.716  1.00  0.00     0.315 C 
HETATM    9  O   UNL     1      22.785  43.691  50.556  1.00  0.00    -0.262 OA
HETATM   10  H   UNL     1      25.169  44.367  48.501  1.00  0.00     0.171 HD
BRANCH   8  11
HETATM   11  C   UNL     1      24.000  42.128  49.183  1.00  0.00     0.310 C 
HETATM   12  N   UNL     1      25.339  41.809  49.274  1.00  0.00    -0.348 N 
HETATM   13  H   UNL     1      25.970  42.541  49.593  1.00  0.00     0.163 HD
HETATM   14  O   UNL     1      23.101  41.423  48.748  1.00  0.00    -0.262 OA
BRANCH  12  15
HETATM   15  C   UNL     1      25.914  40.542  48.836  1.00  0.00     0.085 C 
HETATM   16  C   UNL     1      27.036  40.141  49.806  1.00  0.00     0.034 C 
HETATM   17  C   UNL     1      27.799  38.864  49.396  1.00  0.00    -0.045 C 
HETATM   18  C   UNL     1      26.913  37.618  49.585  1.00  0.00     0.015 C 
HETATM   19  C   UNL     1      29.034  38.709  50.306  1.00  0.00     0.015 C 
HETATM   20  C   UNL     1      28.271  38.984  47.929  1.00  0.00     0.013 C 
HETATM   21  C   UNL     1      27.148  39.361  46.952  1.00  0.00    -0.016 C 
HETATM   22  C   UNL     1      27.705  39.520  45.538  1.00  0.00     0.010 C 
HETATM   23  C   UNL     1      26.439  40.648  47.401  1.00  0.00     0.029 C 
ENDBRANCH  12  15
ENDBRANCH   8  11
ENDBRANCH   6   7
BRANCH   1  24
HETATM   24  C   UNL     1      25.545  46.107  51.569  1.00  0.00     0.732 A 
HETATM   25  N   UNL     1      25.349  46.752  52.751  1.00  0.00    -0.152 N 
HETATM   26  C   UNL     1      26.021  46.393  53.874  1.00  0.00     0.268 A 
HETATM   27  H   UNL     1      24.676  47.510  52.812  1.00  0.00     0.188 HD
HETATM   28  C   UNL     1      26.986  45.269  53.707  1.00  0.00     0.035 A 
HETATM   29  O   UNL     1      25.837  46.957  54.945  1.00  0.00    -0.267 OA
HETATM   30  C   UNL     1      27.099  44.718  52.477  1.00  0.00     0.061 A 
HETATM   31  N   UNL     1      26.367  45.127  51.374  1.00  0.00    -0.067 NA
HETATM   32  C   UNL     1      28.026  43.566  52.180  1.00  0.00     0.072 C 
BRANCH  28  33
HETATM   33  C   UNL     1      27.769  44.899  54.940  1.00  0.00     0.042 C 
HETATM   34  C   UNL     1      28.997  45.781  55.123  1.00  0.00     0.010 C 
ENDBRANCH  28  33
ENDBRANCH   1  24
TORSDOF 5
ENDMDL
MODEL 8
REMARK VINA RESULT:      -8.7      2.046      5.244
REMARK  5 active torsions:
REMARK  status: ('A' for Active; 'I' for Inactive)
REMARK    1  A    between atoms: C_2  and  C_3 
REMARK    2  A    between atoms: C_7  and  N_8 
REMARK    3  A    between atoms: C_13  and  N_14 
REMARK       I    between atoms: N_14  and  C_15 
REMARK    4  A    between atoms: C_15  and  C_16 
REMARK       I    between atoms: C_16  and  N_17 
REMARK    5  A    between atoms: N_17  and  C_18 
ROOT
HETATM    1  N   UNL     1      28.507  42.281  52.305  1.00  0.00    -0.045 N 
HETATM    2  N   UNL     1      29.168  41.872  53.425  1.00  0.00    -0.156 NA
HETATM    3  C   UNL     1      29.407  43.002  54.099  1.00  0.00     0.055 A 
HETATM    4  C   UNL     1      30.131  42.975  55.395  1.00  0.00     0.072 C 
HETATM    5  C   UNL     1      28.896  44.134  53.425  1.00  0.00     0.079 A 
HETATM    6  C   UNL     1      28.322  43.655  52.270  1.00  0.00     0.152 A 
ENDROOT
BRANCH   6   7
HETATM    7  N   UNL     1      27.690  44.366  51.252  1.00  0.00    -0.303 N 
HETATM    8  C   UNL     1      26.442  45.048  51.405  1.00  0.00     0.315 C 
HETATM    9  O   UNL     1      25.782  45.017  52.431  1.00  0.00    -0.262 OA
HETATM   10  H   UNL     1      28.146  44.405  50.333  1.00  0.00     0.171 HD
BRANCH   8  11
HETATM   11  C   UNL     1      25.966  45.843  50.175  1.00  0.00     0.310 C 
HETATM   12  N   UNL     1      24.691  46.357  50.302  1.00  0.00    -0.348 N 
HETATM   13  H   UNL     1      24.167  46.096  51.134  1.00  0.00     0.163 HD
HETATM   14  O   UNL     1      26.721  45.968  49.222  1.00  0.00    -0.262 OA
BRANCH  12  15
HETATM   15  C   UNL     1      24.017  47.145  49.277  1.00  0.00     0.085 C 
HETATM   16  C   UNL     1      23.593  48.492  49.881  1.00  0.00     0.034 C 
HETATM   17  C   UNL     1      22.773  49.384  48.924  1.00  0.00    -0.045 C 
HETATM   18  C   UNL     1      23.668  49.939  47.801  1.00  0.00     0.015 C 
HETATM   19  C   UNL     1      22.212  50.580  49.718  1.00  0.00     0.015 C 
HETATM   20  C   UNL     1      21.593  48.576  48.337  1.00  0.00     0.013 C 
HETATM   21  C   UNL     1      22.016  47.239  47.711  1.00  0.00    -0.016 C 
HETATM   22  C   UNL     1      20.791  46.475  47.210  1.00  0.00     0.010 C 
HETATM   23  C   UNL     1      22.809  46.389  48.714  1.00  0.00     0.029 C 
ENDBRANCH  12  15
ENDBRANCH   8  11
ENDBRANCH   6   7
BRANCH   1  24
HETATM   24  C   UNL     1      28.089  41.342  51.352  1.00  0.00     0.732 A 
HETATM   25  N   UNL     1      28.957  40.297  51.261  1.00  0.00    -0.152 N 
HETATM   26  C   UNL     1      28.733  39.262  50.412  1.00  0.00     0.268 A 
HETATM   27  H   UNL     1      29.786  40.272  51.847  1.00  0.00     0.188 HD
HETATM   28  C   UNL     1      27.493  39.369  49.591  1.00  0.00     0.035 A 
HETATM   29  O   UNL     1      29.499  38.310  50.338  1.00  0.00    -0.267 OA
HETATM   30  C   UNL     1      26.718  40.464  49.765  1.00  0.00     0.061 A 
HETATM   31  N   UNL     1      27.002  41.479  50.664  1.00  0.00    -0.067 NA
HETATM   32  C   UNL     1      25.431  40.683  49.008  1.00  0.00     0.072 C 
BRANCH  28  33
HETATM   33  C   UNL     1      27.265  38.245  48.613  1.00  0.00     0.042 C 
HETATM   34  C   UNL     1      26.600  37.043  49.271  1.00  0.00     0.010 C 
ENDBRANCH  28  33
ENDBRANCH   1  24
TORSDOF 5
ENDMDL
MODEL 9
REMARK VINA RESULT:      -8.7      2.662      3.796
REMARK  5 active torsions:
REMARK  status: ('A' for Active; 'I' for Inactive)
REMARK    1  A    between atoms: C_2  and  C_3 
REMARK    2  A    between atoms: C_7  and  N_8 
REMARK    3  A    between atoms: C_13  and  N_14 
REMARK       I    between atoms: N_14  and  C_15 
REMARK    4  A    between atoms: C_15  and  C_16 
REMARK       I    between atoms: C_16  and  N_17 
REMARK    5  A    between atoms: N_17  and  C_18 
ROOT
HETATM    1  N   UNL     1      25.804  42.568  50.463  1.00  0.00    -0.045 N 
HETATM    2  N   UNL     1      26.352  41.386  50.866  1.00  0.00    -0.156 NA
HETATM    3  C   UNL     1      26.137  40.556  49.841  1.00  0.00     0.055 A 
HETATM    4  C   UNL     1      26.588  39.142  49.901  1.00  0.00     0.072 C 
HETATM    5  C   UNL     1      25.463  41.197  48.776  1.00  0.00     0.079 A 
HETATM    6  C   UNL     1      25.253  42.492  49.193  1.00  0.00     0.152 A 
ENDROOT
BRANCH   6   7
HETATM    7  N   UNL     1      24.615  43.531  48.518  1.00  0.00    -0.303 N 
HETATM    8  C   UNL     1      23.215  43.807  48.610  1.00  0.00     0.315 C 
HETATM    9  O   UNL     1      22.435  43.115  49.245  1.00  0.00    -0.262 OA
HETATM   10  H   UNL     1      25.183  44.138  47.916  1.00  0.00     0.171 HD
BRANCH   8  11
HETATM   11  C   UNL     1      22.734  45.056  47.847  1.00  0.00     0.310 C 
HETATM   12  N   UNL     1      22.498  46.147  48.658  1.00  0.00    -0.348 N 
HETATM   13  H   UNL     1      22.576  46.005  49.662  1.00  0.00     0.163 HD
HETATM   14  O   UNL     1      22.613  44.997  46.633  1.00  0.00    -0.262 OA
BRANCH  12  15
HETATM   15  C   UNL     1      22.037  47.444  48.175  1.00  0.00     0.085 C 
HETATM   16  C   UNL     1      22.463  48.529  49.176  1.00  0.00     0.034 C 
HETATM   17  C   UNL     1      21.945  49.943  48.834  1.00  0.00    -0.045 C 
HETATM   18  C   UNL     1      22.678  50.505  47.601  1.00  0.00     0.015 C 
HETATM   19  C   UNL     1      22.233  50.879  50.024  1.00  0.00     0.015 C 
HETATM   20  C   UNL     1      20.419  49.897  48.592  1.00  0.00     0.013 C 
HETATM   21  C   UNL     1      19.991  48.829  47.574  1.00  0.00    -0.016 C 
HETATM   22  C   UNL     1      18.469  48.806  47.437  1.00  0.00     0.010 C 
HETATM   23  C   UNL     1      20.518  47.444  47.977  1.00  0.00     0.029 C 
ENDBRANCH  12  15
ENDBRANCH   8  11
ENDBRANCH   6   7
BRANCH   1  24
HETATM   24  C   UNL     1      25.850  43.688  51.304  1.00  0.00     0.732 A 
HETATM   25  N   UNL     1      25.836  43.332  52.618  1.00  0.00    -0.152 N 
HETATM   26  C   UNL     1      25.896  44.262  53.605  1.00  0.00     0.268 A 
HETATM   27  H   UNL     1      25.797  42.351  52.879  1.00  0.00     0.188 HD
HETATM   28  C   UNL     1      25.957  45.678  53.143  1.00  0.00     0.035 A 
HETATM   29  O   UNL     1      25.902  43.948  54.788  1.00  0.00    -0.267 OA
HETATM   30  C   UNL     1      25.952  45.903  51.809  1.00  0.00     0.061 A 
HETATM   31  N   UNL     1      25.904  44.900  50.854  1.00  0.00    -0.067 NA
HETATM   32  C   UNL     1      26.027  47.287  51.214  1.00  0.00     0.072 C 
BRANCH  28  33
HETATM   33  C   UNL     1      25.975  46.716  54.236  1.00  0.00     0.042 C 
HETATM   34  C   UNL     1      27.393  47.102  54.632  1.00  0.00     0.010 C 
ENDBRANCH  28  33
ENDBRANCH   1  24
TORSDOF 5
ENDMDL
MODEL 10
REMARK VINA RESULT:      -8.6      2.325      5.162
REMARK  5 active torsions:
REMARK  status: ('A' for Active; 'I' for Inactive)
REMARK    1  A    between atoms: C_2  and  C_3 
REMARK    2  A    between atoms: C_7  and  N_8 
REMARK    3  A    between atoms: C_13  and  N_14 
REMARK       I    between atoms: N_14  and  C_15 
REMARK    4  A    between atoms: C_15  and  C_16 
REMARK       I    between atoms: C_16  and  N_17 
REMARK    5  A    between atoms: N_17  and  C_18 
ROOT
HETATM    1  N   UNL     1      28.436  42.023  52.768  1.00  0.00    -0.045 N 
HETATM    2  N   UNL     1      29.577  41.985  53.515  1.00  0.00    -0.156 NA
HETATM    3  C   UNL     1      29.446  43.006  54.369  1.00  0.00     0.055 A 
HETATM    4  C   UNL     1      30.508  43.306  55.362  1.00  0.00     0.072 C 
HETATM    5  C   UNL     1      28.225  43.694  54.183  1.00  0.00     0.079 A 
HETATM    6  C   UNL     1      27.588  43.052  53.147  1.00  0.00     0.152 A 
ENDROOT
BRANCH   6   7
HETATM    7  N   UNL     1      26.357  43.348  52.565  1.00  0.00    -0.303 N 
HETATM    8  C   UNL     1      26.146  44.411  51.631  1.00  0.00     0.315 C 
HETATM    9  O   UNL     1      27.019  45.199  51.303  1.00  0.00    -0.262 OA
HETATM   10  H   UNL     1      25.548  42.770  52.821  1.00  0.00     0.171 HD
BRANCH   8  11
HETATM   11  C   UNL     1      24.725  44.508  51.047  1.00  0.00     0.310 C 
HETATM   12  N   UNL     1      24.557  45.551  50.159  1.00  0.00    -0.348 N 
HETATM   13  H   UNL     1      25.338  46.193  50.044  1.00  0.00     0.163 HD
HETATM   14  O   UNL     1      23.888  43.684  51.386  1.00  0.00    -0.262 OA
BRANCH  12  15
HETATM   15  C   UNL     1      23.306  45.853  49.473  1.00  0.00     0.085 C 
HETATM   16  C   UNL     1      23.193  44.963  48.226  1.00  0.00     0.034 C 
HETATM   17  C   UNL     1      21.957  45.257  47.349  1.00  0.00    -0.045 C 
HETATM   18  C   UNL     1      20.670  44.785  48.052  1.00  0.00     0.015 C 
HETATM   19  C   UNL     1      22.088  44.476  46.027  1.00  0.00     0.015 C 
HETATM   20  C   UNL     1      21.887  46.768  47.032  1.00  0.00     0.013 C 
HETATM   21  C   UNL     1      21.975  47.661  48.279  1.00  0.00    -0.016 C 
HETATM   22  C   UNL     1      21.961  49.136  47.879  1.00  0.00     0.010 C 
HETATM   23  C   UNL     1      23.232  47.337  49.099  1.00  0.00     0.029 C 
ENDBRANCH  12  15
ENDBRANCH   8  11
ENDBRANCH   6   7
BRANCH   1  24
HETATM   24  C   UNL     1      28.227  41.077  51.755  1.00  0.00     0.732 A 
HETATM   25  N   UNL     1      29.147  40.074  51.805  1.00  0.00    -0.152 N 
HETATM   26  C   UNL     1      29.116  39.040  50.927  1.00  0.00     0.268 A 
HETATM   27  H   UNL     1      29.867  40.080  52.520  1.00  0.00     0.188 HD
HETATM   28  C   UNL     1      28.026  39.100  49.910  1.00  0.00     0.035 A 
HETATM   29  O   UNL     1      29.928  38.126  50.976  1.00  0.00    -0.267 OA
HETATM   30  C   UNL     1      27.182  40.157  49.958  1.00  0.00     0.061 A 
HETATM   31  N   UNL     1      27.265  41.173  50.896  1.00  0.00    -0.067 NA
HETATM   32  C   UNL     1      26.030  40.326  48.998  1.00  0.00     0.072 C 
BRANCH  28  33
HETATM   33  C   UNL     1      28.017  37.979  48.903  1.00  0.00     0.042 C 
HETATM   34  C   UNL     1      27.078  36.852  49.314  1.00  0.00     0.010 C 
ENDBRANCH  28  33
ENDBRANCH   1  24
TORSDOF 5
ENDMDL
