MODEL 1
REMARK VINA RESULT:      -8.7      0.000      0.000
REMARK  4 active torsions:
REMARK  status: ('A' for Active; 'I' for Inactive)
REMARK    1  A    between atoms: C_2  and  N_3 
REMARK    2  A    between atoms: C_2  and  C_14 
REMARK    3  A    between atoms: N_3  and  C_6 
REMARK    4  A    between atoms: C_6  and  C_7 
ROOT
HETATM    1  C   UNL     1      25.094  45.395  51.440  1.00  0.00     0.048 C 
HETATM    2  C   UNL     1      26.074  46.538  51.219  1.00  0.00     0.251 C 
ENDROOT
BRANCH   2   3
HETATM    3  N   UNL     1      26.391  47.188  52.545  1.00  0.00    -0.060 N 
HETATM    4  H   UNL     1      27.396  47.434  52.515  1.00  0.00     0.278 HD
HETATM    5  H   UNL     1      25.947  48.116  52.584  1.00  0.00     0.278 HD
BRANCH   3   6
HETATM    6  C   UNL     1      26.109  46.414  53.775  1.00  0.00     0.271 C 
BRANCH   6   7
HETATM    7  C   UNL     1      27.373  45.837  54.349  1.00  0.00    -0.033 A 
HETATM    8  C   UNL     1      27.815  44.561  53.959  1.00  0.00     0.010 A 
HETATM    9  C   UNL     1      28.973  44.013  54.517  1.00  0.00     0.024 A 
HETATM   10  C   UNL     1      29.695  44.732  55.467  1.00  0.00     0.034 A 
HETATM   11 CL   UNL     1      31.118  44.056  56.151  1.00  0.00    -0.084 Cl
HETATM   12  C   UNL     1      29.266  45.996  55.866  1.00  0.00     0.024 A 
HETATM   13  C   UNL     1      28.107  46.546  55.313  1.00  0.00     0.010 A 
ENDBRANCH   6   7
ENDBRANCH   3   6
ENDBRANCH   2   3
BRANCH   2  14
HETATM   14  C   UNL     1      25.486  47.603  50.280  1.00  0.00     0.138 A 
HETATM   15  N   UNL     1      24.196  47.732  50.240  1.00  0.00    -0.232 NA
HETATM   16  C   UNL     1      23.663  48.708  49.371  1.00  0.00     0.074 A 
HETATM   17  C   UNL     1      24.472  49.529  48.578  1.00  0.00     0.061 A 
HETATM   18  C   UNL     1      22.278  48.860  49.290  1.00  0.00     0.032 A 
HETATM   19  C   UNL     1      25.928  49.346  48.681  1.00  0.00     0.259 A 
HETATM   20  C   UNL     1      23.925  50.485  47.717  1.00  0.00     0.019 A 
HETATM   21  O   UNL     1      26.731  50.012  48.042  1.00  0.00    -0.267 OA
HETATM   22  N   UNL     1      26.347  48.368  49.549  1.00  0.00    -0.309 N 
HETATM   23  H   UNL     1      27.355  48.273  49.592  1.00  0.00     0.170 HD
HETATM   24  C   UNL     1      22.540  50.622  47.648  1.00  0.00     0.001 A 
HETATM   25  C   UNL     1      21.718  49.813  48.432  1.00  0.00     0.002 A 
ENDBRANCH   2  14
TORSDOF 4
ENDMDL
MODEL 2
REMARK VINA RESULT:      -8.6      1.857      2.736
REMARK  4 active torsions:
REMARK  status: ('A' for Active; 'I' for Inactive)
REMARK    1  A    between atoms: C_2  and  N_3 
REMARK    2  A    between atoms: C_2  and  C_14 
REMARK    3  A    between atoms: N_3  and  C_6 
REMARK    4  A    between atoms: C_6  and  C_7 
ROOT
HETATM    1  C   UNL     1      24.935  44.786  53.100  1.00  0.00     0.048 C 
HETATM    2  C   UNL     1      25.989  44.898  52.007  1.00  0.00     0.251 C 
ENDROOT
BRANCH   2   3
HETATM    3  N   UNL     1      27.342  45.124  52.639  1.00  0.00    -0.060 N 
HETATM    4  H   UNL     1      27.857  44.231  52.549  1.00  0.00     0.278 HD
HETATM    5  H   UNL     1      27.898  45.750  52.040  1.00  0.00     0.278 HD
BRANCH   3   6
HETATM    6  C   UNL     1      27.376  45.574  54.050  1.00  0.00     0.271 C 
BRANCH   6   7
HETATM    7  C   UNL     1      28.588  45.036  54.756  1.00  0.00    -0.033 A 
HETATM    8  C   UNL     1      29.111  43.777  54.415  1.00  0.00     0.010 A 
HETATM    9  C   UNL     1      30.220  43.264  55.094  1.00  0.00     0.024 A 
HETATM   10  C   UNL     1      30.810  44.001  56.119  1.00  0.00     0.034 A 
HETATM   11 CL   UNL     1      32.172  43.368  56.952  1.00  0.00    -0.084 Cl
HETATM   12  C   UNL     1      30.299  45.248  56.471  1.00  0.00     0.024 A 
HETATM   13  C   UNL     1      29.189  45.764  55.796  1.00  0.00     0.010 A 
ENDBRANCH   6   7
ENDBRANCH   3   6
ENDBRANCH   2   3
BRANCH   2  14
HETATM   14  C   UNL     1      25.689  46.072  51.061  1.00  0.00     0.138 A 
HETATM   15  N   UNL     1      26.678  46.832  50.704  1.00  0.00    -0.232 NA
HETATM   16  C   UNL     1      26.394  47.912  49.842  1.00  0.00     0.074 A 
HETATM   17  C   UNL     1      25.105  48.172  49.363  1.00  0.00     0.061 A 
HETATM   18  C   UNL     1      27.433  48.759  49.453  1.00  0.00     0.032 A 
HETATM   19  C   UNL     1      24.030  47.264  49.790  1.00  0.00     0.259 A 
HETATM   20  C   UNL     1      24.843  49.251  48.515  1.00  0.00     0.019 A 
HETATM   21  O   UNL     1      22.868  47.390  49.430  1.00  0.00    -0.267 OA
HETATM   22  N   UNL     1      24.405  46.248  50.635  1.00  0.00    -0.309 N 
HETATM   23  H   UNL     1      23.638  45.645  50.906  1.00  0.00     0.170 HD
HETATM   24  C   UNL     1      25.891  50.089  48.137  1.00  0.00     0.001 A 
HETATM   25  C   UNL     1      27.183  49.844  48.604  1.00  0.00     0.002 A 
ENDBRANCH   2  14
TORSDOF 4
ENDMDL
MODEL 3
REMARK VINA RESULT:      -8.6      3.807      8.550
REMARK  4 active torsions:
REMARK  status: ('A' for Active; 'I' for Inactive)
REMARK    1  A    between atoms: C_2  and  N_3 
REMARK    2  A    between atoms: C_2  and  C_14 
REMARK    3  A    between atoms: N_3  and  C_6 
REMARK    4  A    between atoms: C_6  and  C_7 
ROOT
HETATM    1  C   UNL     1      24.958  44.509  51.908  1.00  0.00     0.048 C 
HETATM    2  C   UNL     1      25.654  45.474  52.857  1.00  0.00     0.251 C 
ENDROOT
BRANCH   2   3
HETATM    3  N   UNL     1      26.072  46.709  52.093  1.00  0.00    -0.060 N 
HETATM    4  H   UNL     1      25.348  47.425  52.280  1.00  0.00     0.278 HD
HETATM    5  H   UNL     1      26.900  47.124  52.544  1.00  0.00     0.278 HD
BRANCH   3   6
HETATM    6  C   UNL     1      26.275  46.579  50.633  1.00  0.00     0.271 C 
BRANCH   6   7
HETATM    7  C   UNL     1      25.543  47.662  49.891  1.00  0.00    -0.033 A 
HETATM    8  C   UNL     1      26.254  48.674  49.223  1.00  0.00     0.010 A 
HETATM    9  C   UNL     1      25.572  49.698  48.560  1.00  0.00     0.024 A 
HETATM   10  C   UNL     1      24.179  49.721  48.563  1.00  0.00     0.034 A 
HETATM   11 CL   UNL     1      23.344  50.982  47.748  1.00  0.00    -0.084 Cl
HETATM   12  C   UNL     1      23.462  48.727  49.225  1.00  0.00     0.024 A 
HETATM   13  C   UNL     1      24.139  47.703  49.890  1.00  0.00     0.010 A 
ENDBRANCH   6   7
ENDBRANCH   3   6
ENDBRANCH   2   3
BRANCH   2  14
HETATM   14  C   UNL     1      26.906  44.838  53.481  1.00  0.00     0.138 A 
HETATM   15  N   UNL     1      27.580  45.539  54.340  1.00  0.00    -0.232 NA
HETATM   16  C   UNL     1      28.732  44.952  54.903  1.00  0.00     0.074 A 
HETATM   17  C   UNL     1      29.151  43.658  54.577  1.00  0.00     0.061 A 
HETATM   18  C   UNL     1      29.488  45.686  55.817  1.00  0.00     0.032 A 
HETATM   19  C   UNL     1      28.336  42.907  53.610  1.00  0.00     0.259 A 
HETATM   20  C   UNL     1      30.300  43.096  55.141  1.00  0.00     0.019 A 
HETATM   21  O   UNL     1      28.602  41.767  53.256  1.00  0.00    -0.267 OA
HETATM   22  N   UNL     1      27.238  43.567  53.114  1.00  0.00    -0.309 N 
HETATM   23  H   UNL     1      26.703  43.018  52.451  1.00  0.00     0.170 HD
HETATM   24  C   UNL     1      31.045  43.843  56.050  1.00  0.00     0.001 A 
HETATM   25  C   UNL     1      30.641  45.135  56.389  1.00  0.00     0.002 A 
ENDBRANCH   2  14
TORSDOF 4
ENDMDL
MODEL 4
REMARK VINA RESULT:      -8.5      3.624      8.307
REMARK  4 active torsions:
REMARK  status: ('A' for Active; 'I' for Inactive)
REMARK    1  A    between atoms: C_2  and  N_3 
REMARK    2  A    between atoms: C_2  and  C_14 
REMARK    3  A    between atoms: N_3  and  C_6 
REMARK    4  A    between atoms: C_6  and  C_7 
ROOT
HETATM    1  C   UNL     1      25.655  43.444  51.689  1.00  0.00     0.048 C 
HETATM    2  C   UNL     1      25.396  44.551  52.701  1.00  0.00     0.251 C 
ENDROOT
BRANCH   2   3
HETATM    3  N   UNL     1      25.099  45.838  51.968  1.00  0.00    -0.060 N 
HETATM    4  H   UNL     1      24.105  45.788  51.685  1.00  0.00     0.278 HD
HETATM    5  H   UNL     1      25.088  46.618  52.640  1.00  0.00     0.278 HD
BRANCH   3   6
HETATM    6  C   UNL     1      25.933  46.166  50.789  1.00  0.00     0.271 C 
BRANCH   6   7
HETATM    7  C   UNL     1      25.374  47.349  50.049  1.00  0.00    -0.033 A 
HETATM    8  C   UNL     1      23.987  47.485  49.866  1.00  0.00     0.010 A 
HETATM    9  C   UNL     1      23.471  48.568  49.149  1.00  0.00     0.024 A 
HETATM   10  C   UNL     1      24.334  49.519  48.610  1.00  0.00     0.034 A 
HETATM   11 CL   UNL     1      23.696  50.850  47.729  1.00  0.00    -0.084 Cl
HETATM   12  C   UNL     1      25.711  49.394  48.779  1.00  0.00     0.024 A 
HETATM   13  C   UNL     1      26.231  48.312  49.492  1.00  0.00     0.010 A 
ENDBRANCH   6   7
ENDBRANCH   3   6
ENDBRANCH   2   3
BRANCH   2  14
HETATM   14  C   UNL     1      26.617  44.776  53.608  1.00  0.00     0.138 A 
HETATM   15  N   UNL     1      27.525  43.851  53.643  1.00  0.00    -0.232 NA
HETATM   16  C   UNL     1      28.639  44.061  54.484  1.00  0.00     0.074 A 
HETATM   17  C   UNL     1      28.792  45.219  55.253  1.00  0.00     0.061 A 
HETATM   18  C   UNL     1      29.626  43.077  54.558  1.00  0.00     0.032 A 
HETATM   19  C   UNL     1      27.736  46.239  55.156  1.00  0.00     0.259 A 
HETATM   20  C   UNL     1      29.899  45.406  56.085  1.00  0.00     0.019 A 
HETATM   21  O   UNL     1      27.767  47.293  55.776  1.00  0.00    -0.267 OA
HETATM   22  N   UNL     1      26.691  45.939  54.317  1.00  0.00    -0.309 N 
HETATM   23  H   UNL     1      25.985  46.665  54.277  1.00  0.00     0.170 HD
HETATM   24  C   UNL     1      30.875  44.412  56.149  1.00  0.00     0.001 A 
HETATM   25  C   UNL     1      30.740  43.251  55.388  1.00  0.00     0.002 A 
ENDBRANCH   2  14
TORSDOF 4
ENDMDL
MODEL 5
REMARK VINA RESULT:      -8.5      6.572      8.465
REMARK  4 active torsions:
REMARK  status: ('A' for Active; 'I' for Inactive)
REMARK    1  A    between atoms: C_2  and  N_3 
REMARK    2  A    between atoms: C_2  and  C_14 
REMARK    3  A    between atoms: N_3  and  C_6 
REMARK    4  A    between atoms: C_6  and  C_7 
ROOT
HETATM    1  C   UNL     1      27.462  42.787  51.681  1.00  0.00     0.048 C 
HETATM    2  C   UNL     1      27.846  41.427  52.247  1.00  0.00     0.251 C 
ENDROOT
BRANCH   2   3
HETATM    3  N   UNL     1      29.042  41.584  53.157  1.00  0.00    -0.060 N 
HETATM    4  H   UNL     1      28.678  41.538  54.124  1.00  0.00     0.278 HD
HETATM    5  H   UNL     1      29.620  40.734  53.108  1.00  0.00     0.278 HD
BRANCH   3   6
HETATM    6  C   UNL     1      29.872  42.799  52.997  1.00  0.00     0.271 C 
BRANCH   6   7
HETATM    7  C   UNL     1      29.921  43.587  54.276  1.00  0.00    -0.033 A 
HETATM    8  C   UNL     1      29.012  44.634  54.504  1.00  0.00     0.010 A 
HETATM    9  C   UNL     1      29.079  45.387  55.680  1.00  0.00     0.024 A 
HETATM   10  C   UNL     1      30.055  45.102  56.632  1.00  0.00     0.034 A 
HETATM   11 CL   UNL     1      30.135  46.029  58.077  1.00  0.00    -0.084 Cl
HETATM   12  C   UNL     1      30.966  44.070  56.418  1.00  0.00     0.024 A 
HETATM   13  C   UNL     1      30.904  43.317  55.243  1.00  0.00     0.010 A 
ENDBRANCH   6   7
ENDBRANCH   3   6
ENDBRANCH   2   3
BRANCH   2  14
HETATM   14  C   UNL     1      28.210  40.439  51.127  1.00  0.00     0.138 A 
HETATM   15  N   UNL     1      27.637  40.590  49.973  1.00  0.00    -0.232 NA
HETATM   16  C   UNL     1      27.971  39.675  48.953  1.00  0.00     0.074 A 
HETATM   17  C   UNL     1      28.891  38.639  49.145  1.00  0.00     0.061 A 
HETATM   18  C   UNL     1      27.359  39.800  47.705  1.00  0.00     0.032 A 
HETATM   19  C   UNL     1      29.519  38.530  50.470  1.00  0.00     0.259 A 
HETATM   20  C   UNL     1      29.203  37.738  48.123  1.00  0.00     0.019 A 
HETATM   21  O   UNL     1      30.342  37.670  50.750  1.00  0.00    -0.267 OA
HETATM   22  N   UNL     1      29.125  39.463  51.397  1.00  0.00    -0.309 N 
HETATM   23  H   UNL     1      29.579  39.355  52.297  1.00  0.00     0.170 HD
HETATM   24  C   UNL     1      28.581  37.875  46.883  1.00  0.00     0.001 A 
HETATM   25  C   UNL     1      27.662  38.903  46.674  1.00  0.00     0.002 A 
ENDBRANCH   2  14
TORSDOF 4
ENDMDL
MODEL 6
REMARK VINA RESULT:      -8.4      3.354      4.880
REMARK  4 active torsions:
REMARK  status: ('A' for Active; 'I' for Inactive)
REMARK    1  A    between atoms: C_2  and  N_3 
REMARK    2  A    between atoms: C_2  and  C_14 
REMARK    3  A    between atoms: N_3  and  C_6 
REMARK    4  A    between atoms: C_6  and  C_7 
ROOT
HETATM    1  C   UNL     1      27.914  41.234  52.966  1.00  0.00     0.048 C 
HETATM    2  C   UNL     1      28.359  42.237  51.912  1.00  0.00     0.251 C 
ENDROOT
BRANCH   2   3
HETATM    3  N   UNL     1      29.443  43.119  52.487  1.00  0.00    -0.060 N 
HETATM    4  H   UNL     1      30.054  43.383  51.694  1.00  0.00     0.278 HD
HETATM    5  H   UNL     1      29.038  44.027  52.753  1.00  0.00     0.278 HD
BRANCH   3   6
HETATM    6  C   UNL     1      30.269  42.566  53.584  1.00  0.00     0.271 C 
BRANCH   6   7
HETATM    7  C   UNL     1      30.254  43.478  54.779  1.00  0.00    -0.033 A 
HETATM    8  C   UNL     1      29.374  44.572  54.829  1.00  0.00     0.010 A 
HETATM    9  C   UNL     1      29.384  45.438  55.926  1.00  0.00     0.024 A 
HETATM   10  C   UNL     1      30.272  45.219  56.976  1.00  0.00     0.034 A 
HETATM   11 CL   UNL     1      30.282  46.285  58.324  1.00  0.00    -0.084 Cl
HETATM   12  C   UNL     1      31.154  44.141  56.938  1.00  0.00     0.024 A 
HETATM   13  C   UNL     1      31.149  43.275  55.842  1.00  0.00     0.010 A 
ENDBRANCH   6   7
ENDBRANCH   3   6
ENDBRANCH   2   3
BRANCH   2  14
HETATM   14  C   UNL     1      27.192  43.129  51.461  1.00  0.00     0.138 A 
HETATM   15  N   UNL     1      27.471  44.312  51.007  1.00  0.00    -0.232 NA
HETATM   16  C   UNL     1      26.393  45.128  50.603  1.00  0.00     0.074 A 
HETATM   17  C   UNL     1      25.062  44.701  50.666  1.00  0.00     0.061 A 
HETATM   18  C   UNL     1      26.658  46.412  50.126  1.00  0.00     0.032 A 
HETATM   19  C   UNL     1      24.812  43.343  51.174  1.00  0.00     0.259 A 
HETATM   20  C   UNL     1      24.008  45.527  50.267  1.00  0.00     0.019 A 
HETATM   21  O   UNL     1      23.692  42.862  51.267  1.00  0.00    -0.267 OA
HETATM   22  N   UNL     1      25.925  42.630  51.548  1.00  0.00    -0.309 N 
HETATM   23  H   UNL     1      25.712  41.701  51.892  1.00  0.00     0.170 HD
HETATM   24  C   UNL     1      24.290  46.807  49.795  1.00  0.00     0.001 A 
HETATM   25  C   UNL     1      25.611  47.250  49.724  1.00  0.00     0.002 A 
ENDBRANCH   2  14
TORSDOF 4
ENDMDL
MODEL 7
REMARK VINA RESULT:      -8.3      4.513      8.823
REMARK  4 active torsions:
REMARK  status: ('A' for Active; 'I' for Inactive)
REMARK    1  A    between atoms: C_2  and  N_3 
REMARK    2  A    between atoms: C_2  and  C_14 
REMARK    3  A    between atoms: N_3  and  C_6 
REMARK    4  A    between atoms: C_6  and  C_7 
ROOT
HETATM    1  C   UNL     1      24.848  49.078  48.813  1.00  0.00     0.048 C 
HETATM    2  C   UNL     1      23.785  48.039  49.141  1.00  0.00     0.251 C 
ENDROOT
BRANCH   2   3
HETATM    3  N   UNL     1      22.528  48.739  49.602  1.00  0.00    -0.060 N 
HETATM    4  H   UNL     1      21.736  48.208  49.199  1.00  0.00     0.278 HD
HETATM    5  H   UNL     1      22.399  48.578  50.610  1.00  0.00     0.278 HD
BRANCH   3   6
HETATM    6  C   UNL     1      22.380  50.175  49.271  1.00  0.00     0.271 C 
BRANCH   6   7
HETATM    7  C   UNL     1      20.949  50.612  49.409  1.00  0.00    -0.033 A 
HETATM    8  C   UNL     1      20.057  49.888  50.218  1.00  0.00     0.010 A 
HETATM    9  C   UNL     1      18.718  50.277  50.321  1.00  0.00     0.024 A 
HETATM   10  C   UNL     1      18.262  51.388  49.615  1.00  0.00     0.034 A 
HETATM   11 CL   UNL     1      16.616  51.864  49.742  1.00  0.00    -0.084 Cl
HETATM   12  C   UNL     1      19.133  52.112  48.805  1.00  0.00     0.024 A 
HETATM   13  C   UNL     1      20.471  51.725  48.698  1.00  0.00     0.010 A 
ENDBRANCH   6   7
ENDBRANCH   3   6
ENDBRANCH   2   3
BRANCH   2  14
HETATM   14  C   UNL     1      24.255  47.093  50.258  1.00  0.00     0.138 A 
HETATM   15  N   UNL     1      24.982  47.591  51.210  1.00  0.00    -0.232 NA
HETATM   16  C   UNL     1      25.416  46.715  52.227  1.00  0.00     0.074 A 
HETATM   17  C   UNL     1      25.080  45.356  52.242  1.00  0.00     0.061 A 
HETATM   18  C   UNL     1      26.214  47.215  53.256  1.00  0.00     0.032 A 
HETATM   19  C   UNL     1      24.239  44.856  51.144  1.00  0.00     0.259 A 
HETATM   20  C   UNL     1      25.525  44.503  53.255  1.00  0.00     0.019 A 
HETATM   21  O   UNL     1      23.878  43.691  51.058  1.00  0.00    -0.267 OA
HETATM   22  N   UNL     1      23.874  45.785  50.200  1.00  0.00    -0.309 N 
HETATM   23  H   UNL     1      23.296  45.402  49.461  1.00  0.00     0.170 HD
HETATM   24  C   UNL     1      26.324  45.018  54.275  1.00  0.00     0.001 A 
HETATM   25  C   UNL     1      26.667  46.370  54.277  1.00  0.00     0.002 A 
ENDBRANCH   2  14
TORSDOF 4
ENDMDL
MODEL 8
REMARK VINA RESULT:      -8.3      4.850      7.585
REMARK  4 active torsions:
REMARK  status: ('A' for Active; 'I' for Inactive)
REMARK    1  A    between atoms: C_2  and  N_3 
REMARK    2  A    between atoms: C_2  and  C_14 
REMARK    3  A    between atoms: N_3  and  C_6 
REMARK    4  A    between atoms: C_6  and  C_7 
ROOT
HETATM    1  C   UNL     1      26.457  44.456  50.856  1.00  0.00     0.048 C 
HETATM    2  C   UNL     1      26.328  43.090  51.516  1.00  0.00     0.251 C 
ENDROOT
BRANCH   2   3
HETATM    3  N   UNL     1      26.877  43.162  52.922  1.00  0.00    -0.060 N 
HETATM    4  H   UNL     1      26.109  42.866  53.549  1.00  0.00     0.278 HD
HETATM    5  H   UNL     1      27.563  42.407  53.059  1.00  0.00     0.278 HD
BRANCH   3   6
HETATM    6  C   UNL     1      27.419  44.460  53.383  1.00  0.00     0.271 C 
BRANCH   6   7
HETATM    7  C   UNL     1      28.600  44.258  54.290  1.00  0.00    -0.033 A 
HETATM    8  C   UNL     1      29.351  43.072  54.227  1.00  0.00     0.010 A 
HETATM    9  C   UNL     1      30.430  42.870  55.093  1.00  0.00     0.024 A 
HETATM   10  C   UNL     1      30.763  43.849  56.027  1.00  0.00     0.034 A 
HETATM   11 CL   UNL     1      32.089  43.599  57.090  1.00  0.00    -0.084 Cl
HETATM   12  C   UNL     1      30.024  45.027  56.104  1.00  0.00     0.024 A 
HETATM   13  C   UNL     1      28.943  45.230  55.243  1.00  0.00     0.010 A 
ENDBRANCH   6   7
ENDBRANCH   3   6
ENDBRANCH   2   3
BRANCH   2  14
HETATM   14  C   UNL     1      27.111  42.019  50.741  1.00  0.00     0.138 A 
HETATM   15  N   UNL     1      27.719  41.098  51.423  1.00  0.00    -0.232 NA
HETATM   16  C   UNL     1      28.441  40.122  50.704  1.00  0.00     0.074 A 
HETATM   17  C   UNL     1      28.508  40.114  49.306  1.00  0.00     0.061 A 
HETATM   18  C   UNL     1      29.121  39.127  51.408  1.00  0.00     0.032 A 
HETATM   19  C   UNL     1      27.783  41.175  48.590  1.00  0.00     0.259 A 
HETATM   20  C   UNL     1      29.235  39.143  48.613  1.00  0.00     0.019 A 
HETATM   21  O   UNL     1      27.765  41.264  47.370  1.00  0.00    -0.267 OA
HETATM   22  N   UNL     1      27.116  42.081  49.378  1.00  0.00    -0.309 N 
HETATM   23  H   UNL     1      26.630  42.795  48.848  1.00  0.00     0.170 HD
HETATM   24  C   UNL     1      29.910  38.158  49.332  1.00  0.00     0.001 A 
HETATM   25  C   UNL     1      29.853  38.149  50.726  1.00  0.00     0.002 A 
ENDBRANCH   2  14
TORSDOF 4
ENDMDL
MODEL 9
REMARK VINA RESULT:      -8.1      3.877      8.467
REMARK  4 active torsions:
REMARK  status: ('A' for Active; 'I' for Inactive)
REMARK    1  A    between atoms: C_2  and  N_3 
REMARK    2  A    between atoms: C_2  and  C_14 
REMARK    3  A    between atoms: N_3  and  C_6 
REMARK    4  A    between atoms: C_6  and  C_7 
ROOT
HETATM    1  C   UNL     1      25.382  45.383  49.671  1.00  0.00     0.048 C 
HETATM    2  C   UNL     1      24.635  45.930  50.879  1.00  0.00     0.251 C 
ENDROOT
BRANCH   2   3
HETATM    3  N   UNL     1      24.136  47.322  50.570  1.00  0.00    -0.060 N 
HETATM    4  H   UNL     1      23.215  47.410  51.034  1.00  0.00     0.278 HD
HETATM    5  H   UNL     1      24.700  48.009  51.089  1.00  0.00     0.278 HD
BRANCH   3   6
HETATM    6  C   UNL     1      24.010  47.707  49.146  1.00  0.00     0.271 C 
BRANCH   6   7
HETATM    7  C   UNL     1      22.979  48.786  48.971  1.00  0.00    -0.033 A 
HETATM    8  C   UNL     1      23.372  50.124  48.794  1.00  0.00     0.010 A 
HETATM    9  C   UNL     1      22.412  51.132  48.663  1.00  0.00     0.024 A 
HETATM   10  C   UNL     1      21.057  50.811  48.711  1.00  0.00     0.034 A 
HETATM   11 CL   UNL     1      19.880  52.052  48.550  1.00  0.00    -0.084 Cl
HETATM   12  C   UNL     1      20.654  49.490  48.891  1.00  0.00     0.024 A 
HETATM   13  C   UNL     1      21.610  48.481  49.024  1.00  0.00     0.010 A 
ENDBRANCH   6   7
ENDBRANCH   3   6
ENDBRANCH   2   3
BRANCH   2  14
HETATM   14  C   UNL     1      25.547  46.001  52.114  1.00  0.00     0.138 A 
HETATM   15  N   UNL     1      26.464  45.092  52.246  1.00  0.00    -0.232 NA
HETATM   16  C   UNL     1      27.292  45.160  53.386  1.00  0.00     0.074 A 
HETATM   17  C   UNL     1      27.162  46.165  54.351  1.00  0.00     0.061 A 
HETATM   18  C   UNL     1      28.276  44.187  53.566  1.00  0.00     0.032 A 
HETATM   19  C   UNL     1      26.115  47.176  54.136  1.00  0.00     0.259 A 
HETATM   20  C   UNL     1      27.987  46.210  55.477  1.00  0.00     0.019 A 
HETATM   21  O   UNL     1      25.914  48.103  54.908  1.00  0.00    -0.267 OA
HETATM   22  N   UNL     1      25.357  47.020  53.001  1.00  0.00    -0.309 N 
HETATM   23  H   UNL     1      24.648  47.735  52.889  1.00  0.00     0.170 HD
HETATM   24  C   UNL     1      28.964  45.230  55.643  1.00  0.00     0.001 A 
HETATM   25  C   UNL     1      29.109  44.221  54.691  1.00  0.00     0.002 A 
ENDBRANCH   2  14
TORSDOF 4
ENDMDL
MODEL 10
REMARK VINA RESULT:      -8.0      4.067      6.143
REMARK  4 active torsions:
REMARK  status: ('A' for Active; 'I' for Inactive)
REMARK    1  A    between atoms: C_2  and  N_3 
REMARK    2  A    between atoms: C_2  and  C_14 
REMARK    3  A    between atoms: N_3  and  C_6 
REMARK    4  A    between atoms: C_6  and  C_7 
ROOT
HETATM    1  C   UNL     1      26.125  46.642  52.231  1.00  0.00     0.048 C 
HETATM    2  C   UNL     1      25.581  45.439  52.989  1.00  0.00     0.251 C 
ENDROOT
BRANCH   2   3
HETATM    3  N   UNL     1      26.414  45.211  54.228  1.00  0.00    -0.060 N 
HETATM    4  H   UNL     1      25.759  45.246  55.029  1.00  0.00     0.278 HD
HETATM    5  H   UNL     1      26.726  44.230  54.254  1.00  0.00     0.278 HD
BRANCH   3   6
HETATM    6  C   UNL     1      27.546  46.133  54.475  1.00  0.00     0.271 C 
BRANCH   6   7
HETATM    7  C   UNL     1      28.686  45.417  55.142  1.00  0.00    -0.033 A 
HETATM    8  C   UNL     1      29.309  45.969  56.275  1.00  0.00     0.010 A 
HETATM    9  C   UNL     1      30.391  45.317  56.875  1.00  0.00     0.024 A 
HETATM   10  C   UNL     1      30.857  44.115  56.348  1.00  0.00     0.034 A 
HETATM   11 CL   UNL     1      32.186  43.316  57.088  1.00  0.00    -0.084 Cl
HETATM   12  C   UNL     1      30.252  43.559  55.224  1.00  0.00     0.024 A 
HETATM   13  C   UNL     1      29.173  44.208  54.619  1.00  0.00     0.010 A 
ENDBRANCH   6   7
ENDBRANCH   3   6
ENDBRANCH   2   3
BRANCH   2  14
HETATM   14  C   UNL     1      25.630  44.167  52.127  1.00  0.00     0.138 A 
HETATM   15  N   UNL     1      26.709  43.448  52.165  1.00  0.00    -0.232 NA
HETATM   16  C   UNL     1      26.749  42.287  51.366  1.00  0.00     0.074 A 
HETATM   17  C   UNL     1      25.676  41.892  50.559  1.00  0.00     0.061 A 
HETATM   18  C   UNL     1      27.902  41.500  51.371  1.00  0.00     0.032 A 
HETATM   19  C   UNL     1      24.474  42.740  50.572  1.00  0.00     0.259 A 
HETATM   20  C   UNL     1      25.737  40.741  49.769  1.00  0.00     0.019 A 
HETATM   21  O   UNL     1      23.474  42.490  49.914  1.00  0.00    -0.267 OA
HETATM   22  N   UNL     1      24.535  43.852  51.377  1.00  0.00    -0.309 N 
HETATM   23  H   UNL     1      23.689  44.409  51.358  1.00  0.00     0.170 HD
HETATM   24  C   UNL     1      26.897  39.969  49.784  1.00  0.00     0.001 A 
HETATM   25  C   UNL     1      27.977  40.346  50.583  1.00  0.00     0.002 A 
ENDBRANCH   2  14
TORSDOF 4
ENDMDL
