MODEL 1
REMARK VINA RESULT:      -8.7      0.000      0.000
REMARK  3 active torsions:
REMARK  status: ('A' for Active; 'I' for Inactive)
REMARK    1  A    between atoms: C_9  and  C_10 
REMARK    2  A    between atoms: C_16  and  C_17 
REMARK       I    between atoms: C_17  and  N_18 
REMARK    3  A    between atoms: N_18  and  C_19 
ROOT
HETATM    1  C   UNL     1      28.751  40.754  52.249  1.00  0.00     0.070 C 
HETATM    2  C   UNL     1      27.558  41.465  51.663  1.00  0.00     0.037 A 
HETATM    3  N   UNL     1      27.071  40.942  50.468  1.00  0.00    -0.191 N 
HETATM    4  C   UNL     1      25.911  41.346  49.911  1.00  0.00     0.735 A 
HETATM    5  N   UNL     1      25.231  42.393  50.467  1.00  0.00    -0.091 N 
HETATM    6  N   UNL     1      24.042  42.548  49.858  1.00  0.00     0.012 NA
HETATM    7  N   UNL     1      24.050  41.647  48.881  1.00  0.00     0.033 NA
HETATM    8  N   UNL     1      25.205  40.889  48.906  1.00  0.00     0.030 NA
HETATM    9  C   UNL     1      25.661  43.129  51.648  1.00  0.00     0.216 A 
HETATM   10  C   UNL     1      26.920  42.511  52.244  1.00  0.00     0.063 A 
HETATM   11  H   UNL     1      27.533  40.118  50.089  1.00  0.00     0.184 HD
ENDROOT
BRANCH  10  12
HETATM   12  C   UNL     1      27.315  43.119  53.540  1.00  0.00     0.256 C 
HETATM   13  N   UNL     1      28.578  43.666  53.524  1.00  0.00    -0.323 N 
HETATM   14  H   UNL     1      29.060  43.666  52.633  1.00  0.00     0.169 HD
HETATM   15  O   UNL     1      26.501  43.119  54.455  1.00  0.00    -0.267 OA
BRANCH  13  16
HETATM   16  C   UNL     1      29.273  44.244  54.606  1.00  0.00     0.035 A 
HETATM   17  C   UNL     1      28.978  45.500  55.140  1.00  0.00     0.029 A 
HETATM   18  C   UNL     1      29.704  45.995  56.228  1.00  0.00     0.002 A 
HETATM   19  C   UNL     1      30.724  45.236  56.797  1.00  0.00     0.000 A 
HETATM   20  C   UNL     1      31.025  43.982  56.272  1.00  0.00     0.002 A 
HETATM   21  C   UNL     1      30.306  43.490  55.179  1.00  0.00     0.029 A 
ENDBRANCH  13  16
ENDBRANCH  10  12
BRANCH   9  22
HETATM   22  C   UNL     1      25.851  44.592  51.270  1.00  0.00     0.064 A 
HETATM   23  N   UNL     1      26.607  44.880  50.172  1.00  0.00    -0.263 NA
HETATM   24  C   UNL     1      26.731  46.181  49.825  1.00  0.00     0.117 A 
HETATM   25  C   UNL     1      26.145  47.224  50.520  1.00  0.00     0.019 A 
HETATM   26  C   UNL     1      25.382  46.920  51.640  1.00  0.00     0.003 A 
HETATM   27  C   UNL     1      25.229  45.591  52.023  1.00  0.00     0.030 A 
ENDBRANCH   9  22
TORSDOF 3
ENDMDL
MODEL 2
REMARK VINA RESULT:      -8.4      1.274      1.870
REMARK  3 active torsions:
REMARK  status: ('A' for Active; 'I' for Inactive)
REMARK    1  A    between atoms: C_9  and  C_10 
REMARK    2  A    between atoms: C_16  and  C_17 
REMARK       I    between atoms: C_17  and  N_18 
REMARK    3  A    between atoms: N_18  and  C_19 
ROOT
HETATM    1  C   UNL     1      28.175  40.767  50.322  1.00  0.00     0.070 C 
HETATM    2  C   UNL     1      26.932  41.594  50.527  1.00  0.00     0.037 A 
HETATM    3  N   UNL     1      26.027  41.597  49.468  1.00  0.00    -0.191 N 
HETATM    4  C   UNL     1      24.795  42.136  49.560  1.00  0.00     0.735 A 
HETATM    5  N   UNL     1      24.444  42.815  50.693  1.00  0.00    -0.091 N 
HETATM    6  N   UNL     1      23.142  43.149  50.649  1.00  0.00     0.012 NA
HETATM    7  N   UNL     1      22.736  42.743  49.449  1.00  0.00     0.033 NA
HETATM    8  N   UNL     1      23.754  42.107  48.764  1.00  0.00     0.030 NA
HETATM    9  C   UNL     1      25.310  43.007  51.848  1.00  0.00     0.216 A 
HETATM   10  C   UNL     1      26.629  42.264  51.667  1.00  0.00     0.063 A 
HETATM   11  H   UNL     1      26.254  41.034  48.652  1.00  0.00     0.184 HD
ENDROOT
BRANCH  10  12
HETATM   12  C   UNL     1      27.487  42.291  52.878  1.00  0.00     0.256 C 
HETATM   13  N   UNL     1      28.073  43.516  53.104  1.00  0.00    -0.323 N 
HETATM   14  H   UNL     1      27.801  44.269  52.483  1.00  0.00     0.169 HD
HETATM   15  O   UNL     1      27.562  41.279  53.562  1.00  0.00    -0.267 OA
BRANCH  13  16
HETATM   16  C   UNL     1      28.997  43.849  54.115  1.00  0.00     0.035 A 
HETATM   17  C   UNL     1      30.134  43.094  54.412  1.00  0.00     0.029 A 
HETATM   18  C   UNL     1      31.013  43.504  55.420  1.00  0.00     0.002 A 
HETATM   19  C   UNL     1      30.769  44.675  56.132  1.00  0.00     0.000 A 
HETATM   20  C   UNL     1      29.639  45.436  55.844  1.00  0.00     0.002 A 
HETATM   21  C   UNL     1      28.755  45.022  54.843  1.00  0.00     0.029 A 
ENDBRANCH  13  16
ENDBRANCH  10  12
BRANCH   9  22
HETATM   22  C   UNL     1      25.508  44.502  52.066  1.00  0.00     0.064 A 
HETATM   23  N   UNL     1      25.334  44.998  53.324  1.00  0.00    -0.263 NA
HETATM   24  C   UNL     1      25.555  46.318  53.509  1.00  0.00     0.117 A 
HETATM   25  C   UNL     1      25.938  47.186  52.501  1.00  0.00     0.019 A 
HETATM   26  C   UNL     1      26.107  46.672  51.222  1.00  0.00     0.003 A 
HETATM   27  C   UNL     1      25.893  45.315  50.996  1.00  0.00     0.030 A 
ENDBRANCH   9  22
TORSDOF 3
ENDMDL
MODEL 3
REMARK VINA RESULT:      -8.3      1.760      4.276
REMARK  3 active torsions:
REMARK  status: ('A' for Active; 'I' for Inactive)
REMARK    1  A    between atoms: C_9  and  C_10 
REMARK    2  A    between atoms: C_16  and  C_17 
REMARK       I    between atoms: C_17  and  N_18 
REMARK    3  A    between atoms: N_18  and  C_19 
ROOT
HETATM    1  C   UNL     1      25.848  47.052  54.930  1.00  0.00     0.070 C 
HETATM    2  C   UNL     1      26.116  46.579  53.525  1.00  0.00     0.037 A 
HETATM    3  N   UNL     1      25.526  47.330  52.512  1.00  0.00    -0.191 N 
HETATM    4  C   UNL     1      25.810  47.150  51.206  1.00  0.00     0.735 A 
HETATM    5  N   UNL     1      26.619  46.112  50.834  1.00  0.00    -0.091 N 
HETATM    6  N   UNL     1      26.894  46.187  49.520  1.00  0.00     0.012 NA
HETATM    7  N   UNL     1      26.178  47.222  49.090  1.00  0.00     0.033 NA
HETATM    8  N   UNL     1      25.503  47.833  50.130  1.00  0.00     0.030 NA
HETATM    9  C   UNL     1      27.224  45.160  51.755  1.00  0.00     0.216 A 
HETATM   10  C   UNL     1      26.918  45.534  53.201  1.00  0.00     0.063 A 
HETATM   11  H   UNL     1      24.982  48.146  52.784  1.00  0.00     0.184 HD
ENDROOT
BRANCH  10  12
HETATM   12  C   UNL     1      27.640  44.693  54.189  1.00  0.00     0.256 C 
HETATM   13  N   UNL     1      28.765  45.298  54.701  1.00  0.00    -0.323 N 
HETATM   14  H   UNL     1      28.932  46.256  54.418  1.00  0.00     0.169 HD
HETATM   15  O   UNL     1      27.168  43.601  54.480  1.00  0.00    -0.267 OA
BRANCH  13  16
HETATM   16  C   UNL     1      29.705  44.741  55.593  1.00  0.00     0.035 A 
HETATM   17  C   UNL     1      30.458  43.599  55.319  1.00  0.00     0.029 A 
HETATM   18  C   UNL     1      31.386  43.121  56.250  1.00  0.00     0.002 A 
HETATM   19  C   UNL     1      31.575  43.787  57.459  1.00  0.00     0.000 A 
HETATM   20  C   UNL     1      30.829  44.928  57.742  1.00  0.00     0.002 A 
HETATM   21  C   UNL     1      29.896  45.401  56.815  1.00  0.00     0.029 A 
ENDBRANCH  13  16
ENDBRANCH  10  12
BRANCH   9  22
HETATM   22  C   UNL     1      26.739  43.760  51.399  1.00  0.00     0.064 A 
HETATM   23  N   UNL     1      25.399  43.563  51.248  1.00  0.00    -0.263 NA
HETATM   24  C   UNL     1      24.988  42.325  50.890  1.00  0.00     0.117 A 
HETATM   25  C   UNL     1      25.845  41.259  50.678  1.00  0.00     0.019 A 
HETATM   26  C   UNL     1      27.208  41.470  50.839  1.00  0.00     0.003 A 
HETATM   27  C   UNL     1      27.666  42.734  51.203  1.00  0.00     0.030 A 
ENDBRANCH   9  22
TORSDOF 3
ENDMDL
MODEL 4
REMARK VINA RESULT:      -7.9      2.486      6.575
REMARK  3 active torsions:
REMARK  status: ('A' for Active; 'I' for Inactive)
REMARK    1  A    between atoms: C_9  and  C_10 
REMARK    2  A    between atoms: C_16  and  C_17 
REMARK       I    between atoms: C_17  and  N_18 
REMARK    3  A    between atoms: N_18  and  C_19 
ROOT
HETATM    1  C   UNL     1      24.322  45.658  49.453  1.00  0.00     0.070 C 
HETATM    2  C   UNL     1      24.909  45.582  50.839  1.00  0.00     0.037 A 
HETATM    3  N   UNL     1      25.132  46.805  51.468  1.00  0.00    -0.191 N 
HETATM    4  C   UNL     1      25.481  46.906  52.767  1.00  0.00     0.735 A 
HETATM    5  N   UNL     1      25.746  45.771  53.480  1.00  0.00    -0.091 N 
HETATM    6  N   UNL     1      25.934  46.072  54.777  1.00  0.00     0.012 NA
HETATM    7  N   UNL     1      25.866  47.399  54.823  1.00  0.00     0.033 NA
HETATM    8  N   UNL     1      25.579  47.931  53.579  1.00  0.00     0.030 NA
HETATM    9  C   UNL     1      25.675  44.419  52.944  1.00  0.00     0.216 A 
HETATM   10  C   UNL     1      25.168  44.430  51.506  1.00  0.00     0.063 A 
HETATM   11  H   UNL     1      24.868  47.650  50.966  1.00  0.00     0.184 HD
ENDROOT
BRANCH  10  12
HETATM   12  C   UNL     1      24.923  43.072  50.961  1.00  0.00     0.256 C 
HETATM   13  N   UNL     1      26.021  42.532  50.328  1.00  0.00    -0.323 N 
HETATM   14  H   UNL     1      26.878  43.071  50.371  1.00  0.00     0.169 HD
HETATM   15  O   UNL     1      23.829  42.556  51.150  1.00  0.00    -0.267 OA
BRANCH  13  16
HETATM   16  C   UNL     1      26.094  41.302  49.642  1.00  0.00     0.035 A 
HETATM   17  C   UNL     1      26.696  40.155  50.160  1.00  0.00     0.029 A 
HETATM   18  C   UNL     1      26.709  38.967  49.423  1.00  0.00     0.002 A 
HETATM   19  C   UNL     1      26.112  38.913  48.165  1.00  0.00     0.000 A 
HETATM   20  C   UNL     1      25.508  40.052  47.639  1.00  0.00     0.002 A 
HETATM   21  C   UNL     1      25.502  41.242  48.373  1.00  0.00     0.029 A 
ENDBRANCH  13  16
ENDBRANCH  10  12
BRANCH   9  22
HETATM   22  C   UNL     1      27.048  43.770  53.074  1.00  0.00     0.064 A 
HETATM   23  N   UNL     1      27.990  44.064  52.133  1.00  0.00    -0.263 NA
HETATM   24  C   UNL     1      29.215  43.514  52.285  1.00  0.00     0.117 A 
HETATM   25  C   UNL     1      29.559  42.673  53.330  1.00  0.00     0.019 A 
HETATM   26  C   UNL     1      28.590  42.376  54.279  1.00  0.00     0.003 A 
HETATM   27  C   UNL     1      27.319  42.929  54.156  1.00  0.00     0.030 A 
ENDBRANCH   9  22
TORSDOF 3
ENDMDL
MODEL 5
REMARK VINA RESULT:      -7.7      5.344      8.641
REMARK  3 active torsions:
REMARK  status: ('A' for Active; 'I' for Inactive)
REMARK    1  A    between atoms: C_9  and  C_10 
REMARK    2  A    between atoms: C_16  and  C_17 
REMARK       I    between atoms: C_17  and  N_18 
REMARK    3  A    between atoms: N_18  and  C_19 
ROOT
HETATM    1  C   UNL     1      25.298  48.193  49.446  1.00  0.00     0.070 C 
HETATM    2  C   UNL     1      24.519  46.905  49.514  1.00  0.00     0.037 A 
HETATM    3  N   UNL     1      25.198  45.816  50.056  1.00  0.00    -0.191 N 
HETATM    4  C   UNL     1      24.591  44.648  50.350  1.00  0.00     0.735 A 
HETATM    5  N   UNL     1      23.283  44.467  50.000  1.00  0.00    -0.091 N 
HETATM    6  N   UNL     1      22.825  43.306  50.502  1.00  0.00     0.012 NA
HETATM    7  N   UNL     1      23.888  42.754  51.079  1.00  0.00     0.033 NA
HETATM    8  N   UNL     1      24.992  43.581  50.996  1.00  0.00     0.030 NA
HETATM    9  C   UNL     1      22.459  45.459  49.322  1.00  0.00     0.216 A 
HETATM   10  C   UNL     1      23.222  46.767  49.143  1.00  0.00     0.063 A 
HETATM   11  H   UNL     1      26.149  45.968  50.383  1.00  0.00     0.184 HD
ENDROOT
BRANCH  10  12
HETATM   12  C   UNL     1      22.382  47.865  48.602  1.00  0.00     0.256 C 
HETATM   13  N   UNL     1      21.769  48.616  49.581  1.00  0.00    -0.323 N 
HETATM   14  H   UNL     1      22.013  48.395  50.539  1.00  0.00     0.169 HD
HETATM   15  O   UNL     1      22.344  48.027  47.389  1.00  0.00    -0.267 OA
BRANCH  13  16
HETATM   16  C   UNL     1      20.853  49.672  49.400  1.00  0.00     0.035 A 
HETATM   17  C   UNL     1      21.138  50.837  48.686  1.00  0.00     0.029 A 
HETATM   18  C   UNL     1      20.165  51.831  48.537  1.00  0.00     0.002 A 
HETATM   19  C   UNL     1      18.899  51.665  49.091  1.00  0.00     0.000 A 
HETATM   20  C   UNL     1      18.604  50.506  49.803  1.00  0.00     0.002 A 
HETATM   21  C   UNL     1      19.578  49.516  49.961  1.00  0.00     0.029 A 
ENDBRANCH  13  16
ENDBRANCH  10  12
BRANCH   9  22
HETATM   22  C   UNL     1      21.983  44.875  47.998  1.00  0.00     0.064 A 
HETATM   23  N   UNL     1      20.646  44.666  47.831  1.00  0.00    -0.263 NA
HETATM   24  C   UNL     1      20.235  44.188  46.635  1.00  0.00     0.117 A 
HETATM   25  C   UNL     1      21.090  43.895  45.586  1.00  0.00     0.019 A 
HETATM   26  C   UNL     1      22.450  44.105  45.769  1.00  0.00     0.003 A 
HETATM   27  C   UNL     1      22.907  44.602  46.986  1.00  0.00     0.030 A 
ENDBRANCH   9  22
TORSDOF 3
ENDMDL
MODEL 6
REMARK VINA RESULT:      -7.7     12.739     13.556
REMARK  3 active torsions:
REMARK  status: ('A' for Active; 'I' for Inactive)
REMARK    1  A    between atoms: C_9  and  C_10 
REMARK    2  A    between atoms: C_16  and  C_17 
REMARK       I    between atoms: C_17  and  N_18 
REMARK    3  A    between atoms: N_18  and  C_19 
ROOT
HETATM    1  C   UNL     1      31.222  46.872  39.858  1.00  0.00     0.070 C 
HETATM    2  C   UNL     1      29.997  47.750  39.825  1.00  0.00     0.037 A 
HETATM    3  N   UNL     1      29.060  47.442  38.843  1.00  0.00    -0.191 N 
HETATM    4  C   UNL     1      27.838  48.010  38.793  1.00  0.00     0.735 A 
HETATM    5  N   UNL     1      27.532  49.017  39.664  1.00  0.00    -0.091 N 
HETATM    6  N   UNL     1      26.234  49.350  39.551  1.00  0.00     0.012 NA
HETATM    7  N   UNL     1      25.786  48.598  38.550  1.00  0.00     0.033 NA
HETATM    8  N   UNL     1      26.772  47.756  38.072  1.00  0.00     0.030 NA
HETATM    9  C   UNL     1      28.437  49.542  40.677  1.00  0.00     0.216 A 
HETATM   10  C   UNL     1      29.739  48.749  40.705  1.00  0.00     0.063 A 
HETATM   11  H   UNL     1      29.253  46.646  38.238  1.00  0.00     0.184 HD
ENDROOT
BRANCH  10  12
HETATM   12  C   UNL     1      30.636  49.135  41.823  1.00  0.00     0.256 C 
HETATM   13  N   UNL     1      31.432  50.220  41.535  1.00  0.00    -0.323 N 
HETATM   14  H   UNL     1      31.270  50.677  40.645  1.00  0.00     0.169 HD
HETATM   15  O   UNL     1      30.562  48.508  42.872  1.00  0.00    -0.267 OA
BRANCH  13  16
HETATM   16  C   UNL     1      32.438  50.783  42.347  1.00  0.00     0.035 A 
HETATM   17  C   UNL     1      33.792  50.806  42.007  1.00  0.00     0.029 A 
HETATM   18  C   UNL     1      34.726  51.402  42.860  1.00  0.00     0.002 A 
HETATM   19  C   UNL     1      34.315  51.987  44.055  1.00  0.00     0.000 A 
HETATM   20  C   UNL     1      32.967  51.970  44.403  1.00  0.00     0.002 A 
HETATM   21  C   UNL     1      32.033  51.367  43.555  1.00  0.00     0.029 A 
ENDBRANCH  13  16
ENDBRANCH  10  12
BRANCH   9  22
HETATM   22  C   UNL     1      28.663  51.025  40.410  1.00  0.00     0.064 A 
HETATM   23  N   UNL     1      28.567  51.889  41.460  1.00  0.00    -0.263 NA
HETATM   24  C   UNL     1      28.812  53.196  41.215  1.00  0.00     0.117 A 
HETATM   25  C   UNL     1      29.142  53.699  39.968  1.00  0.00     0.019 A 
HETATM   26  C   UNL     1      29.231  52.810  38.904  1.00  0.00     0.003 A 
HETATM   27  C   UNL     1      28.991  51.457  39.122  1.00  0.00     0.030 A 
ENDBRANCH   9  22
TORSDOF 3
ENDMDL
MODEL 7
REMARK VINA RESULT:      -7.6     12.839     15.004
REMARK  3 active torsions:
REMARK  status: ('A' for Active; 'I' for Inactive)
REMARK    1  A    between atoms: C_9  and  C_10 
REMARK    2  A    between atoms: C_16  and  C_17 
REMARK       I    between atoms: C_17  and  N_18 
REMARK    3  A    between atoms: N_18  and  C_19 
ROOT
HETATM    1  C   UNL     1      32.983  47.543  41.702  1.00  0.00     0.070 C 
HETATM    2  C   UNL     1      32.865  48.949  41.171  1.00  0.00     0.037 A 
HETATM    3  N   UNL     1      33.876  49.826  41.556  1.00  0.00    -0.191 N 
HETATM    4  C   UNL     1      34.016  51.058  41.027  1.00  0.00     0.735 A 
HETATM    5  N   UNL     1      33.067  51.528  40.163  1.00  0.00    -0.091 N 
HETATM    6  N   UNL     1      33.456  52.705  39.642  1.00  0.00     0.012 NA
HETATM    7  N   UNL     1      34.600  52.979  40.262  1.00  0.00     0.033 NA
HETATM    8  N   UNL     1      34.962  51.961  41.122  1.00  0.00     0.030 NA
HETATM    9  C   UNL     1      31.885  50.786  39.746  1.00  0.00     0.216 A 
HETATM   10  C   UNL     1      31.897  49.375  40.323  1.00  0.00     0.063 A 
HETATM   11  H   UNL     1      34.623  49.458  42.141  1.00  0.00     0.184 HD
ENDROOT
BRANCH  10  12
HETATM   12  C   UNL     1      30.800  48.521  39.804  1.00  0.00     0.256 C 
HETATM   13  N   UNL     1      29.742  48.399  40.678  1.00  0.00    -0.323 N 
HETATM   14  H   UNL     1      29.789  48.955  41.524  1.00  0.00     0.169 HD
HETATM   15  O   UNL     1      30.908  48.054  38.678  1.00  0.00    -0.267 OA
BRANCH  13  16
HETATM   16  C   UNL     1      28.590  47.603  40.521  1.00  0.00     0.035 A 
HETATM   17  C   UNL     1      28.619  46.235  40.243  1.00  0.00     0.029 A 
HETATM   18  C   UNL     1      27.429  45.512  40.121  1.00  0.00     0.002 A 
HETATM   19  C   UNL     1      26.200  46.146  40.285  1.00  0.00     0.000 A 
HETATM   20  C   UNL     1      26.160  47.510  40.564  1.00  0.00     0.002 A 
HETATM   21  C   UNL     1      27.349  48.235  40.677  1.00  0.00     0.029 A 
ENDBRANCH  13  16
ENDBRANCH  10  12
BRANCH   9  22
HETATM   22  C   UNL     1      30.645  51.573  40.155  1.00  0.00     0.064 A 
HETATM   23  N   UNL     1      30.315  51.612  41.477  1.00  0.00    -0.263 NA
HETATM   24  C   UNL     1      29.237  52.349  41.828  1.00  0.00     0.117 A 
HETATM   25  C   UNL     1      28.457  53.053  40.927  1.00  0.00     0.019 A 
HETATM   26  C   UNL     1      28.799  53.002  39.582  1.00  0.00     0.003 A 
HETATM   27  C   UNL     1      29.906  52.256  39.186  1.00  0.00     0.030 A 
ENDBRANCH   9  22
TORSDOF 3
ENDMDL
MODEL 8
REMARK VINA RESULT:      -7.5     16.340     17.683
REMARK  3 active torsions:
REMARK  status: ('A' for Active; 'I' for Inactive)
REMARK    1  A    between atoms: C_9  and  C_10 
REMARK    2  A    between atoms: C_16  and  C_17 
REMARK       I    between atoms: C_17  and  N_18 
REMARK    3  A    between atoms: N_18  and  C_19 
ROOT
HETATM    1  C   UNL     1      35.517  43.731  65.865  1.00  0.00     0.070 C 
HETATM    2  C   UNL     1      36.771  43.241  65.187  1.00  0.00     0.037 A 
HETATM    3  N   UNL     1      36.980  41.865  65.226  1.00  0.00    -0.191 N 
HETATM    4  C   UNL     1      37.951  41.252  64.519  1.00  0.00     0.735 A 
HETATM    5  N   UNL     1      38.850  42.008  63.820  1.00  0.00    -0.091 N 
HETATM    6  N   UNL     1      39.641  41.217  63.075  1.00  0.00     0.012 NA
HETATM    7  N   UNL     1      39.270  39.981  63.395  1.00  0.00     0.033 NA
HETATM    8  N   UNL     1      38.216  39.989  64.289  1.00  0.00     0.030 NA
HETATM    9  C   UNL     1      38.845  43.464  63.767  1.00  0.00     0.216 A 
HETATM   10  C   UNL     1      37.643  44.031  64.513  1.00  0.00     0.063 A 
HETATM   11  H   UNL     1      36.275  41.292  65.684  1.00  0.00     0.184 HD
ENDROOT
BRANCH  10  12
HETATM   12  C   UNL     1      37.498  45.500  64.359  1.00  0.00     0.256 C 
HETATM   13  N   UNL     1      38.273  46.221  65.239  1.00  0.00    -0.323 N 
HETATM   14  H   UNL     1      38.902  45.689  65.828  1.00  0.00     0.169 HD
HETATM   15  O   UNL     1      36.766  45.924  63.473  1.00  0.00    -0.267 OA
BRANCH  13  16
HETATM   16  C   UNL     1      38.305  47.621  65.402  1.00  0.00     0.035 A 
HETATM   17  C   UNL     1      37.273  48.363  65.980  1.00  0.00     0.029 A 
HETATM   18  C   UNL     1      37.391  49.749  66.123  1.00  0.00     0.002 A 
HETATM   19  C   UNL     1      38.545  50.404  65.699  1.00  0.00     0.000 A 
HETATM   20  C   UNL     1      39.581  49.674  65.122  1.00  0.00     0.002 A 
HETATM   21  C   UNL     1      39.459  48.289  64.971  1.00  0.00     0.029 A 
ENDBRANCH  13  16
ENDBRANCH  10  12
BRANCH   9  22
HETATM   22  C   UNL     1      40.170  43.976  64.319  1.00  0.00     0.064 A 
HETATM   23  N   UNL     1      40.427  43.796  65.645  1.00  0.00    -0.263 NA
HETATM   24  C   UNL     1      41.625  44.218  66.111  1.00  0.00     0.117 A 
HETATM   25  C   UNL     1      42.588  44.823  65.323  1.00  0.00     0.019 A 
HETATM   26  C   UNL     1      42.314  45.008  63.975  1.00  0.00     0.003 A 
HETATM   27  C   UNL     1      41.093  44.580  63.461  1.00  0.00     0.030 A 
ENDBRANCH   9  22
TORSDOF 3
ENDMDL
MODEL 9
REMARK VINA RESULT:      -7.3      2.352      4.402
REMARK  3 active torsions:
REMARK  status: ('A' for Active; 'I' for Inactive)
REMARK    1  A    between atoms: C_9  and  C_10 
REMARK    2  A    between atoms: C_16  and  C_17 
REMARK       I    between atoms: C_17  and  N_18 
REMARK    3  A    between atoms: N_18  and  C_19 
ROOT
HETATM    1  C   UNL     1      25.778  47.634  54.796  1.00  0.00     0.070 C 
HETATM    2  C   UNL     1      26.182  46.717  53.669  1.00  0.00     0.037 A 
HETATM    3  N   UNL     1      25.246  46.565  52.650  1.00  0.00    -0.191 N 
HETATM    4  C   UNL     1      25.521  45.929  51.493  1.00  0.00     0.735 A 
HETATM    5  N   UNL     1      26.725  45.299  51.345  1.00  0.00    -0.091 N 
HETATM    6  N   UNL     1      26.861  44.851  50.084  1.00  0.00     0.012 NA
HETATM    7  N   UNL     1      25.701  45.139  49.503  1.00  0.00     0.033 NA
HETATM    8  N   UNL     1      24.860  45.814  50.367  1.00  0.00     0.030 NA
HETATM    9  C   UNL     1      27.771  45.260  52.357  1.00  0.00     0.216 A 
HETATM   10  C   UNL     1      27.386  46.101  53.569  1.00  0.00     0.063 A 
HETATM   11  H   UNL     1      24.378  47.090  52.723  1.00  0.00     0.184 HD
ENDROOT
BRANCH  10  12
HETATM   12  C   UNL     1      28.480  46.230  54.564  1.00  0.00     0.256 C 
HETATM   13  N   UNL     1      28.865  45.026  55.110  1.00  0.00    -0.323 N 
HETATM   14  H   UNL     1      28.428  44.196  54.728  1.00  0.00     0.169 HD
HETATM   15  O   UNL     1      28.952  47.340  54.772  1.00  0.00    -0.267 OA
BRANCH  13  16
HETATM   16  C   UNL     1      29.814  44.814  56.131  1.00  0.00     0.035 A 
HETATM   17  C   UNL     1      30.806  43.834  56.082  1.00  0.00     0.029 A 
HETATM   18  C   UNL     1      31.723  43.702  57.130  1.00  0.00     0.002 A 
HETATM   19  C   UNL     1      31.662  44.553  58.230  1.00  0.00     0.000 A 
HETATM   20  C   UNL     1      30.676  45.534  58.289  1.00  0.00     0.002 A 
HETATM   21  C   UNL     1      29.754  45.662  57.246  1.00  0.00     0.029 A 
ENDBRANCH  13  16
ENDBRANCH  10  12
BRANCH   9  22
HETATM   22  C   UNL     1      28.045  43.806  52.720  1.00  0.00     0.064 A 
HETATM   23  N   UNL     1      29.306  43.322  52.532  1.00  0.00    -0.263 NA
HETATM   24  C   UNL     1      29.544  42.043  52.898  1.00  0.00     0.117 A 
HETATM   25  C   UNL     1      28.585  41.205  53.442  1.00  0.00     0.019 A 
HETATM   26  C   UNL     1      27.303  41.706  53.625  1.00  0.00     0.003 A 
HETATM   27  C   UNL     1      27.024  43.021  53.263  1.00  0.00     0.030 A 
ENDBRANCH   9  22
TORSDOF 3
ENDMDL
MODEL 10
REMARK VINA RESULT:      -7.2      8.005     11.464
REMARK  3 active torsions:
REMARK  status: ('A' for Active; 'I' for Inactive)
REMARK    1  A    between atoms: C_9  and  C_10 
REMARK    2  A    between atoms: C_16  and  C_17 
REMARK       I    between atoms: C_17  and  N_18 
REMARK    3  A    between atoms: N_18  and  C_19 
ROOT
HETATM    1  C   UNL     1      20.621  44.911  48.011  1.00  0.00     0.070 C 
HETATM    2  C   UNL     1      21.227  46.274  48.227  1.00  0.00     0.037 A 
HETATM    3  N   UNL     1      22.371  46.308  49.020  1.00  0.00    -0.191 N 
HETATM    4  C   UNL     1      23.130  47.412  49.162  1.00  0.00     0.735 A 
HETATM    5  N   UNL     1      22.712  48.588  48.606  1.00  0.00    -0.091 N 
HETATM    6  N   UNL     1      23.667  49.527  48.735  1.00  0.00     0.012 NA
HETATM    7  N   UNL     1      24.621  48.934  49.446  1.00  0.00     0.033 NA
HETATM    8  N   UNL     1      24.302  47.616  49.714  1.00  0.00     0.030 NA
HETATM    9  C   UNL     1      21.482  48.755  47.844  1.00  0.00     0.216 A 
HETATM   10  C   UNL     1      20.770  47.420  47.663  1.00  0.00     0.063 A 
HETATM   11  H   UNL     1      22.725  45.423  49.377  1.00  0.00     0.184 HD
ENDROOT
BRANCH  10  12
HETATM   12  C   UNL     1      19.595  47.500  46.759  1.00  0.00     0.256 C 
HETATM   13  N   UNL     1      18.438  47.878  47.402  1.00  0.00    -0.323 N 
HETATM   14  H   UNL     1      18.525  48.131  48.379  1.00  0.00     0.169 HD
HETATM   15  O   UNL     1      19.760  47.275  45.567  1.00  0.00    -0.267 OA
BRANCH  13  16
HETATM   16  C   UNL     1      17.144  47.971  46.849  1.00  0.00     0.035 A 
HETATM   17  C   UNL     1      16.709  47.226  45.753  1.00  0.00     0.029 A 
HETATM   18  C   UNL     1      15.401  47.363  45.277  1.00  0.00     0.002 A 
HETATM   19  C   UNL     1      14.515  48.239  45.899  1.00  0.00     0.000 A 
HETATM   20  C   UNL     1      14.938  48.986  46.994  1.00  0.00     0.002 A 
HETATM   21  C   UNL     1      16.248  48.856  47.465  1.00  0.00     0.029 A 
ENDBRANCH  13  16
ENDBRANCH  10  12
BRANCH   9  22
HETATM   22  C   UNL     1      20.611  49.791  48.544  1.00  0.00     0.064 A 
HETATM   23  N   UNL     1      20.033  49.449  49.731  1.00  0.00    -0.263 NA
HETATM   24  C   UNL     1      19.298  50.393  50.360  1.00  0.00     0.117 A 
HETATM   25  C   UNL     1      19.097  51.670  49.867  1.00  0.00     0.019 A 
HETATM   26  C   UNL     1      19.685  52.006  48.654  1.00  0.00     0.003 A 
HETATM   27  C   UNL     1      20.453  51.060  47.982  1.00  0.00     0.030 A 
ENDBRANCH   9  22
TORSDOF 3
ENDMDL
