MODEL 1
REMARK VINA RESULT:      -8.6      0.000      0.000
REMARK  8 active torsions:
REMARK  status: ('A' for Active; 'I' for Inactive)
REMARK    1  A    between atoms: C_8  and  C_9 
REMARK       I    between atoms: C_9  and  N_10 
REMARK    2  A    between atoms: N_10  and  N_11 
REMARK    3  A    between atoms: N_11  and  C_12 
REMARK    4  A    between atoms: C_12  and  N_13 
REMARK    5  A    between atoms: N_13  and  C_14 
REMARK    6  A    between atoms: C_15  and  O_16 
REMARK    7  A    between atoms: C_19  and  O_20 
REMARK    8  A    between atoms: C_26  and  C_27 
ROOT
HETATM    1  C   UNL     1      24.546  44.529  50.313  1.00  0.00     0.275 C 
HETATM    2  N   UNL     1      25.243  44.264  51.473  1.00  0.00    -0.263 N 
HETATM    3  O   UNL     1      24.179  43.651  49.535  1.00  0.00    -0.266 OA
HETATM    4  H   UNL     1      25.697  45.021  51.977  1.00  0.00     0.190 HD
ENDROOT
BRANCH   2   5
HETATM    5  N   UNL     1      25.634  42.942  51.768  1.00  0.00    -0.273 N 
HETATM    6  H   UNL     1      25.186  42.576  52.612  1.00  0.00     0.189 HD
BRANCH   5   7
HETATM    7  C   UNL     1      26.949  42.612  51.618  1.00  0.00     0.191 C 
HETATM    8  S   UNL     1      27.370  41.054  51.198  1.00  0.00    -0.039 SA
BRANCH   7   9
HETATM    9  N   UNL     1      27.924  43.522  51.890  1.00  0.00    -0.330 N 
HETATM   10  H   UNL     1      28.006  44.271  51.208  1.00  0.00     0.168 HD
BRANCH   9  11
HETATM   11  C   UNL     1      28.671  43.762  53.069  1.00  0.00     0.068 A 
HETATM   12  C   UNL     1      28.177  44.737  53.962  1.00  0.00     0.097 A 
HETATM   13  C   UNL     1      28.857  45.002  55.159  1.00  0.00     0.075 A 
HETATM   14  C   UNL     1      30.016  44.292  55.480  1.00  0.00     0.070 A 
HETATM   15  C   UNL     1      30.489  43.317  54.601  1.00  0.00     0.039 A 
HETATM   16  C   UNL     1      29.817  43.043  53.409  1.00  0.00     0.035 A 
BRANCH  12  17
HETATM   17  O   UNL     1      27.028  45.377  53.553  1.00  0.00    -0.354 OA
HETATM   18  C   UNL     1      26.518  46.406  54.392  1.00  0.00     0.210 C 
ENDBRANCH  12  17
BRANCH  14  19
HETATM   19  O   UNL     1      30.770  44.450  56.609  1.00  0.00    -0.356 OA
HETATM   20  C   UNL     1      31.568  43.346  57.018  1.00  0.00     0.210 C 
ENDBRANCH  14  19
ENDBRANCH   9  11
ENDBRANCH   7   9
ENDBRANCH   5   7
ENDBRANCH   2   5
BRANCH   1  21
HETATM   21  C   UNL     1      24.315  45.937  50.073  1.00  0.00     0.098 A 
HETATM   22  C   UNL     1      23.304  46.548  49.355  1.00  0.00     0.138 A 
HETATM   23  N   UNL     1      22.258  46.073  48.631  1.00  0.00    -0.370 N 
HETATM   24  N   UNL     1      23.541  47.900  49.449  1.00  0.00    -0.240 N 
HETATM   25  C   UNL     1      21.240  46.969  48.093  1.00  0.00     0.081 C 
HETATM   26  H   UNL     1      22.251  45.124  48.253  1.00  0.00     0.161 HD
HETATM   27  C   UNL     1      20.108  47.122  49.106  1.00  0.00     0.032 C 
HETATM   28  C   UNL     1      21.876  48.303  47.693  1.00  0.00     0.061 C 
HETATM   29  C   UNL     1      22.710  48.920  48.832  1.00  0.00     0.221 C 
HETATM   30  N   UNL     1      24.591  48.209  50.224  1.00  0.00    -0.181 NA
HETATM   31  C   UNL     1      25.088  47.016  50.561  1.00  0.00     0.160 A 
BRANCH  29  32
HETATM   32  C   UNL     1      23.523  50.077  48.288  1.00  0.00     0.409 C 
HETATM   33  F   UNL     1      23.770  51.025  49.221  1.00  0.00    -0.169 F 
HETATM   34  F   UNL     1      24.739  49.618  47.879  1.00  0.00    -0.169 F 
HETATM   35  F   UNL     1      22.971  50.670  47.209  1.00  0.00    -0.169 F 
ENDBRANCH  29  32
ENDBRANCH   1  21
TORSDOF 8
ENDMDL
MODEL 2
REMARK VINA RESULT:      -8.3      4.556      9.627
REMARK  8 active torsions:
REMARK  status: ('A' for Active; 'I' for Inactive)
REMARK    1  A    between atoms: C_8  and  C_9 
REMARK       I    between atoms: C_9  and  N_10 
REMARK    2  A    between atoms: N_10  and  N_11 
REMARK    3  A    between atoms: N_11  and  C_12 
REMARK    4  A    between atoms: C_12  and  N_13 
REMARK    5  A    between atoms: N_13  and  C_14 
REMARK    6  A    between atoms: C_15  and  O_16 
REMARK    7  A    between atoms: C_19  and  O_20 
REMARK    8  A    between atoms: C_26  and  C_27 
ROOT
HETATM    1  C   UNL     1      25.436  46.529  52.205  1.00  0.00     0.275 C 
HETATM    2  N   UNL     1      24.901  46.181  50.983  1.00  0.00    -0.263 N 
HETATM    3  O   UNL     1      25.217  47.608  52.751  1.00  0.00    -0.266 OA
HETATM    4  H   UNL     1      25.263  45.375  50.480  1.00  0.00     0.190 HD
ENDROOT
BRANCH   2   5
HETATM    5  N   UNL     1      24.126  47.117  50.266  1.00  0.00    -0.273 N 
HETATM    6  H   UNL     1      23.679  47.808  50.874  1.00  0.00     0.189 HD
BRANCH   5   7
HETATM    7  C   UNL     1      23.354  46.659  49.239  1.00  0.00     0.191 C 
HETATM    8  S   UNL     1      23.165  45.016  49.013  1.00  0.00    -0.039 SA
BRANCH   7   9
HETATM    9  N   UNL     1      22.807  47.528  48.347  1.00  0.00    -0.330 N 
HETATM   10  H   UNL     1      22.792  47.195  47.386  1.00  0.00     0.168 HD
BRANCH   9  11
HETATM   11  C   UNL     1      22.028  48.695  48.540  1.00  0.00     0.068 A 
HETATM   12  C   UNL     1      22.510  49.896  47.979  1.00  0.00     0.097 A 
HETATM   13  C   UNL     1      21.772  51.079  48.112  1.00  0.00     0.075 A 
HETATM   14  C   UNL     1      20.549  51.073  48.788  1.00  0.00     0.070 A 
HETATM   15  C   UNL     1      20.069  49.878  49.325  1.00  0.00     0.039 A 
HETATM   16  C   UNL     1      20.795  48.692  49.194  1.00  0.00     0.035 A 
BRANCH  12  17
HETATM   17  O   UNL     1      23.722  49.794  47.333  1.00  0.00    -0.354 OA
HETATM   18  C   UNL     1      24.886  50.162  48.064  1.00  0.00     0.210 C 
ENDBRANCH  12  17
BRANCH  14  19
HETATM   19  O   UNL     1      19.733  52.150  48.987  1.00  0.00    -0.356 OA
HETATM   20  C   UNL     1      18.563  51.945  49.770  1.00  0.00     0.210 C 
ENDBRANCH  14  19
ENDBRANCH   9  11
ENDBRANCH   7   9
ENDBRANCH   5   7
ENDBRANCH   2   5
BRANCH   1  21
HETATM   21  C   UNL     1      26.308  45.523  52.774  1.00  0.00     0.098 A 
HETATM   22  C   UNL     1      27.289  45.660  53.739  1.00  0.00     0.138 A 
HETATM   23  N   UNL     1      27.781  46.726  54.422  1.00  0.00    -0.370 N 
HETATM   24  N   UNL     1      27.809  44.400  53.926  1.00  0.00    -0.240 N 
HETATM   25  C   UNL     1      28.733  46.551  55.513  1.00  0.00     0.081 C 
HETATM   26  H   UNL     1      27.682  47.681  54.075  1.00  0.00     0.161 HD
HETATM   27  C   UNL     1      27.977  46.409  56.832  1.00  0.00     0.032 C 
HETATM   28  C   UNL     1      29.657  45.367  55.217  1.00  0.00     0.061 C 
HETATM   29  C   UNL     1      28.876  44.087  54.861  1.00  0.00     0.221 C 
HETATM   30  N   UNL     1      27.196  43.453  53.202  1.00  0.00    -0.181 NA
HETATM   31  C   UNL     1      26.319  44.143  52.468  1.00  0.00     0.160 A 
BRANCH  29  32
HETATM   32  C   UNL     1      29.836  43.049  54.318  1.00  0.00     0.409 C 
HETATM   33  F   UNL     1      30.953  42.928  55.069  1.00  0.00    -0.169 F 
HETATM   34  F   UNL     1      29.231  41.828  54.334  1.00  0.00    -0.169 F 
HETATM   35  F   UNL     1      30.200  43.263  53.037  1.00  0.00    -0.169 F 
ENDBRANCH  29  32
ENDBRANCH   1  21
TORSDOF 8
ENDMDL
MODEL 3
REMARK VINA RESULT:      -8.2      3.966      8.782
REMARK  8 active torsions:
REMARK  status: ('A' for Active; 'I' for Inactive)
REMARK    1  A    between atoms: C_8  and  C_9 
REMARK       I    between atoms: C_9  and  N_10 
REMARK    2  A    between atoms: N_10  and  N_11 
REMARK    3  A    between atoms: N_11  and  C_12 
REMARK    4  A    between atoms: C_12  and  N_13 
REMARK    5  A    between atoms: N_13  and  C_14 
REMARK    6  A    between atoms: C_15  and  O_16 
REMARK    7  A    between atoms: C_19  and  O_20 
REMARK    8  A    between atoms: C_26  and  C_27 
ROOT
HETATM    1  C   UNL     1      24.009  44.759  51.004  1.00  0.00     0.275 C 
HETATM    2  N   UNL     1      23.383  45.572  50.082  1.00  0.00    -0.263 N 
HETATM    3  O   UNL     1      23.734  43.569  51.144  1.00  0.00    -0.266 OA
HETATM    4  H   UNL     1      23.495  46.581  50.137  1.00  0.00     0.190 HD
ENDROOT
BRANCH   2   5
HETATM    5  N   UNL     1      22.322  45.063  49.306  1.00  0.00    -0.273 N 
HETATM    6  H   UNL     1      22.333  44.042  49.241  1.00  0.00     0.189 HD
BRANCH   5   7
HETATM    7  C   UNL     1      22.001  45.715  48.151  1.00  0.00     0.191 C 
HETATM    8  S   UNL     1      21.217  44.896  46.927  1.00  0.00    -0.039 SA
BRANCH   7   9
HETATM    9  N   UNL     1      22.390  47.004  47.957  1.00  0.00    -0.330 N 
HETATM   10  H   UNL     1      23.168  47.119  47.313  1.00  0.00     0.168 HD
BRANCH   9  11
HETATM   11  C   UNL     1      21.756  48.228  48.282  1.00  0.00     0.068 A 
HETATM   12  C   UNL     1      22.484  49.144  49.072  1.00  0.00     0.097 A 
HETATM   13  C   UNL     1      21.921  50.384  49.405  1.00  0.00     0.075 A 
HETATM   14  C   UNL     1      20.648  50.725  48.946  1.00  0.00     0.070 A 
HETATM   15  C   UNL     1      19.941  49.822  48.150  1.00  0.00     0.039 A 
HETATM   16  C   UNL     1      20.493  48.586  47.808  1.00  0.00     0.035 A 
BRANCH  12  17
HETATM   17  O   UNL     1      23.728  48.713  49.471  1.00  0.00    -0.354 OA
HETATM   18  C   UNL     1      24.860  49.335  48.875  1.00  0.00     0.210 C 
ENDBRANCH  12  17
BRANCH  14  19
HETATM   19  O   UNL     1      19.987  51.895  49.195  1.00  0.00    -0.356 OA
HETATM   20  C   UNL     1      18.973  52.280  48.274  1.00  0.00     0.210 C 
ENDBRANCH  14  19
ENDBRANCH   9  11
ENDBRANCH   7   9
ENDBRANCH   5   7
ENDBRANCH   2   5
BRANCH   1  21
HETATM   21  C   UNL     1      24.995  45.439  51.816  1.00  0.00     0.098 A 
HETATM   22  C   UNL     1      25.815  44.929  52.806  1.00  0.00     0.138 A 
HETATM   23  N   UNL     1      25.949  43.697  53.361  1.00  0.00    -0.370 N 
HETATM   24  N   UNL     1      26.569  45.990  53.252  1.00  0.00    -0.240 N 
HETATM   25  C   UNL     1      27.023  43.405  54.304  1.00  0.00     0.081 C 
HETATM   26  H   UNL     1      25.202  43.002  53.318  1.00  0.00     0.161 HD
HETATM   27  C   UNL     1      28.243  42.889  53.544  1.00  0.00     0.032 C 
HETATM   28  C   UNL     1      27.322  44.641  55.156  1.00  0.00     0.061 C 
HETATM   29  C   UNL     1      27.570  45.898  54.301  1.00  0.00     0.221 C 
HETATM   30  N   UNL     1      26.341  47.130  52.583  1.00  0.00    -0.181 NA
HETATM   31  C   UNL     1      25.352  46.805  51.746  1.00  0.00     0.160 A 
BRANCH  29  32
HETATM   32  C   UNL     1      27.583  47.120  55.196  1.00  0.00     0.409 C 
HETATM   33  F   UNL     1      26.341  47.547  55.515  1.00  0.00    -0.169 F 
HETATM   34  F   UNL     1      28.194  46.806  56.374  1.00  0.00    -0.169 F 
HETATM   35  F   UNL     1      28.277  48.159  54.687  1.00  0.00    -0.169 F 
ENDBRANCH  29  32
ENDBRANCH   1  21
TORSDOF 8
ENDMDL
MODEL 4
REMARK VINA RESULT:      -8.1      2.220      2.846
REMARK  8 active torsions:
REMARK  status: ('A' for Active; 'I' for Inactive)
REMARK    1  A    between atoms: C_8  and  C_9 
REMARK       I    between atoms: C_9  and  N_10 
REMARK    2  A    between atoms: N_10  and  N_11 
REMARK    3  A    between atoms: N_11  and  C_12 
REMARK    4  A    between atoms: C_12  and  N_13 
REMARK    5  A    between atoms: N_13  and  C_14 
REMARK    6  A    between atoms: C_15  and  O_16 
REMARK    7  A    between atoms: C_19  and  O_20 
REMARK    8  A    between atoms: C_26  and  C_27 
ROOT
HETATM    1  C   UNL     1      24.921  46.639  50.555  1.00  0.00     0.275 C 
HETATM    2  N   UNL     1      25.710  45.524  50.370  1.00  0.00    -0.263 N 
HETATM    3  O   UNL     1      25.093  47.439  51.472  1.00  0.00    -0.266 OA
HETATM    4  H   UNL     1      25.413  44.791  49.730  1.00  0.00     0.190 HD
ENDROOT
BRANCH   2   5
HETATM    5  N   UNL     1      26.720  45.218  51.305  1.00  0.00    -0.273 N 
HETATM    6  H   UNL     1      27.653  45.487  50.982  1.00  0.00     0.189 HD
BRANCH   5   7
HETATM    7  C   UNL     1      26.652  44.021  51.956  1.00  0.00     0.191 C 
HETATM    8  S   UNL     1      26.214  42.646  51.117  1.00  0.00    -0.039 SA
BRANCH   7   9
HETATM    9  N   UNL     1      26.856  43.953  53.299  1.00  0.00    -0.330 N 
HETATM   10  H   UNL     1      26.069  43.586  53.828  1.00  0.00     0.168 HD
BRANCH   9  11
HETATM   11  C   UNL     1      28.040  44.059  54.069  1.00  0.00     0.068 A 
HETATM   12  C   UNL     1      28.157  45.173  54.927  1.00  0.00     0.097 A 
HETATM   13  C   UNL     1      29.293  45.320  55.735  1.00  0.00     0.075 A 
HETATM   14  C   UNL     1      30.306  44.359  55.705  1.00  0.00     0.070 A 
HETATM   15  C   UNL     1      30.176  43.251  54.867  1.00  0.00     0.039 A 
HETATM   16  C   UNL     1      29.046  43.092  54.062  1.00  0.00     0.035 A 
BRANCH  12  17
HETATM   17  O   UNL     1      27.104  46.059  54.883  1.00  0.00    -0.354 OA
HETATM   18  C   UNL     1      27.399  47.409  54.545  1.00  0.00     0.210 C 
ENDBRANCH  12  17
BRANCH  14  19
HETATM   19  O   UNL     1      31.459  44.381  56.438  1.00  0.00    -0.356 OA
HETATM   20  C   UNL     1      31.797  43.200  57.156  1.00  0.00     0.210 C 
ENDBRANCH  14  19
ENDBRANCH   9  11
ENDBRANCH   7   9
ENDBRANCH   5   7
ENDBRANCH   2   5
BRANCH   1  21
HETATM   21  C   UNL     1      23.848  46.767  49.592  1.00  0.00     0.098 A 
HETATM   22  C   UNL     1      23.090  47.878  49.269  1.00  0.00     0.138 A 
HETATM   23  N   UNL     1      23.057  49.151  49.740  1.00  0.00    -0.370 N 
HETATM   24  N   UNL     1      22.218  47.465  48.288  1.00  0.00    -0.240 N 
HETATM   25  C   UNL     1      22.241  50.175  49.096  1.00  0.00     0.081 C 
HETATM   26  H   UNL     1      23.415  49.394  50.665  1.00  0.00     0.161 HD
HETATM   27  C   UNL     1      23.067  50.888  48.028  1.00  0.00     0.032 C 
HETATM   28  C   UNL     1      20.955  49.551  48.548  1.00  0.00     0.061 C 
HETATM   29  C   UNL     1      21.231  48.324  47.658  1.00  0.00     0.221 C 
HETATM   30  N   UNL     1      22.397  46.191  47.911  1.00  0.00    -0.181 NA
HETATM   31  C   UNL     1      23.353  45.755  48.737  1.00  0.00     0.160 A 
BRANCH  29  32
HETATM   32  C   UNL     1      19.928  47.603  47.381  1.00  0.00     0.409 C 
HETATM   33  F   UNL     1      19.529  46.831  48.417  1.00  0.00    -0.169 F 
HETATM   34  F   UNL     1      18.939  48.521  47.185  1.00  0.00    -0.169 F 
HETATM   35  F   UNL     1      19.953  46.845  46.265  1.00  0.00    -0.169 F 
ENDBRANCH  29  32
ENDBRANCH   1  21
TORSDOF 8
ENDMDL
MODEL 5
REMARK VINA RESULT:      -8.0      4.105      9.165
REMARK  8 active torsions:
REMARK  status: ('A' for Active; 'I' for Inactive)
REMARK    1  A    between atoms: C_8  and  C_9 
REMARK       I    between atoms: C_9  and  N_10 
REMARK    2  A    between atoms: N_10  and  N_11 
REMARK    3  A    between atoms: N_11  and  C_12 
REMARK    4  A    between atoms: C_12  and  N_13 
REMARK    5  A    between atoms: N_13  and  C_14 
REMARK    6  A    between atoms: C_15  and  O_16 
REMARK    7  A    between atoms: C_19  and  O_20 
REMARK    8  A    between atoms: C_26  and  C_27 
ROOT
HETATM    1  C   UNL     1      23.978  44.647  50.898  1.00  0.00     0.275 C 
HETATM    2  N   UNL     1      23.322  45.406  49.952  1.00  0.00    -0.263 N 
HETATM    3  O   UNL     1      23.768  43.446  51.059  1.00  0.00    -0.266 OA
HETATM    4  H   UNL     1      23.377  46.421  49.988  1.00  0.00     0.190 HD
ENDROOT
BRANCH   2   5
HETATM    5  N   UNL     1      22.302  44.823  49.172  1.00  0.00    -0.273 N 
HETATM    6  H   UNL     1      22.608  43.974  48.690  1.00  0.00     0.189 HD
BRANCH   5   7
HETATM    7  C   UNL     1      21.501  45.651  48.440  1.00  0.00     0.191 C 
HETATM    8  S   UNL     1      21.677  45.721  46.782  1.00  0.00    -0.039 SA
BRANCH   7   9
HETATM    9  N   UNL     1      20.620  46.482  49.059  1.00  0.00    -0.330 N 
HETATM   10  H   UNL     1      20.115  46.061  49.835  1.00  0.00     0.168 HD
BRANCH   9  11
HETATM   11  C   UNL     1      20.456  47.886  48.988  1.00  0.00     0.068 A 
HETATM   12  C   UNL     1      19.140  48.390  49.071  1.00  0.00     0.097 A 
HETATM   13  C   UNL     1      18.915  49.773  49.034  1.00  0.00     0.075 A 
HETATM   14  C   UNL     1      19.990  50.658  48.930  1.00  0.00     0.070 A 
HETATM   15  C   UNL     1      21.290  50.154  48.867  1.00  0.00     0.039 A 
HETATM   16  C   UNL     1      21.526  48.779  48.907  1.00  0.00     0.035 A 
BRANCH  12  17
HETATM   17  O   UNL     1      18.154  47.436  49.172  1.00  0.00    -0.354 OA
HETATM   18  C   UNL     1      17.011  47.584  48.338  1.00  0.00     0.210 C 
ENDBRANCH  12  17
BRANCH  14  19
HETATM   19  O   UNL     1      19.911  52.022  48.886  1.00  0.00    -0.356 OA
HETATM   20  C   UNL     1      18.741  52.588  48.307  1.00  0.00     0.210 C 
ENDBRANCH  14  19
ENDBRANCH   9  11
ENDBRANCH   7   9
ENDBRANCH   5   7
ENDBRANCH   2   5
BRANCH   1  21
HETATM   21  C   UNL     1      24.913  45.396  51.710  1.00  0.00     0.098 A 
HETATM   22  C   UNL     1      25.767  44.948  52.700  1.00  0.00     0.138 A 
HETATM   23  N   UNL     1      25.989  43.729  53.257  1.00  0.00    -0.370 N 
HETATM   24  N   UNL     1      26.443  46.061  53.145  1.00  0.00    -0.240 N 
HETATM   25  C   UNL     1      27.081  43.516  54.200  1.00  0.00     0.081 C 
HETATM   26  H   UNL     1      25.294  42.983  53.215  1.00  0.00     0.161 HD
HETATM   27  C   UNL     1      28.335  43.088  53.441  1.00  0.00     0.032 C 
HETATM   28  C   UNL     1      27.290  44.771  55.051  1.00  0.00     0.061 C 
HETATM   29  C   UNL     1      27.448  46.042  54.194  1.00  0.00     0.221 C 
HETATM   30  N   UNL     1      26.135  47.181  52.474  1.00  0.00    -0.181 NA
HETATM   31  C   UNL     1      25.171  46.785  51.638  1.00  0.00     0.160 A 
BRANCH  29  32
HETATM   32  C   UNL     1      27.374  47.262  55.088  1.00  0.00     0.409 C 
HETATM   33  F   UNL     1      26.108  47.702  55.266  1.00  0.00    -0.169 F 
HETATM   34  F   UNL     1      27.845  46.941  56.326  1.00  0.00    -0.169 F 
HETATM   35  F   UNL     1      28.132  48.294  54.663  1.00  0.00    -0.169 F 
ENDBRANCH  29  32
ENDBRANCH   1  21
TORSDOF 8
ENDMDL
MODEL 6
REMARK VINA RESULT:      -7.9      3.555      4.674
REMARK  8 active torsions:
REMARK  status: ('A' for Active; 'I' for Inactive)
REMARK    1  A    between atoms: C_8  and  C_9 
REMARK       I    between atoms: C_9  and  N_10 
REMARK    2  A    between atoms: N_10  and  N_11 
REMARK    3  A    between atoms: N_11  and  C_12 
REMARK    4  A    between atoms: C_12  and  N_13 
REMARK    5  A    between atoms: N_13  and  C_14 
REMARK    6  A    between atoms: C_15  and  O_16 
REMARK    7  A    between atoms: C_19  and  O_20 
REMARK    8  A    between atoms: C_26  and  C_27 
ROOT
HETATM    1  C   UNL     1      22.613  48.802  48.760  1.00  0.00     0.275 C 
HETATM    2  N   UNL     1      22.881  47.814  49.683  1.00  0.00    -0.263 N 
HETATM    3  O   UNL     1      23.301  48.989  47.758  1.00  0.00    -0.266 OA
HETATM    4  H   UNL     1      22.415  47.822  50.587  1.00  0.00     0.190 HD
ENDROOT
BRANCH   2   5
HETATM    5  N   UNL     1      24.035  47.015  49.539  1.00  0.00    -0.273 N 
HETATM    6  H   UNL     1      23.816  46.025  49.402  1.00  0.00     0.189 HD
BRANCH   5   7
HETATM    7  C   UNL     1      25.097  47.269  50.355  1.00  0.00     0.191 C 
HETATM    8  S   UNL     1      26.441  48.050  49.748  1.00  0.00    -0.039 SA
BRANCH   7   9
HETATM    9  N   UNL     1      25.106  46.814  51.638  1.00  0.00    -0.330 N 
HETATM   10  H   UNL     1      24.198  46.822  52.095  1.00  0.00     0.168 HD
BRANCH   9  11
HETATM   11  C   UNL     1      26.088  46.100  52.367  1.00  0.00     0.068 A 
HETATM   12  C   UNL     1      26.463  46.617  53.625  1.00  0.00     0.097 A 
HETATM   13  C   UNL     1      27.410  45.942  54.407  1.00  0.00     0.075 A 
HETATM   14  C   UNL     1      27.975  44.748  53.952  1.00  0.00     0.070 A 
HETATM   15  C   UNL     1      27.585  44.233  52.716  1.00  0.00     0.039 A 
HETATM   16  C   UNL     1      26.639  44.895  51.931  1.00  0.00     0.035 A 
BRANCH  12  17
HETATM   17  O   UNL     1      25.848  47.797  53.980  1.00  0.00    -0.354 OA
HETATM   18  C   UNL     1      26.238  48.393  55.212  1.00  0.00     0.210 C 
ENDBRANCH  12  17
BRANCH  14  19
HETATM   19  O   UNL     1      28.902  43.992  54.612  1.00  0.00    -0.356 OA
HETATM   20  C   UNL     1      29.741  44.660  55.547  1.00  0.00     0.210 C 
ENDBRANCH  14  19
ENDBRANCH   9  11
ENDBRANCH   7   9
ENDBRANCH   5   7
ENDBRANCH   2   5
BRANCH   1  21
HETATM   21  C   UNL     1      21.470  49.624  49.093  1.00  0.00     0.098 A 
HETATM   22  C   UNL     1      20.144  49.466  48.733  1.00  0.00     0.138 A 
HETATM   23  N   UNL     1      19.492  48.565  47.954  1.00  0.00    -0.370 N 
HETATM   24  N   UNL     1      19.468  50.511  49.320  1.00  0.00    -0.240 N 
HETATM   25  C   UNL     1      18.035  48.551  47.869  1.00  0.00     0.081 C 
HETATM   26  H   UNL     1      19.978  48.014  47.244  1.00  0.00     0.161 HD
HETATM   27  C   UNL     1      17.471  47.618  48.938  1.00  0.00     0.032 C 
HETATM   28  C   UNL     1      17.493  49.978  47.968  1.00  0.00     0.061 C 
HETATM   29  C   UNL     1      18.037  50.731  49.197  1.00  0.00     0.221 C 
HETATM   30  N   UNL     1      20.247  51.294  50.081  1.00  0.00    -0.181 NA
HETATM   31  C   UNL     1      21.468  50.784  49.902  1.00  0.00     0.160 A 
BRANCH  29  32
HETATM   32  C   UNL     1      17.685  52.200  49.083  1.00  0.00     0.409 C 
HETATM   33  F   UNL     1      18.591  52.898  48.361  1.00  0.00    -0.169 F 
HETATM   34  F   UNL     1      16.496  52.327  48.429  1.00  0.00    -0.169 F 
HETATM   35  F   UNL     1      17.519  52.813  50.273  1.00  0.00    -0.169 F 
ENDBRANCH  29  32
ENDBRANCH   1  21
TORSDOF 8
ENDMDL
MODEL 7
REMARK VINA RESULT:      -7.9     11.761     13.918
REMARK  8 active torsions:
REMARK  status: ('A' for Active; 'I' for Inactive)
REMARK    1  A    between atoms: C_8  and  C_9 
REMARK       I    between atoms: C_9  and  N_10 
REMARK    2  A    between atoms: N_10  and  N_11 
REMARK    3  A    between atoms: N_11  and  C_12 
REMARK    4  A    between atoms: C_12  and  N_13 
REMARK    5  A    between atoms: N_13  and  C_14 
REMARK    6  A    between atoms: C_15  and  O_16 
REMARK    7  A    between atoms: C_19  and  O_20 
REMARK    8  A    between atoms: C_26  and  C_27 
ROOT
HETATM    1  C   UNL     1      28.283  51.523  39.133  1.00  0.00     0.275 C 
HETATM    2  N   UNL     1      27.059  51.010  39.505  1.00  0.00    -0.263 N 
HETATM    3  O   UNL     1      28.598  51.728  37.963  1.00  0.00    -0.266 OA
HETATM    4  H   UNL     1      26.916  50.671  40.453  1.00  0.00     0.190 HD
ENDROOT
BRANCH   2   5
HETATM    5  N   UNL     1      26.134  50.619  38.515  1.00  0.00    -0.273 N 
HETATM    6  H   UNL     1      25.545  51.392  38.195  1.00  0.00     0.189 HD
BRANCH   5   7
HETATM    7  C   UNL     1      25.492  49.425  38.671  1.00  0.00     0.191 C 
HETATM    8  S   UNL     1      24.082  49.126  37.830  1.00  0.00    -0.039 SA
BRANCH   7   9
HETATM    9  N   UNL     1      25.945  48.511  39.571  1.00  0.00    -0.330 N 
HETATM   10  H   UNL     1      25.411  48.467  40.435  1.00  0.00     0.168 HD
BRANCH   9  11
HETATM   11  C   UNL     1      26.859  47.439  39.431  1.00  0.00     0.068 A 
HETATM   12  C   UNL     1      28.040  47.489  40.202  1.00  0.00     0.097 A 
HETATM   13  C   UNL     1      28.972  46.445  40.127  1.00  0.00     0.075 A 
HETATM   14  C   UNL     1      28.730  45.345  39.303  1.00  0.00     0.070 A 
HETATM   15  C   UNL     1      27.552  45.292  38.557  1.00  0.00     0.039 A 
HETATM   16  C   UNL     1      26.615  46.325  38.627  1.00  0.00     0.035 A 
BRANCH  12  17
HETATM   17  O   UNL     1      28.182  48.615  40.982  1.00  0.00    -0.354 OA
HETATM   18  C   UNL     1      29.052  48.529  42.103  1.00  0.00     0.210 C 
ENDBRANCH  12  17
BRANCH  14  19
HETATM   19  O   UNL     1      29.551  44.264  39.139  1.00  0.00    -0.356 OA
HETATM   20  C   UNL     1      29.552  43.633  37.864  1.00  0.00     0.210 C 
ENDBRANCH  14  19
ENDBRANCH   9  11
ENDBRANCH   7   9
ENDBRANCH   5   7
ENDBRANCH   2   5
BRANCH   1  21
HETATM   21  C   UNL     1      29.180  51.769  40.242  1.00  0.00     0.098 A 
HETATM   22  C   UNL     1      30.551  51.604  40.311  1.00  0.00     0.138 A 
HETATM   23  N   UNL     1      31.479  51.143  39.434  1.00  0.00    -0.370 N 
HETATM   24  N   UNL     1      30.912  51.989  41.582  1.00  0.00    -0.240 N 
HETATM   25  C   UNL     1      32.906  51.223  39.729  1.00  0.00     0.081 C 
HETATM   26  H   UNL     1      31.227  50.540  38.650  1.00  0.00     0.161 HD
HETATM   27  C   UNL     1      33.463  52.541  39.197  1.00  0.00     0.032 C 
HETATM   28  C   UNL     1      33.140  51.029  41.229  1.00  0.00     0.061 C 
HETATM   29  C   UNL     1      32.274  51.972  42.086  1.00  0.00     0.221 C 
HETATM   30  N   UNL     1      29.887  52.447  42.316  1.00  0.00    -0.181 NA
HETATM   31  C   UNL     1      28.830  52.267  41.518  1.00  0.00     0.160 A 
BRANCH  29  32
HETATM   32  C   UNL     1      32.350  51.543  43.537  1.00  0.00     0.409 C 
HETATM   33  F   UNL     1      31.661  52.365  44.360  1.00  0.00    -0.169 F 
HETATM   34  F   UNL     1      31.787  50.309  43.670  1.00  0.00    -0.169 F 
HETATM   35  F   UNL     1      33.610  51.425  44.003  1.00  0.00    -0.169 F 
ENDBRANCH  29  32
ENDBRANCH   1  21
TORSDOF 8
ENDMDL
MODEL 8
REMARK VINA RESULT:      -7.7      4.772      9.845
REMARK  8 active torsions:
REMARK  status: ('A' for Active; 'I' for Inactive)
REMARK    1  A    between atoms: C_8  and  C_9 
REMARK       I    between atoms: C_9  and  N_10 
REMARK    2  A    between atoms: N_10  and  N_11 
REMARK    3  A    between atoms: N_11  and  C_12 
REMARK    4  A    between atoms: C_12  and  N_13 
REMARK    5  A    between atoms: N_13  and  C_14 
REMARK    6  A    between atoms: C_15  and  O_16 
REMARK    7  A    between atoms: C_19  and  O_20 
REMARK    8  A    between atoms: C_26  and  C_27 
ROOT
HETATM    1  C   UNL     1      24.464  47.464  50.135  1.00  0.00     0.275 C 
HETATM    2  N   UNL     1      23.178  47.909  49.912  1.00  0.00    -0.263 N 
HETATM    3  O   UNL     1      25.414  48.222  50.315  1.00  0.00    -0.266 OA
HETATM    4  H   UNL     1      22.468  47.264  49.572  1.00  0.00     0.190 HD
ENDROOT
BRANCH   2   5
HETATM    5  N   UNL     1      22.925  49.292  49.801  1.00  0.00    -0.273 N 
HETATM    6  H   UNL     1      22.281  49.635  50.518  1.00  0.00     0.189 HD
BRANCH   5   7
HETATM    7  C   UNL     1      22.739  49.813  48.554  1.00  0.00     0.191 C 
HETATM    8  S   UNL     1      24.038  50.436  47.714  1.00  0.00    -0.039 SA
BRANCH   7   9
HETATM    9  N   UNL     1      21.489  49.906  48.025  1.00  0.00    -0.330 N 
HETATM   10  H   UNL     1      21.344  49.354  47.183  1.00  0.00     0.168 HD
BRANCH   9  11
HETATM   11  C   UNL     1      20.285  50.422  48.563  1.00  0.00     0.068 A 
HETATM   12  C   UNL     1      19.507  49.554  49.360  1.00  0.00     0.097 A 
HETATM   13  C   UNL     1      18.319  50.014  49.943  1.00  0.00     0.075 A 
HETATM   14  C   UNL     1      17.906  51.335  49.752  1.00  0.00     0.070 A 
HETATM   15  C   UNL     1      18.689  52.192  48.978  1.00  0.00     0.039 A 
HETATM   16  C   UNL     1      19.877  51.746  48.396  1.00  0.00     0.035 A 
BRANCH  12  17
HETATM   17  O   UNL     1      20.002  48.276  49.487  1.00  0.00    -0.354 OA
HETATM   18  C   UNL     1      19.289  47.231  48.837  1.00  0.00     0.210 C 
ENDBRANCH  12  17
BRANCH  14  19
HETATM   19  O   UNL     1      16.776  51.908  50.262  1.00  0.00    -0.356 OA
HETATM   20  C   UNL     1      16.495  53.249  49.879  1.00  0.00     0.210 C 
ENDBRANCH  14  19
ENDBRANCH   9  11
ENDBRANCH   7   9
ENDBRANCH   5   7
ENDBRANCH   2   5
BRANCH   1  21
HETATM   21  C   UNL     1      24.602  46.024  50.105  1.00  0.00     0.098 A 
HETATM   22  C   UNL     1      25.345  45.199  50.930  1.00  0.00     0.138 A 
HETATM   23  N   UNL     1      26.188  45.435  51.967  1.00  0.00    -0.370 N 
HETATM   24  N   UNL     1      25.119  43.918  50.481  1.00  0.00    -0.240 N 
HETATM   25  C   UNL     1      26.729  44.341  52.767  1.00  0.00     0.081 C 
HETATM   26  H   UNL     1      26.644  46.339  52.097  1.00  0.00     0.161 HD
HETATM   27  C   UNL     1      25.801  44.065  53.948  1.00  0.00     0.032 C 
HETATM   28  C   UNL     1      26.962  43.113  51.884  1.00  0.00     0.061 C 
HETATM   29  C   UNL     1      25.712  42.729  51.069  1.00  0.00     0.221 C 
HETATM   30  N   UNL     1      24.239  43.849  49.471  1.00  0.00    -0.181 NA
HETATM   31  C   UNL     1      23.964  45.131  49.213  1.00  0.00     0.160 A 
BRANCH  29  32
HETATM   32  C   UNL     1      26.090  41.695  50.028  1.00  0.00     0.409 C 
HETATM   33  F   UNL     1      25.023  40.999  49.575  1.00  0.00    -0.169 F 
HETATM   34  F   UNL     1      26.624  42.325  48.944  1.00  0.00    -0.169 F 
HETATM   35  F   UNL     1      27.028  40.821  50.446  1.00  0.00    -0.169 F 
ENDBRANCH  29  32
ENDBRANCH   1  21
TORSDOF 8
ENDMDL
MODEL 9
REMARK VINA RESULT:      -7.7     13.788     14.607
REMARK  8 active torsions:
REMARK  status: ('A' for Active; 'I' for Inactive)
REMARK    1  A    between atoms: C_8  and  C_9 
REMARK       I    between atoms: C_9  and  N_10 
REMARK    2  A    between atoms: N_10  and  N_11 
REMARK    3  A    between atoms: N_11  and  C_12 
REMARK    4  A    between atoms: C_12  and  N_13 
REMARK    5  A    between atoms: N_13  and  C_14 
REMARK    6  A    between atoms: C_15  and  O_16 
REMARK    7  A    between atoms: C_19  and  O_20 
REMARK    8  A    between atoms: C_26  and  C_27 
ROOT
HETATM    1  C   UNL     1      34.048  51.122  42.576  1.00  0.00     0.275 C 
HETATM    2  N   UNL     1      34.506  51.924  43.601  1.00  0.00    -0.263 N 
HETATM    3  O   UNL     1      34.738  50.258  42.041  1.00  0.00    -0.266 OA
HETATM    4  H   UNL     1      33.979  52.750  43.874  1.00  0.00     0.190 HD
ENDROOT
BRANCH   2   5
HETATM    5  N   UNL     1      35.848  51.823  44.022  1.00  0.00    -0.273 N 
HETATM    6  H   UNL     1      35.943  51.383  44.940  1.00  0.00     0.189 HD
BRANCH   5   7
HETATM    7  C   UNL     1      36.673  52.887  43.798  1.00  0.00     0.191 C 
HETATM    8  S   UNL     1      37.486  53.015  42.347  1.00  0.00    -0.039 SA
BRANCH   7   9
HETATM    9  N   UNL     1      36.903  53.799  44.781  1.00  0.00    -0.330 N 
HETATM   10  H   UNL     1      36.074  54.288  45.107  1.00  0.00     0.168 HD
BRANCH   9  11
HETATM   11  C   UNL     1      38.033  54.013  45.607  1.00  0.00     0.068 A 
HETATM   12  C   UNL     1      38.625  55.294  45.575  1.00  0.00     0.097 A 
HETATM   13  C   UNL     1      39.730  55.577  46.390  1.00  0.00     0.075 A 
HETATM   14  C   UNL     1      40.240  54.599  47.247  1.00  0.00     0.070 A 
HETATM   15  C   UNL     1      39.639  53.341  47.287  1.00  0.00     0.039 A 
HETATM   16  C   UNL     1      38.535  53.050  46.483  1.00  0.00     0.035 A 
BRANCH  12  17
HETATM   17  O   UNL     1      38.047  56.184  44.699  1.00  0.00    -0.354 OA
HETATM   18  C   UNL     1      38.524  57.524  44.718  1.00  0.00     0.210 C 
ENDBRANCH  12  17
BRANCH  14  19
HETATM   19  O   UNL     1      41.306  54.743  48.091  1.00  0.00    -0.356 OA
HETATM   20  C   UNL     1      42.328  55.652  47.700  1.00  0.00     0.210 C 
ENDBRANCH  14  19
ENDBRANCH   9  11
ENDBRANCH   7   9
ENDBRANCH   5   7
ENDBRANCH   2   5
BRANCH   1  21
HETATM   21  C   UNL     1      32.691  51.413  42.163  1.00  0.00     0.098 A 
HETATM   22  C   UNL     1      32.050  51.094  40.980  1.00  0.00     0.138 A 
HETATM   23  N   UNL     1      32.451  50.473  39.842  1.00  0.00    -0.370 N 
HETATM   24  N   UNL     1      30.772  51.590  41.101  1.00  0.00    -0.240 N 
HETATM   25  C   UNL     1      31.499  50.132  38.790  1.00  0.00     0.081 C 
HETATM   26  H   UNL     1      33.436  50.413  39.578  1.00  0.00     0.161 HD
HETATM   27  C   UNL     1      30.952  48.727  39.033  1.00  0.00     0.032 C 
HETATM   28  C   UNL     1      30.406  51.200  38.708  1.00  0.00     0.061 C 
HETATM   29  C   UNL     1      29.750  51.475  40.075  1.00  0.00     0.221 C 
HETATM   30  N   UNL     1      30.523  52.148  42.295  1.00  0.00    -0.181 NA
HETATM   31  C   UNL     1      31.702  52.083  42.920  1.00  0.00     0.160 A 
BRANCH  29  32
HETATM   32  C   UNL     1      28.887  52.716  39.976  1.00  0.00     0.409 C 
HETATM   33  F   UNL     1      29.600  53.858  40.095  1.00  0.00    -0.169 F 
HETATM   34  F   UNL     1      28.300  52.758  38.747  1.00  0.00    -0.169 F 
HETATM   35  F   UNL     1      27.875  52.746  40.868  1.00  0.00    -0.169 F 
ENDBRANCH  29  32
ENDBRANCH   1  21
TORSDOF 8
ENDMDL
MODEL 10
REMARK VINA RESULT:      -7.6      4.192      6.835
REMARK  8 active torsions:
REMARK  status: ('A' for Active; 'I' for Inactive)
REMARK    1  A    between atoms: C_8  and  C_9 
REMARK       I    between atoms: C_9  and  N_10 
REMARK    2  A    between atoms: N_10  and  N_11 
REMARK    3  A    between atoms: N_11  and  C_12 
REMARK    4  A    between atoms: C_12  and  N_13 
REMARK    5  A    between atoms: N_13  and  C_14 
REMARK    6  A    between atoms: C_15  and  O_16 
REMARK    7  A    between atoms: C_19  and  O_20 
REMARK    8  A    between atoms: C_26  and  C_27 
ROOT
HETATM    1  C   UNL     1      24.297  44.432  50.436  1.00  0.00     0.275 C 
HETATM    2  N   UNL     1      24.854  44.243  49.188  1.00  0.00    -0.263 N 
HETATM    3  O   UNL     1      23.165  44.054  50.729  1.00  0.00    -0.266 OA
HETATM    4  H   UNL     1      25.702  44.742  48.929  1.00  0.00     0.190 HD
ENDROOT
BRANCH   2   5
HETATM    5  N   UNL     1      24.085  43.662  48.159  1.00  0.00    -0.273 N 
HETATM    6  H   UNL     1      23.091  43.892  48.230  1.00  0.00     0.189 HD
BRANCH   5   7
HETATM    7  C   UNL     1      24.361  42.375  47.799  1.00  0.00     0.191 C 
HETATM    8  S   UNL     1      23.122  41.263  47.686  1.00  0.00    -0.039 SA
BRANCH   7   9
HETATM    9  N   UNL     1      25.646  41.971  47.615  1.00  0.00    -0.330 N 
HETATM   10  H   UNL     1      26.134  42.443  46.858  1.00  0.00     0.168 HD
BRANCH   9  11
HETATM   11  C   UNL     1      26.509  41.203  48.435  1.00  0.00     0.068 A 
HETATM   12  C   UNL     1      27.788  40.898  47.923  1.00  0.00     0.097 A 
HETATM   13  C   UNL     1      28.697  40.164  48.698  1.00  0.00     0.075 A 
HETATM   14  C   UNL     1      28.347  39.746  49.983  1.00  0.00     0.070 A 
HETATM   15  C   UNL     1      27.088  40.068  50.491  1.00  0.00     0.039 A 
HETATM   16  C   UNL     1      26.177  40.802  49.730  1.00  0.00     0.035 A 
BRANCH  12  17
HETATM   17  O   UNL     1      28.032  41.357  46.648  1.00  0.00    -0.354 OA
HETATM   18  C   UNL     1      28.083  40.392  45.604  1.00  0.00     0.210 C 
ENDBRANCH  12  17
BRANCH  14  19
HETATM   19  O   UNL     1      29.136  39.030  50.840  1.00  0.00    -0.356 OA
HETATM   20  C   UNL     1      29.928  37.990  50.281  1.00  0.00     0.210 C 
ENDBRANCH  14  19
ENDBRANCH   9  11
ENDBRANCH   7   9
ENDBRANCH   5   7
ENDBRANCH   2   5
BRANCH   1  21
HETATM   21  C   UNL     1      25.152  45.146  51.360  1.00  0.00     0.098 A 
HETATM   22  C   UNL     1      26.028  44.646  52.305  1.00  0.00     0.138 A 
HETATM   23  N   UNL     1      26.347  43.389  52.707  1.00  0.00    -0.370 N 
HETATM   24  N   UNL     1      26.599  45.745  52.906  1.00  0.00    -0.240 N 
HETATM   25  C   UNL     1      27.441  43.148  53.641  1.00  0.00     0.081 C 
HETATM   26  H   UNL     1      25.721  42.598  52.551  1.00  0.00     0.161 HD
HETATM   27  C   UNL     1      28.738  42.929  52.865  1.00  0.00     0.032 C 
HETATM   28  C   UNL     1      27.529  44.295  54.651  1.00  0.00     0.061 C 
HETATM   29  C   UNL     1      27.587  45.675  53.968  1.00  0.00     0.221 C 
HETATM   30  N   UNL     1      26.203  46.913  52.377  1.00  0.00    -0.181 NA
HETATM   31  C   UNL     1      25.289  46.549  51.473  1.00  0.00     0.160 A 
BRANCH  29  32
HETATM   32  C   UNL     1      27.395  46.758  55.010  1.00  0.00     0.409 C 
HETATM   33  F   UNL     1      27.889  46.412  56.220  1.00  0.00    -0.169 F 
HETATM   34  F   UNL     1      28.074  47.875  54.625  1.00  0.00    -0.169 F 
HETATM   35  F   UNL     1      26.111  47.143  55.163  1.00  0.00    -0.169 F 
ENDBRANCH  29  32
ENDBRANCH   1  21
TORSDOF 8
ENDMDL
