MODEL 1
REMARK VINA RESULT:      -9.3      0.000      0.000
REMARK  3 active torsions:
REMARK  status: ('A' for Active; 'I' for Inactive)
REMARK    1  A    between atoms: C_12  and  C_13 
REMARK       I    between atoms: C_13  and  N_14 
REMARK    2  A    between atoms: N_14  and  C_15 
REMARK    3  A    between atoms: C_15  and  C_16 
ROOT
HETATM    1  C   UNL     1      30.833  45.277  57.930  1.00  0.00     0.001 A 
HETATM    2  C   UNL     1      29.754  45.844  57.246  1.00  0.00     0.016 A 
HETATM    3  C   UNL     1      29.316  45.273  56.048  1.00  0.00     0.026 A 
HETATM    4  C   UNL     1      29.962  44.131  55.534  1.00  0.00     0.081 A 
HETATM    5  O   UNL     1      29.612  43.490  54.365  1.00  0.00    -0.346 OA
HETATM    6  C   UNL     1      28.497  43.986  53.570  1.00  0.00     0.219 A 
HETATM    7  C   UNL     1      27.816  45.184  54.106  1.00  0.00     0.031 A 
HETATM    8  C   UNL     1      28.214  45.779  55.272  1.00  0.00     0.074 A 
HETATM    9  N   UNL     1      27.385  46.835  55.466  1.00  0.00    -0.276 N 
HETATM   10  H   UNL     1      27.384  47.506  56.227  1.00  0.00     0.189 HD
HETATM   11  N   UNL     1      26.456  46.969  54.491  1.00  0.00    -0.168 NA
HETATM   12  C   UNL     1      26.718  45.946  53.643  1.00  0.00     0.155 A 
HETATM   13  C   UNL     1      31.039  43.575  56.224  1.00  0.00     0.038 A 
HETATM   14  C   UNL     1      31.473  44.147  57.421  1.00  0.00     0.003 A 
ENDROOT
BRANCH  12  15
HETATM   15  C   UNL     1      25.927  45.713  52.425  1.00  0.00     0.272 C 
HETATM   16  N   UNL     1      26.518  46.209  51.290  1.00  0.00    -0.351 N 
HETATM   17  H   UNL     1      27.426  46.648  51.417  1.00  0.00     0.163 HD
HETATM   18  O   UNL     1      24.847  45.132  52.440  1.00  0.00    -0.266 OA
BRANCH  16  19
HETATM   19  C   UNL     1      25.932  46.105  49.980  1.00  0.00     0.161 C 
BRANCH  19  20
HETATM   20  C   UNL     1      25.238  47.383  49.583  1.00  0.00    -0.040 A 
HETATM   21  C   UNL     1      25.984  48.483  49.131  1.00  0.00     0.010 A 
HETATM   22  C   UNL     1      25.345  49.665  48.747  1.00  0.00     0.024 A 
HETATM   23  C   UNL     1      23.956  49.750  48.806  1.00  0.00     0.034 A 
HETATM   24 CL   UNL     1      23.167  51.202  48.327  1.00  0.00    -0.084 Cl
HETATM   25  C   UNL     1      23.201  48.666  49.248  1.00  0.00     0.024 A 
HETATM   26  C   UNL     1      23.841  47.485  49.636  1.00  0.00     0.010 A 
ENDBRANCH  19  20
ENDBRANCH  16  19
ENDBRANCH  12  15
TORSDOF 3
ENDMDL
MODEL 2
REMARK VINA RESULT:      -9.2      3.315      8.463
REMARK  3 active torsions:
REMARK  status: ('A' for Active; 'I' for Inactive)
REMARK    1  A    between atoms: C_12  and  C_13 
REMARK       I    between atoms: C_13  and  N_14 
REMARK    2  A    between atoms: N_14  and  C_15 
REMARK    3  A    between atoms: C_15  and  C_16 
ROOT
HETATM    1  C   UNL     1      22.420  49.818  48.652  1.00  0.00     0.001 A 
HETATM    2  C   UNL     1      22.703  48.556  49.182  1.00  0.00     0.016 A 
HETATM    3  C   UNL     1      24.030  48.143  49.315  1.00  0.00     0.026 A 
HETATM    4  C   UNL     1      25.078  48.996  48.915  1.00  0.00     0.081 A 
HETATM    5  O   UNL     1      26.419  48.689  49.002  1.00  0.00    -0.346 OA
HETATM    6  C   UNL     1      26.835  47.403  49.546  1.00  0.00     0.219 A 
HETATM    7  C   UNL     1      25.739  46.505  49.968  1.00  0.00     0.031 A 
HETATM    8  C   UNL     1      24.425  46.866  49.852  1.00  0.00     0.074 A 
HETATM    9  N   UNL     1      23.697  45.823  50.325  1.00  0.00    -0.276 N 
HETATM   10  H   UNL     1      22.689  45.736  50.390  1.00  0.00     0.189 HD
HETATM   11  N   UNL     1      24.461  44.792  50.752  1.00  0.00    -0.168 NA
HETATM   12  C   UNL     1      25.731  45.209  50.534  1.00  0.00     0.155 A 
HETATM   13  C   UNL     1      24.784  50.253  48.386  1.00  0.00     0.038 A 
HETATM   14  C   UNL     1      23.456  50.663  48.255  1.00  0.00     0.003 A 
ENDROOT
BRANCH  12  15
HETATM   15  C   UNL     1      26.898  44.378  50.866  1.00  0.00     0.272 C 
HETATM   16  N   UNL     1      27.070  44.197  52.216  1.00  0.00    -0.351 N 
HETATM   17  H   UNL     1      26.373  44.629  52.815  1.00  0.00     0.163 HD
HETATM   18  O   UNL     1      27.635  43.901  50.009  1.00  0.00    -0.266 OA
BRANCH  16  19
HETATM   19  C   UNL     1      28.144  43.425  52.782  1.00  0.00     0.161 C 
BRANCH  19  20
HETATM   20  C   UNL     1      28.732  44.104  53.994  1.00  0.00    -0.040 A 
HETATM   21  C   UNL     1      28.126  45.252  54.526  1.00  0.00     0.010 A 
HETATM   22  C   UNL     1      28.656  45.876  55.659  1.00  0.00     0.024 A 
HETATM   23  C   UNL     1      29.792  45.350  56.268  1.00  0.00     0.034 A 
HETATM   24 CL   UNL     1      30.443  46.113  57.666  1.00  0.00    -0.084 Cl
HETATM   25  C   UNL     1      30.403  44.208  55.755  1.00  0.00     0.024 A 
HETATM   26  C   UNL     1      29.875  43.586  54.620  1.00  0.00     0.010 A 
ENDBRANCH  19  20
ENDBRANCH  16  19
ENDBRANCH  12  15
TORSDOF 3
ENDMDL
MODEL 3
REMARK VINA RESULT:      -9.1      1.705      2.373
REMARK  3 active torsions:
REMARK  status: ('A' for Active; 'I' for Inactive)
REMARK    1  A    between atoms: C_12  and  C_13 
REMARK       I    between atoms: C_13  and  N_14 
REMARK    2  A    between atoms: N_14  and  C_15 
REMARK    3  A    between atoms: C_15  and  C_16 
ROOT
HETATM    1  C   UNL     1      31.877  43.473  57.087  1.00  0.00     0.001 A 
HETATM    2  C   UNL     1      30.993  43.373  56.010  1.00  0.00     0.016 A 
HETATM    3  C   UNL     1      29.964  44.307  55.870  1.00  0.00     0.026 A 
HETATM    4  C   UNL     1      29.821  45.346  56.812  1.00  0.00     0.081 A 
HETATM    5  O   UNL     1      28.845  46.318  56.769  1.00  0.00    -0.346 OA
HETATM    6  C   UNL     1      27.869  46.320  55.686  1.00  0.00     0.219 A 
HETATM    7  C   UNL     1      28.016  45.233  54.695  1.00  0.00     0.031 A 
HETATM    8  C   UNL     1      29.005  44.293  54.796  1.00  0.00     0.074 A 
HETATM    9  N   UNL     1      28.850  43.458  53.737  1.00  0.00    -0.276 N 
HETATM   10  H   UNL     1      29.401  42.644  53.490  1.00  0.00     0.189 HD
HETATM   11  N   UNL     1      27.812  43.798  52.939  1.00  0.00    -0.168 NA
HETATM   12  C   UNL     1      27.290  44.900  53.528  1.00  0.00     0.155 A 
HETATM   13  C   UNL     1      30.709  45.435  57.884  1.00  0.00     0.038 A 
HETATM   14  C   UNL     1      31.736  44.500  58.020  1.00  0.00     0.003 A 
ENDROOT
BRANCH  12  15
HETATM   15  C   UNL     1      26.126  45.610  52.975  1.00  0.00     0.272 C 
HETATM   16  N   UNL     1      25.777  45.184  51.717  1.00  0.00    -0.351 N 
HETATM   17  H   UNL     1      26.337  44.428  51.332  1.00  0.00     0.163 HD
HETATM   18  O   UNL     1      25.537  46.492  53.590  1.00  0.00    -0.266 OA
BRANCH  16  19
HETATM   19  C   UNL     1      24.675  45.731  50.972  1.00  0.00     0.161 C 
BRANCH  19  20
HETATM   20  C   UNL     1      25.092  46.948  50.184  1.00  0.00    -0.040 A 
HETATM   21  C   UNL     1      24.125  47.833  49.683  1.00  0.00     0.010 A 
HETATM   22  C   UNL     1      24.506  48.971  48.966  1.00  0.00     0.024 A 
HETATM   23  C   UNL     1      25.857  49.231  48.753  1.00  0.00     0.034 A 
HETATM   24 CL   UNL     1      26.329  50.635  47.877  1.00  0.00    -0.084 Cl
HETATM   25  C   UNL     1      26.829  48.366  49.247  1.00  0.00     0.024 A 
HETATM   26  C   UNL     1      26.448  47.225  49.961  1.00  0.00     0.010 A 
ENDBRANCH  19  20
ENDBRANCH  16  19
ENDBRANCH  12  15
TORSDOF 3
ENDMDL
MODEL 4
REMARK VINA RESULT:      -9.0      1.505      2.110
REMARK  3 active torsions:
REMARK  status: ('A' for Active; 'I' for Inactive)
REMARK    1  A    between atoms: C_12  and  C_13 
REMARK       I    between atoms: C_13  and  N_14 
REMARK    2  A    between atoms: N_14  and  C_15 
REMARK    3  A    between atoms: C_15  and  C_16 
ROOT
HETATM    1  C   UNL     1      30.016  45.630  56.351  1.00  0.00     0.001 A 
HETATM    2  C   UNL     1      28.934  46.211  55.683  1.00  0.00     0.016 A 
HETATM    3  C   UNL     1      28.314  45.522  54.639  1.00  0.00     0.026 A 
HETATM    4  C   UNL     1      28.779  44.246  54.262  1.00  0.00     0.081 A 
HETATM    5  O   UNL     1      28.241  43.481  53.249  1.00  0.00    -0.346 OA
HETATM    6  C   UNL     1      27.104  43.980  52.487  1.00  0.00     0.219 A 
HETATM    7  C   UNL     1      26.612  45.318  52.880  1.00  0.00     0.031 A 
HETATM    8  C   UNL     1      27.193  46.031  53.892  1.00  0.00     0.074 A 
HETATM    9  N   UNL     1      26.504  47.196  53.985  1.00  0.00    -0.276 N 
HETATM   10  H   UNL     1      26.654  47.970  54.624  1.00  0.00     0.189 HD
HETATM   11  N   UNL     1      25.494  47.291  53.089  1.00  0.00    -0.168 NA
HETATM   12  C   UNL     1      25.556  46.126  52.399  1.00  0.00     0.155 A 
HETATM   13  C   UNL     1      29.860  43.676  54.935  1.00  0.00     0.038 A 
HETATM   14  C   UNL     1      30.477  44.368  55.978  1.00  0.00     0.003 A 
ENDROOT
BRANCH  12  15
HETATM   15  C   UNL     1      24.619  45.808  51.311  1.00  0.00     0.272 C 
HETATM   16  N   UNL     1      24.485  46.821  50.395  1.00  0.00    -0.351 N 
HETATM   17  H   UNL     1      25.055  47.646  50.558  1.00  0.00     0.163 HD
HETATM   18  O   UNL     1      24.024  44.737  51.245  1.00  0.00    -0.266 OA
BRANCH  16  19
HETATM   19  C   UNL     1      23.623  46.742  49.245  1.00  0.00     0.161 C 
BRANCH  19  20
HETATM   20  C   UNL     1      22.815  48.004  49.075  1.00  0.00    -0.040 A 
HETATM   21  C   UNL     1      23.434  49.260  49.171  1.00  0.00     0.010 A 
HETATM   22  C   UNL     1      22.693  50.432  48.998  1.00  0.00     0.024 A 
HETATM   23  C   UNL     1      21.331  50.354  48.721  1.00  0.00     0.034 A 
HETATM   24 CL   UNL     1      20.419  51.796  48.501  1.00  0.00    -0.084 Cl
HETATM   25  C   UNL     1      20.702  49.115  48.619  1.00  0.00     0.024 A 
HETATM   26  C   UNL     1      21.443  47.942  48.796  1.00  0.00     0.010 A 
ENDBRANCH  19  20
ENDBRANCH  16  19
ENDBRANCH  12  15
TORSDOF 3
ENDMDL
MODEL 5
REMARK VINA RESULT:      -8.9      3.543      8.810
REMARK  3 active torsions:
REMARK  status: ('A' for Active; 'I' for Inactive)
REMARK    1  A    between atoms: C_12  and  C_13 
REMARK       I    between atoms: C_13  and  N_14 
REMARK    2  A    between atoms: N_14  and  C_15 
REMARK    3  A    between atoms: C_15  and  C_16 
ROOT
HETATM    1  C   UNL     1      23.045  51.026  48.032  1.00  0.00     0.001 A 
HETATM    2  C   UNL     1      24.190  50.324  48.416  1.00  0.00     0.016 A 
HETATM    3  C   UNL     1      24.089  48.979  48.778  1.00  0.00     0.026 A 
HETATM    4  C   UNL     1      22.836  48.334  48.755  1.00  0.00     0.081 A 
HETATM    5  O   UNL     1      22.624  47.014  49.090  1.00  0.00    -0.346 OA
HETATM    6  C   UNL     1      23.746  46.180  49.500  1.00  0.00     0.219 A 
HETATM    7  C   UNL     1      25.063  46.851  49.525  1.00  0.00     0.031 A 
HETATM    8  C   UNL     1      25.208  48.168  49.184  1.00  0.00     0.074 A 
HETATM    9  N   UNL     1      26.527  48.456  49.316  1.00  0.00    -0.276 N 
HETATM   10  H   UNL     1      27.001  49.337  49.151  1.00  0.00     0.189 HD
HETATM   11  N   UNL     1      27.265  47.397  49.722  1.00  0.00    -0.168 NA
HETATM   12  C   UNL     1      26.361  46.396  49.854  1.00  0.00     0.155 A 
HETATM   13  C   UNL     1      21.699  49.046  48.371  1.00  0.00     0.038 A 
HETATM   14  C   UNL     1      21.803  50.390  48.010  1.00  0.00     0.003 A 
ENDROOT
BRANCH  12  15
HETATM   15  C   UNL     1      26.744  45.043  50.281  1.00  0.00     0.272 C 
HETATM   16  N   UNL     1      26.500  44.803  51.611  1.00  0.00    -0.351 N 
HETATM   17  H   UNL     1      26.069  45.563  52.128  1.00  0.00     0.163 HD
HETATM   18  O   UNL     1      27.234  44.221  49.513  1.00  0.00    -0.266 OA
BRANCH  16  19
HETATM   19  C   UNL     1      26.795  43.552  52.258  1.00  0.00     0.161 C 
BRANCH  19  20
HETATM   20  C   UNL     1      27.896  43.705  53.277  1.00  0.00    -0.040 A 
HETATM   21  C   UNL     1      28.944  42.773  53.333  1.00  0.00     0.010 A 
HETATM   22  C   UNL     1      29.976  42.919  54.264  1.00  0.00     0.024 A 
HETATM   23  C   UNL     1      29.968  44.002  55.139  1.00  0.00     0.034 A 
HETATM   24 CL   UNL     1      31.241  44.187  56.282  1.00  0.00    -0.084 Cl
HETATM   25  C   UNL     1      28.937  44.938  55.094  1.00  0.00     0.024 A 
HETATM   26  C   UNL     1      27.903  44.790  54.165  1.00  0.00     0.010 A 
ENDBRANCH  19  20
ENDBRANCH  16  19
ENDBRANCH  12  15
TORSDOF 3
ENDMDL
MODEL 6
REMARK VINA RESULT:      -8.8      2.488      3.259
REMARK  3 active torsions:
REMARK  status: ('A' for Active; 'I' for Inactive)
REMARK    1  A    between atoms: C_12  and  C_13 
REMARK       I    between atoms: C_13  and  N_14 
REMARK    2  A    between atoms: N_14  and  C_15 
REMARK    3  A    between atoms: C_15  and  C_16 
ROOT
HETATM    1  C   UNL     1      31.238  43.760  56.686  1.00  0.00     0.001 A 
HETATM    2  C   UNL     1      30.684  43.040  55.625  1.00  0.00     0.016 A 
HETATM    3  C   UNL     1      29.651  43.602  54.871  1.00  0.00     0.026 A 
HETATM    4  C   UNL     1      29.170  44.889  55.182  1.00  0.00     0.081 A 
HETATM    5  O   UNL     1      28.159  45.536  54.505  1.00  0.00    -0.346 OA
HETATM    6  C   UNL     1      27.510  44.886  53.374  1.00  0.00     0.219 A 
HETATM    7  C   UNL     1      28.011  43.535  53.044  1.00  0.00     0.031 A 
HETATM    8  C   UNL     1      29.017  42.944  53.758  1.00  0.00     0.074 A 
HETATM    9  N   UNL     1      29.224  41.727  53.194  1.00  0.00    -0.276 N 
HETATM   10  H   UNL     1      29.892  41.012  53.462  1.00  0.00     0.189 HD
HETATM   11  N   UNL     1      28.411  41.483  52.141  1.00  0.00    -0.168 NA
HETATM   12  C   UNL     1      27.655  42.602  52.042  1.00  0.00     0.155 A 
HETATM   13  C   UNL     1      29.730  45.599  56.245  1.00  0.00     0.038 A 
HETATM   14  C   UNL     1      30.762  45.035  56.996  1.00  0.00     0.003 A 
ENDROOT
BRANCH  12  15
HETATM   15  C   UNL     1      26.622  42.763  51.007  1.00  0.00     0.272 C 
HETATM   16  N   UNL     1      25.399  43.129  51.512  1.00  0.00    -0.351 N 
HETATM   17  H   UNL     1      25.356  43.267  52.518  1.00  0.00     0.163 HD
HETATM   18  O   UNL     1      26.848  42.584  49.815  1.00  0.00    -0.266 OA
BRANCH  16  19
HETATM   19  C   UNL     1      24.235  43.343  50.694  1.00  0.00     0.161 C 
BRANCH  19  20
HETATM   20  C   UNL     1      24.107  44.788  50.283  1.00  0.00    -0.040 A 
HETATM   21  C   UNL     1      23.293  45.147  49.198  1.00  0.00     0.010 A 
HETATM   22  C   UNL     1      23.158  46.487  48.823  1.00  0.00     0.024 A 
HETATM   23  C   UNL     1      23.833  47.474  49.535  1.00  0.00     0.034 A 
HETATM   24 CL   UNL     1      23.664  49.124  49.079  1.00  0.00    -0.084 Cl
HETATM   25  C   UNL     1      24.643  47.135  50.617  1.00  0.00     0.024 A 
HETATM   26  C   UNL     1      24.780  45.795  50.990  1.00  0.00     0.010 A 
ENDBRANCH  19  20
ENDBRANCH  16  19
ENDBRANCH  12  15
TORSDOF 3
ENDMDL
MODEL 7
REMARK VINA RESULT:      -8.7      3.374      4.208
REMARK  3 active torsions:
REMARK  status: ('A' for Active; 'I' for Inactive)
REMARK    1  A    between atoms: C_12  and  C_13 
REMARK       I    between atoms: C_13  and  N_14 
REMARK    2  A    between atoms: N_14  and  C_15 
REMARK    3  A    between atoms: C_15  and  C_16 
ROOT
HETATM    1  C   UNL     1      31.067  44.928  58.003  1.00  0.00     0.001 A 
HETATM    2  C   UNL     1      30.018  45.637  57.413  1.00  0.00     0.016 A 
HETATM    3  C   UNL     1      29.524  45.236  56.169  1.00  0.00     0.026 A 
HETATM    4  C   UNL     1      30.084  44.120  55.515  1.00  0.00     0.081 A 
HETATM    5  O   UNL     1      29.674  43.639  54.290  1.00  0.00    -0.346 OA
HETATM    6  C   UNL     1      28.581  44.294  53.582  1.00  0.00     0.219 A 
HETATM    7  C   UNL     1      27.990  45.464  54.265  1.00  0.00     0.031 A 
HETATM    8  C   UNL     1      28.446  45.896  55.480  1.00  0.00     0.074 A 
HETATM    9  N   UNL     1      27.693  46.975  55.811  1.00  0.00    -0.276 N 
HETATM   10  H   UNL     1      27.749  47.554  56.642  1.00  0.00     0.189 HD
HETATM   11  N   UNL     1      26.759  47.278  54.879  1.00  0.00    -0.168 NA
HETATM   12  C   UNL     1      26.939  46.343  53.916  1.00  0.00     0.155 A 
HETATM   13  C   UNL     1      31.132  43.420  56.114  1.00  0.00     0.038 A 
HETATM   14  C   UNL     1      31.623  43.824  57.356  1.00  0.00     0.003 A 
ENDROOT
BRANCH  12  15
HETATM   15  C   UNL     1      26.115  46.302  52.699  1.00  0.00     0.272 C 
HETATM   16  N   UNL     1      25.325  45.182  52.614  1.00  0.00    -0.351 N 
HETATM   17  H   UNL     1      25.382  44.537  53.397  1.00  0.00     0.163 HD
HETATM   18  O   UNL     1      26.143  47.189  51.852  1.00  0.00    -0.266 OA
BRANCH  16  19
HETATM   19  C   UNL     1      24.436  44.919  51.513  1.00  0.00     0.161 C 
BRANCH  19  20
HETATM   20  C   UNL     1      24.798  43.637  50.808  1.00  0.00    -0.040 A 
HETATM   21  C   UNL     1      24.054  43.204  49.699  1.00  0.00     0.010 A 
HETATM   22  C   UNL     1      24.395  42.025  49.031  1.00  0.00     0.024 A 
HETATM   23  C   UNL     1      25.485  41.276  49.465  1.00  0.00     0.034 A 
HETATM   24 CL   UNL     1      25.910  39.827  48.639  1.00  0.00    -0.084 Cl
HETATM   25  C   UNL     1      26.237  41.693  50.561  1.00  0.00     0.024 A 
HETATM   26  C   UNL     1      25.894  42.871  51.231  1.00  0.00     0.010 A 
ENDBRANCH  19  20
ENDBRANCH  16  19
ENDBRANCH  12  15
TORSDOF 3
ENDMDL
MODEL 8
REMARK VINA RESULT:      -8.6      2.109      2.728
REMARK  3 active torsions:
REMARK  status: ('A' for Active; 'I' for Inactive)
REMARK    1  A    between atoms: C_12  and  C_13 
REMARK       I    between atoms: C_13  and  N_14 
REMARK    2  A    between atoms: N_14  and  C_15 
REMARK    3  A    between atoms: C_15  and  C_16 
ROOT
HETATM    1  C   UNL     1      31.083  43.959  56.186  1.00  0.00     0.001 A 
HETATM    2  C   UNL     1      30.372  43.350  55.149  1.00  0.00     0.016 A 
HETATM    3  C   UNL     1      29.193  43.934  54.681  1.00  0.00     0.026 A 
HETATM    4  C   UNL     1      28.724  45.133  55.255  1.00  0.00     0.081 A 
HETATM    5  O   UNL     1      27.576  45.792  54.871  1.00  0.00    -0.346 OA
HETATM    6  C   UNL     1      26.756  45.254  53.793  1.00  0.00     0.219 A 
HETATM    7  C   UNL     1      27.245  43.997  53.187  1.00  0.00     0.031 A 
HETATM    8  C   UNL     1      28.391  43.388  53.617  1.00  0.00     0.074 A 
HETATM    9  N   UNL     1      28.542  42.274  52.857  1.00  0.00    -0.276 N 
HETATM   10  H   UNL     1      29.278  41.578  52.895  1.00  0.00     0.189 HD
HETATM   11  N   UNL     1      27.557  42.116  51.943  1.00  0.00    -0.168 NA
HETATM   12  C   UNL     1      26.747  43.184  52.143  1.00  0.00     0.155 A 
HETATM   13  C   UNL     1      29.441  45.731  56.291  1.00  0.00     0.038 A 
HETATM   14  C   UNL     1      30.619  45.145  56.755  1.00  0.00     0.003 A 
ENDROOT
BRANCH  12  15
HETATM   15  C   UNL     1      25.533  43.409  51.344  1.00  0.00     0.272 C 
HETATM   16  N   UNL     1      25.795  43.825  50.062  1.00  0.00    -0.351 N 
HETATM   17  H   UNL     1      26.776  43.903  49.812  1.00  0.00     0.163 HD
HETATM   18  O   UNL     1      24.405  43.238  51.795  1.00  0.00    -0.266 OA
BRANCH  16  19
HETATM   19  C   UNL     1      24.768  44.111  49.096  1.00  0.00     0.161 C 
BRANCH  19  20
HETATM   20  C   UNL     1      24.300  45.541  49.197  1.00  0.00    -0.040 A 
HETATM   21  C   UNL     1      25.127  46.518  49.772  1.00  0.00     0.010 A 
HETATM   22  C   UNL     1      24.705  47.848  49.853  1.00  0.00     0.024 A 
HETATM   23  C   UNL     1      23.456  48.208  49.354  1.00  0.00     0.034 A 
HETATM   24 CL   UNL     1      22.938  49.846  49.448  1.00  0.00    -0.084 Cl
HETATM   25  C   UNL     1      22.625  47.251  48.777  1.00  0.00     0.024 A 
HETATM   26  C   UNL     1      23.045  45.920  48.699  1.00  0.00     0.010 A 
ENDBRANCH  19  20
ENDBRANCH  16  19
ENDBRANCH  12  15
TORSDOF 3
ENDMDL
MODEL 9
REMARK VINA RESULT:      -8.5      4.707      5.716
REMARK  3 active torsions:
REMARK  status: ('A' for Active; 'I' for Inactive)
REMARK    1  A    between atoms: C_12  and  C_13 
REMARK       I    between atoms: C_13  and  N_14 
REMARK    2  A    between atoms: N_14  and  C_15 
REMARK    3  A    between atoms: C_15  and  C_16 
ROOT
HETATM    1  C   UNL     1      31.532  44.525  57.798  1.00  0.00     0.001 A 
HETATM    2  C   UNL     1      31.226  43.923  56.575  1.00  0.00     0.016 A 
HETATM    3  C   UNL     1      30.100  44.339  55.861  1.00  0.00     0.026 A 
HETATM    4  C   UNL     1      29.278  45.362  56.375  1.00  0.00     0.081 A 
HETATM    5  O   UNL     1      28.147  45.849  55.755  1.00  0.00    -0.346 OA
HETATM    6  C   UNL     1      27.731  45.302  54.469  1.00  0.00     0.219 A 
HETATM    7  C   UNL     1      28.591  44.229  53.926  1.00  0.00     0.031 A 
HETATM    8  C   UNL     1      29.700  43.786  54.593  1.00  0.00     0.074 A 
HETATM    9  N   UNL     1      30.247  42.811  53.823  1.00  0.00    -0.276 N 
HETATM   10  H   UNL     1      31.077  42.257  54.003  1.00  0.00     0.189 HD
HETATM   11  N   UNL     1      29.560  42.589  52.679  1.00  0.00    -0.168 NA
HETATM   12  C   UNL     1      28.530  43.466  52.737  1.00  0.00     0.155 A 
HETATM   13  C   UNL     1      29.593  45.955  57.598  1.00  0.00     0.038 A 
HETATM   14  C   UNL     1      30.719  45.537  58.308  1.00  0.00     0.003 A 
ENDROOT
BRANCH  12  15
HETATM   15  C   UNL     1      27.522  43.564  51.671  1.00  0.00     0.272 C 
HETATM   16  N   UNL     1      26.489  42.671  51.816  1.00  0.00    -0.351 N 
HETATM   17  H   UNL     1      26.529  42.075  52.638  1.00  0.00     0.163 HD
HETATM   18  O   UNL     1      27.610  44.370  50.750  1.00  0.00    -0.266 OA
BRANCH  16  19
HETATM   19  C   UNL     1      25.387  42.576  50.896  1.00  0.00     0.161 C 
BRANCH  19  20
HETATM   20  C   UNL     1      25.581  41.444  49.918  1.00  0.00    -0.040 A 
HETATM   21  C   UNL     1      24.953  41.476  48.664  1.00  0.00     0.010 A 
HETATM   22  C   UNL     1      25.142  40.438  47.747  1.00  0.00     0.024 A 
HETATM   23  C   UNL     1      25.965  39.366  48.080  1.00  0.00     0.034 A 
HETATM   24 CL   UNL     1      26.205  38.090  46.950  1.00  0.00    -0.084 Cl
HETATM   25  C   UNL     1      26.599  39.321  49.319  1.00  0.00     0.024 A 
HETATM   26  C   UNL     1      26.407  40.357  50.237  1.00  0.00     0.010 A 
ENDBRANCH  19  20
ENDBRANCH  16  19
ENDBRANCH  12  15
TORSDOF 3
ENDMDL
MODEL 10
REMARK VINA RESULT:      -8.5      3.387      4.210
REMARK  3 active torsions:
REMARK  status: ('A' for Active; 'I' for Inactive)
REMARK    1  A    between atoms: C_12  and  C_13 
REMARK       I    between atoms: C_13  and  N_14 
REMARK    2  A    between atoms: N_14  and  C_15 
REMARK    3  A    between atoms: C_15  and  C_16 
ROOT
HETATM    1  C   UNL     1      31.774  43.679  57.426  1.00  0.00     0.001 A 
HETATM    2  C   UNL     1      31.132  43.359  56.227  1.00  0.00     0.016 A 
HETATM    3  C   UNL     1      30.097  44.170  55.757  1.00  0.00     0.026 A 
HETATM    4  C   UNL     1      29.702  45.306  56.492  1.00  0.00     0.081 A 
HETATM    5  O   UNL     1      28.697  46.172  56.121  1.00  0.00    -0.346 OA
HETATM    6  C   UNL     1      27.961  45.944  54.884  1.00  0.00     0.219 A 
HETATM    7  C   UNL     1      28.372  44.754  54.109  1.00  0.00     0.031 A 
HETATM    8  C   UNL     1      29.377  43.929  54.533  1.00  0.00     0.074 A 
HETATM    9  N   UNL     1      29.491  42.951  53.599  1.00  0.00    -0.276 N 
HETATM   10  H   UNL     1      30.131  42.165  53.583  1.00  0.00     0.189 HD
HETATM   11  N   UNL     1      28.617  43.089  52.576  1.00  0.00    -0.168 NA
HETATM   12  C   UNL     1      27.919  44.207  52.886  1.00  0.00     0.155 A 
HETATM   13  C   UNL     1      30.349  45.615  57.689  1.00  0.00     0.038 A 
HETATM   14  C   UNL     1      31.383  44.802  58.155  1.00  0.00     0.003 A 
ENDROOT
BRANCH  12  15
HETATM   15  C   UNL     1      26.849  44.730  52.023  1.00  0.00     0.272 C 
HETATM   16  N   UNL     1      27.159  44.688  50.686  1.00  0.00    -0.351 N 
HETATM   17  H   UNL     1      28.063  44.287  50.452  1.00  0.00     0.163 HD
HETATM   18  O   UNL     1      25.789  45.157  52.470  1.00  0.00    -0.266 OA
BRANCH  16  19
HETATM   19  C   UNL     1      26.272  45.147  49.651  1.00  0.00     0.161 C 
BRANCH  19  20
HETATM   20  C   UNL     1      25.347  44.048  49.190  1.00  0.00    -0.040 A 
HETATM   21  C   UNL     1      25.768  42.710  49.220  1.00  0.00     0.010 A 
HETATM   22  C   UNL     1      24.910  41.685  48.810  1.00  0.00     0.024 A 
HETATM   23  C   UNL     1      23.625  41.995  48.374  1.00  0.00     0.034 A 
HETATM   24 CL   UNL     1      22.565  40.735  47.875  1.00  0.00    -0.084 Cl
HETATM   25  C   UNL     1      23.190  43.318  48.342  1.00  0.00     0.024 A 
HETATM   26  C   UNL     1      24.050  44.343  48.749  1.00  0.00     0.010 A 
ENDBRANCH  19  20
ENDBRANCH  16  19
ENDBRANCH  12  15
TORSDOF 3
ENDMDL
