MODEL 1
REMARK VINA RESULT:      -9.5      0.000      0.000
REMARK  7 active torsions:
REMARK  status: ('A' for Active; 'I' for Inactive)
REMARK    1  A    between atoms: C_2  and  C_3 
REMARK    2  A    between atoms: C_3  and  N_4 
REMARK       I    between atoms: N_4  and  C_5 
REMARK    3  A    between atoms: C_5  and  C_6 
REMARK    4  A    between atoms: C_7  and  N_8 
REMARK    5  A    between atoms: N_9  and  N_10 
REMARK    6  A    between atoms: C_11  and  C_12 
REMARK    7  A    between atoms: C_13  and  O_14 
ROOT
HETATM    1  C   UNL     1      26.525  42.489  51.319  1.00  0.00     0.104 C 
HETATM    2  C   UNL     1      25.575  43.474  51.082  1.00  0.00     0.123 C 
HETATM    3  N   UNL     1      26.053  44.667  51.615  1.00  0.00    -0.202 N 
HETATM    4  C   UNL     1      27.043  44.354  52.530  1.00  0.00     0.183 A 
HETATM    5  C   UNL     1      27.368  43.012  52.337  1.00  0.00     0.124 A 
HETATM    6  N   UNL     1      28.371  42.431  53.042  1.00  0.00    -0.242 NA
HETATM    7  C   UNL     1      28.956  43.214  53.958  1.00  0.00     0.086 A 
HETATM    8  C   UNL     1      28.591  44.573  54.150  1.00  0.00     0.088 A 
HETATM    9  N   UNL     1      27.638  45.181  53.423  1.00  0.00    -0.225 NA
HETATM   10  C   UNL     1      29.955  42.666  54.752  1.00  0.00     0.034 A 
HETATM   11  C   UNL     1      30.602  43.417  55.734  1.00  0.00     0.002 A 
HETATM   12  C   UNL     1      30.246  44.744  55.924  1.00  0.00     0.002 A 
HETATM   13  C   UNL     1      29.248  45.308  55.129  1.00  0.00     0.034 A 
ENDROOT
BRANCH   3  14
HETATM   14  N   UNL     1      25.566  45.867  51.147  1.00  0.00    -0.176 NA
HETATM   15  C   UNL     1      26.302  46.507  50.296  1.00  0.00     0.153 C 
BRANCH  15  16
HETATM   16  C   UNL     1      25.751  47.688  49.586  1.00  0.00     0.017 A 
HETATM   17  C   UNL     1      26.583  48.636  48.974  1.00  0.00     0.077 A 
HETATM   18  C   UNL     1      26.047  49.785  48.397  1.00  0.00     0.039 A 
HETATM   19  C   UNL     1      24.669  49.995  48.434  1.00  0.00     0.022 A 
HETATM   20  C   UNL     1      23.839  49.052  49.044  1.00  0.00     0.012 A 
HETATM   21 BR   UNL     1      21.974  49.354  49.108  1.00  0.00    -0.051 Br
HETATM   22  C   UNL     1      24.370  47.897  49.622  1.00  0.00     0.034 A 
BRANCH  17  23
HETATM   23  O   UNL     1      27.946  48.516  48.935  1.00  0.00    -0.360 OA
HETATM   24  H   UNL     1      28.280  49.324  48.489  1.00  0.00     0.217 HD
ENDBRANCH  17  23
ENDBRANCH  15  16
ENDBRANCH   3  14
BRANCH   2  25
HETATM   25  N   UNL     1      24.421  43.445  50.344  1.00  0.00    -0.286 NA
HETATM   26  H   UNL     1      24.493  43.718  49.361  1.00  0.00     0.125 HD
HETATM   27  H   UNL     1      23.865  42.589  50.415  1.00  0.00     0.125 HD
ENDBRANCH   2  25
BRANCH   1  28
HETATM   28  C   UNL     1      26.653  41.217  50.612  1.00  0.00     0.257 C 
HETATM   29  N   UNL     1      27.967  40.890  50.320  1.00  0.00    -0.352 N 
HETATM   30  H   UNL     1      28.647  41.547  50.692  1.00  0.00     0.163 HD
HETATM   31  O   UNL     1      25.713  40.462  50.401  1.00  0.00    -0.267 OA
BRANCH  29  32
HETATM   32  C   UNL     1      28.425  39.519  50.145  1.00  0.00     0.080 C 
HETATM   33  C   UNL     1      29.064  39.307  48.773  1.00  0.00     0.032 C 
BRANCH  32  34
HETATM   34  C   UNL     1      29.437  39.150  51.249  1.00  0.00     0.020 C 
HETATM   35  C   UNL     1      29.965  37.723  51.140  1.00  0.00     0.007 C 
ENDBRANCH  32  34
ENDBRANCH  29  32
ENDBRANCH   1  28
TORSDOF 7
ENDMDL
MODEL 2
REMARK VINA RESULT:      -9.4      1.919      2.501
REMARK  7 active torsions:
REMARK  status: ('A' for Active; 'I' for Inactive)
REMARK    1  A    between atoms: C_2  and  C_3 
REMARK    2  A    between atoms: C_3  and  N_4 
REMARK       I    between atoms: N_4  and  C_5 
REMARK    3  A    between atoms: C_5  and  C_6 
REMARK    4  A    between atoms: C_7  and  N_8 
REMARK    5  A    between atoms: N_9  and  N_10 
REMARK    6  A    between atoms: C_11  and  C_12 
REMARK    7  A    between atoms: C_13  and  O_14 
ROOT
HETATM    1  C   UNL     1      27.870  42.109  52.459  1.00  0.00     0.104 C 
HETATM    2  C   UNL     1      26.707  42.806  52.162  1.00  0.00     0.123 C 
HETATM    3  N   UNL     1      26.833  44.092  52.678  1.00  0.00    -0.202 N 
HETATM    4  C   UNL     1      27.832  44.065  53.636  1.00  0.00     0.183 A 
HETATM    5  C   UNL     1      28.504  42.853  53.492  1.00  0.00     0.124 A 
HETATM    6  N   UNL     1      29.594  42.566  54.248  1.00  0.00    -0.242 NA
HETATM    7  C   UNL     1      29.916  43.491  55.162  1.00  0.00     0.086 A 
HETATM    8  C   UNL     1      29.200  44.710  55.304  1.00  0.00     0.088 A 
HETATM    9  N   UNL     1      28.152  45.035  54.527  1.00  0.00    -0.225 NA
HETATM   10  C   UNL     1      30.989  43.238  56.005  1.00  0.00     0.034 A 
HETATM   11  C   UNL     1      31.376  44.149  56.990  1.00  0.00     0.002 A 
HETATM   12  C   UNL     1      30.678  45.339  57.130  1.00  0.00     0.002 A 
HETATM   13  C   UNL     1      29.601  45.608  56.285  1.00  0.00     0.034 A 
ENDROOT
BRANCH   3  14
HETATM   14  N   UNL     1      26.069  45.114  52.161  1.00  0.00    -0.176 NA
HETATM   15  C   UNL     1      26.539  45.731  51.125  1.00  0.00     0.153 C 
BRANCH  15  16
HETATM   16  C   UNL     1      25.680  46.688  50.384  1.00  0.00     0.017 A 
HETATM   17  C   UNL     1      24.319  46.437  50.158  1.00  0.00     0.077 A 
HETATM   18  C   UNL     1      23.557  47.304  49.379  1.00  0.00     0.039 A 
HETATM   19  C   UNL     1      24.155  48.429  48.814  1.00  0.00     0.022 A 
HETATM   20  C   UNL     1      25.511  48.680  49.038  1.00  0.00     0.012 A 
HETATM   21 BR   UNL     1      26.320  50.197  48.252  1.00  0.00    -0.051 Br
HETATM   22  C   UNL     1      26.280  47.816  49.820  1.00  0.00     0.034 A 
BRANCH  17  23
HETATM   23  O   UNL     1      23.675  45.332  50.647  1.00  0.00    -0.360 OA
HETATM   24  H   UNL     1      22.854  45.660  51.073  1.00  0.00     0.217 HD
ENDBRANCH  17  23
ENDBRANCH  15  16
ENDBRANCH   3  14
BRANCH   2  25
HETATM   25  N   UNL     1      25.632  42.464  51.384  1.00  0.00    -0.286 NA
HETATM   26  H   UNL     1      24.878  41.943  51.838  1.00  0.00     0.125 HD
HETATM   27  H   UNL     1      25.228  43.217  50.821  1.00  0.00     0.125 HD
ENDBRANCH   2  25
BRANCH   1  28
HETATM   28  C   UNL     1      28.356  40.904  51.791  1.00  0.00     0.257 C 
HETATM   29  N   UNL     1      27.850  40.753  50.511  1.00  0.00    -0.352 N 
HETATM   30  H   UNL     1      27.268  41.527  50.205  1.00  0.00     0.163 HD
HETATM   31  O   UNL     1      29.210  40.166  52.265  1.00  0.00    -0.267 OA
BRANCH  29  32
HETATM   32  C   UNL     1      28.540  40.014  49.464  1.00  0.00     0.080 C 
HETATM   33  C   UNL     1      28.178  38.529  49.487  1.00  0.00     0.032 C 
BRANCH  32  34
HETATM   34  C   UNL     1      28.204  40.607  48.081  1.00  0.00     0.020 C 
HETATM   35  C   UNL     1      26.937  41.457  48.073  1.00  0.00     0.007 C 
ENDBRANCH  32  34
ENDBRANCH  29  32
ENDBRANCH   1  28
TORSDOF 7
ENDMDL
MODEL 3
REMARK VINA RESULT:      -9.2      3.761      7.575
REMARK  7 active torsions:
REMARK  status: ('A' for Active; 'I' for Inactive)
REMARK    1  A    between atoms: C_2  and  C_3 
REMARK    2  A    between atoms: C_3  and  N_4 
REMARK       I    between atoms: N_4  and  C_5 
REMARK    3  A    between atoms: C_5  and  C_6 
REMARK    4  A    between atoms: C_7  and  N_8 
REMARK    5  A    between atoms: N_9  and  N_10 
REMARK    6  A    between atoms: C_11  and  C_12 
REMARK    7  A    between atoms: C_13  and  O_14 
ROOT
HETATM    1  C   UNL     1      23.728  45.383  48.843  1.00  0.00     0.104 C 
HETATM    2  C   UNL     1      24.954  45.480  49.488  1.00  0.00     0.123 C 
HETATM    3  N   UNL     1      24.977  46.681  50.188  1.00  0.00    -0.202 N 
HETATM    4  C   UNL     1      24.000  47.501  49.651  1.00  0.00     0.183 A 
HETATM    5  C   UNL     1      23.199  46.703  48.838  1.00  0.00     0.124 A 
HETATM    6  N   UNL     1      22.099  47.213  48.228  1.00  0.00    -0.242 NA
HETATM    7  C   UNL     1      21.896  48.524  48.415  1.00  0.00     0.086 A 
HETATM    8  C   UNL     1      22.742  49.320  49.232  1.00  0.00     0.088 A 
HETATM    9  N   UNL     1      23.803  48.821  49.888  1.00  0.00    -0.225 NA
HETATM   10  C   UNL     1      20.818  49.121  47.775  1.00  0.00     0.034 A 
HETATM   11  C   UNL     1      20.551  50.484  47.913  1.00  0.00     0.002 A 
HETATM   12  C   UNL     1      21.376  51.265  48.710  1.00  0.00     0.002 A 
HETATM   13  C   UNL     1      22.460  50.675  49.362  1.00  0.00     0.034 A 
ENDROOT
BRANCH   3  14
HETATM   14  N   UNL     1      25.837  46.835  51.253  1.00  0.00    -0.176 NA
HETATM   15  C   UNL     1      25.384  46.517  52.424  1.00  0.00     0.153 C 
BRANCH  15  16
HETATM   16  C   UNL     1      26.313  46.447  53.579  1.00  0.00     0.017 A 
HETATM   17  C   UNL     1      26.359  47.456  54.552  1.00  0.00     0.077 A 
HETATM   18  C   UNL     1      27.304  47.414  55.574  1.00  0.00     0.039 A 
HETATM   19  C   UNL     1      28.217  46.362  55.625  1.00  0.00     0.022 A 
HETATM   20  C   UNL     1      28.173  45.357  54.657  1.00  0.00     0.012 A 
HETATM   21 BR   UNL     1      29.427  43.943  54.723  1.00  0.00    -0.051 Br
HETATM   22  C   UNL     1      27.226  45.391  53.631  1.00  0.00     0.034 A 
BRANCH  17  23
HETATM   23  O   UNL     1      25.521  48.539  54.541  1.00  0.00    -0.360 OA
HETATM   24  H   UNL     1      24.720  48.260  54.048  1.00  0.00     0.217 HD
ENDBRANCH  17  23
ENDBRANCH  15  16
ENDBRANCH   3  14
BRANCH   2  25
HETATM   25  N   UNL     1      25.970  44.570  49.619  1.00  0.00    -0.286 NA
HETATM   26  H   UNL     1      25.704  43.603  49.820  1.00  0.00     0.125 HD
HETATM   27  H   UNL     1      26.676  44.576  48.878  1.00  0.00     0.125 HD
ENDBRANCH   2  25
BRANCH   1  28
HETATM   28  C   UNL     1      23.103  44.162  48.344  1.00  0.00     0.257 C 
HETATM   29  N   UNL     1      23.879  43.500  47.407  1.00  0.00    -0.352 N 
HETATM   30  H   UNL     1      24.788  43.925  47.251  1.00  0.00     0.163 HD
HETATM   31  O   UNL     1      22.058  43.706  48.789  1.00  0.00    -0.267 OA
BRANCH  29  32
HETATM   32  C   UNL     1      23.790  42.066  47.170  1.00  0.00     0.080 C 
HETATM   33  C   UNL     1      23.581  41.749  45.689  1.00  0.00     0.032 C 
BRANCH  32  34
HETATM   34  C   UNL     1      25.067  41.363  47.673  1.00  0.00     0.020 C 
HETATM   35  C   UNL     1      25.072  41.112  49.179  1.00  0.00     0.007 C 
ENDBRANCH  32  34
ENDBRANCH  29  32
ENDBRANCH   1  28
TORSDOF 7
ENDMDL
MODEL 4
REMARK VINA RESULT:      -9.1      3.302      8.728
REMARK  7 active torsions:
REMARK  status: ('A' for Active; 'I' for Inactive)
REMARK    1  A    between atoms: C_2  and  C_3 
REMARK    2  A    between atoms: C_3  and  N_4 
REMARK       I    between atoms: N_4  and  C_5 
REMARK    3  A    between atoms: C_5  and  C_6 
REMARK    4  A    between atoms: C_7  and  N_8 
REMARK    5  A    between atoms: N_9  and  N_10 
REMARK    6  A    between atoms: C_11  and  C_12 
REMARK    7  A    between atoms: C_13  and  O_14 
ROOT
HETATM    1  C   UNL     1      24.621  46.918  50.286  1.00  0.00     0.104 C 
HETATM    2  C   UNL     1      25.086  46.661  51.569  1.00  0.00     0.123 C 
HETATM    3  N   UNL     1      25.353  45.299  51.664  1.00  0.00    -0.202 N 
HETATM    4  C   UNL     1      24.669  44.663  50.642  1.00  0.00     0.183 A 
HETATM    5  C   UNL     1      24.234  45.654  49.763  1.00  0.00     0.124 A 
HETATM    6  N   UNL     1      23.593  45.330  48.612  1.00  0.00    -0.242 NA
HETATM    7  C   UNL     1      23.362  44.023  48.433  1.00  0.00     0.086 A 
HETATM    8  C   UNL     1      23.796  43.035  49.355  1.00  0.00     0.088 A 
HETATM    9  N   UNL     1      24.480  43.332  50.474  1.00  0.00    -0.225 NA
HETATM   10  C   UNL     1      22.662  43.627  47.300  1.00  0.00     0.034 A 
HETATM   11  C   UNL     1      22.373  42.284  47.052  1.00  0.00     0.002 A 
HETATM   12  C   UNL     1      22.796  41.318  47.953  1.00  0.00     0.002 A 
HETATM   13  C   UNL     1      23.504  41.702  49.092  1.00  0.00     0.034 A 
ENDROOT
BRANCH   3  14
HETATM   14  N   UNL     1      26.229  44.839  52.622  1.00  0.00    -0.176 NA
HETATM   15  C   UNL     1      27.385  44.428  52.212  1.00  0.00     0.153 C 
BRANCH  15  16
HETATM   16  C   UNL     1      28.453  44.127  53.197  1.00  0.00     0.017 A 
HETATM   17  C   UNL     1      29.271  42.994  53.077  1.00  0.00     0.077 A 
HETATM   18  C   UNL     1      30.201  42.682  54.066  1.00  0.00     0.039 A 
HETATM   19  C   UNL     1      30.316  43.502  55.187  1.00  0.00     0.022 A 
HETATM   20  C   UNL     1      29.502  44.631  55.308  1.00  0.00     0.012 A 
HETATM   21 BR   UNL     1      29.650  45.727  56.841  1.00  0.00    -0.051 Br
HETATM   22  C   UNL     1      28.569  44.950  54.320  1.00  0.00     0.034 A 
BRANCH  17  23
HETATM   23  O   UNL     1      29.186  42.122  52.025  1.00  0.00    -0.360 OA
HETATM   24  H   UNL     1      29.862  42.411  51.375  1.00  0.00     0.217 HD
ENDBRANCH  17  23
ENDBRANCH  15  16
ENDBRANCH   3  14
BRANCH   2  25
HETATM   25  N   UNL     1      25.414  47.514  52.590  1.00  0.00    -0.286 NA
HETATM   26  H   UNL     1      26.305  48.010  52.512  1.00  0.00     0.125 HD
HETATM   27  H   UNL     1      24.686  48.175  52.872  1.00  0.00     0.125 HD
ENDBRANCH   2  25
BRANCH   1  28
HETATM   28  C   UNL     1      24.603  48.213  49.611  1.00  0.00     0.257 C 
HETATM   29  N   UNL     1      23.327  48.630  49.273  1.00  0.00    -0.352 N 
HETATM   30  H   UNL     1      22.592  48.009  49.596  1.00  0.00     0.163 HD
HETATM   31  O   UNL     1      25.597  48.912  49.463  1.00  0.00    -0.267 OA
BRANCH  29  32
HETATM   32  C   UNL     1      22.963  50.031  49.118  1.00  0.00     0.080 C 
HETATM   33  C   UNL     1      23.118  50.500  47.672  1.00  0.00     0.032 C 
BRANCH  32  34
HETATM   34  C   UNL     1      21.510  50.260  49.583  1.00  0.00     0.020 C 
HETATM   35  C   UNL     1      20.734  51.236  48.703  1.00  0.00     0.007 C 
ENDBRANCH  32  34
ENDBRANCH  29  32
ENDBRANCH   1  28
TORSDOF 7
ENDMDL
MODEL 5
REMARK VINA RESULT:      -9.0      1.888      2.444
REMARK  7 active torsions:
REMARK  status: ('A' for Active; 'I' for Inactive)
REMARK    1  A    between atoms: C_2  and  C_3 
REMARK    2  A    between atoms: C_3  and  N_4 
REMARK       I    between atoms: N_4  and  C_5 
REMARK    3  A    between atoms: C_5  and  C_6 
REMARK    4  A    between atoms: C_7  and  N_8 
REMARK    5  A    between atoms: N_9  and  N_10 
REMARK    6  A    between atoms: C_11  and  C_12 
REMARK    7  A    between atoms: C_13  and  O_14 
ROOT
HETATM    1  C   UNL     1      27.345  41.815  50.641  1.00  0.00     0.104 C 
HETATM    2  C   UNL     1      26.032  42.247  50.507  1.00  0.00     0.123 C 
HETATM    3  N   UNL     1      25.893  43.426  51.232  1.00  0.00    -0.202 N 
HETATM    4  C   UNL     1      26.939  43.492  52.136  1.00  0.00     0.183 A 
HETATM    5  C   UNL     1      27.863  42.517  51.763  1.00  0.00     0.124 A 
HETATM    6  N   UNL     1      29.043  42.389  52.421  1.00  0.00    -0.242 NA
HETATM    7  C   UNL     1      29.207  43.208  53.468  1.00  0.00     0.086 A 
HETATM    8  C   UNL     1      28.239  44.178  53.841  1.00  0.00     0.088 A 
HETATM    9  N   UNL     1      27.089  44.357  53.168  1.00  0.00    -0.225 NA
HETATM   10  C   UNL     1      30.369  43.093  54.219  1.00  0.00     0.034 A 
HETATM   11  C   UNL     1      30.605  43.904  55.330  1.00  0.00     0.002 A 
HETATM   12  C   UNL     1      29.661  44.852  55.696  1.00  0.00     0.002 A 
HETATM   13  C   UNL     1      28.490  44.981  54.947  1.00  0.00     0.034 A 
ENDROOT
BRANCH   3  14
HETATM   14  N   UNL     1      24.875  44.301  50.923  1.00  0.00    -0.176 NA
HETATM   15  C   UNL     1      25.140  45.229  50.060  1.00  0.00     0.153 C 
BRANCH  15  16
HETATM   16  C   UNL     1      24.042  46.065  49.517  1.00  0.00     0.017 A 
HETATM   17  C   UNL     1      22.902  45.498  48.930  1.00  0.00     0.077 A 
HETATM   18  C   UNL     1      21.930  46.303  48.342  1.00  0.00     0.039 A 
HETATM   19  C   UNL     1      22.096  47.688  48.331  1.00  0.00     0.022 A 
HETATM   20  C   UNL     1      23.231  48.254  48.915  1.00  0.00     0.012 A 
HETATM   21 BR   UNL     1      23.460  50.131  48.879  1.00  0.00    -0.051 Br
HETATM   22  C   UNL     1      24.209  47.453  49.508  1.00  0.00     0.034 A 
BRANCH  17  23
HETATM   23  O   UNL     1      22.691  44.146  48.867  1.00  0.00    -0.360 OA
HETATM   24  H   UNL     1      22.438  43.866  49.773  1.00  0.00     0.217 HD
ENDBRANCH  17  23
ENDBRANCH  15  16
ENDBRANCH   3  14
BRANCH   2  25
HETATM   25  N   UNL     1      25.013  41.780  49.720  1.00  0.00    -0.286 NA
HETATM   26  H   UNL     1      24.080  42.162  49.895  1.00  0.00     0.125 HD
HETATM   27  H   UNL     1      25.191  41.777  48.712  1.00  0.00     0.125 HD
ENDBRANCH   2  25
BRANCH   1  28
HETATM   28  C   UNL     1      28.048  40.884  49.761  1.00  0.00     0.257 C 
HETATM   29  N   UNL     1      28.754  39.914  50.452  1.00  0.00    -0.352 N 
HETATM   30  H   UNL     1      28.630  39.954  51.459  1.00  0.00     0.163 HD
HETATM   31  O   UNL     1      27.933  40.888  48.542  1.00  0.00    -0.267 OA
BRANCH  29  32
HETATM   32  C   UNL     1      29.061  38.605  49.893  1.00  0.00     0.080 C 
HETATM   33  C   UNL     1      29.994  37.806  50.803  1.00  0.00     0.032 C 
BRANCH  32  34
HETATM   34  C   UNL     1      27.763  37.807  49.657  1.00  0.00     0.020 C 
HETATM   35  C   UNL     1      27.592  37.333  48.216  1.00  0.00     0.007 C 
ENDBRANCH  32  34
ENDBRANCH  29  32
ENDBRANCH   1  28
TORSDOF 7
ENDMDL
MODEL 6
REMARK VINA RESULT:      -8.7      2.858      6.914
REMARK  7 active torsions:
REMARK  status: ('A' for Active; 'I' for Inactive)
REMARK    1  A    between atoms: C_2  and  C_3 
REMARK    2  A    between atoms: C_3  and  N_4 
REMARK       I    between atoms: N_4  and  C_5 
REMARK    3  A    between atoms: C_5  and  C_6 
REMARK    4  A    between atoms: C_7  and  N_8 
REMARK    5  A    between atoms: N_9  and  N_10 
REMARK    6  A    between atoms: C_11  and  C_12 
REMARK    7  A    between atoms: C_13  and  O_14 
ROOT
HETATM    1  C   UNL     1      27.186  44.782  52.231  1.00  0.00     0.104 C 
HETATM    2  C   UNL     1      27.582  43.877  51.254  1.00  0.00     0.123 C 
HETATM    3  N   UNL     1      28.392  42.921  51.857  1.00  0.00    -0.202 N 
HETATM    4  C   UNL     1      28.847  43.449  53.054  1.00  0.00     0.183 A 
HETATM    5  C   UNL     1      28.087  44.587  53.314  1.00  0.00     0.124 A 
HETATM    6  N   UNL     1      28.249  45.285  54.466  1.00  0.00    -0.242 NA
HETATM    7  C   UNL     1      29.220  44.837  55.274  1.00  0.00     0.086 A 
HETATM    8  C   UNL     1      29.996  43.687  54.975  1.00  0.00     0.088 A 
HETATM    9  N   UNL     1      29.812  42.951  53.865  1.00  0.00    -0.225 NA
HETATM   10  C   UNL     1      29.475  45.537  56.446  1.00  0.00     0.034 A 
HETATM   11  C   UNL     1      30.478  45.138  57.332  1.00  0.00     0.002 A 
HETATM   12  C   UNL     1      31.237  44.015  57.041  1.00  0.00     0.002 A 
HETATM   13  C   UNL     1      30.987  43.300  55.869  1.00  0.00     0.034 A 
ENDROOT
BRANCH   3  14
HETATM   14  N   UNL     1      28.549  41.687  51.266  1.00  0.00    -0.176 NA
HETATM   15  C   UNL     1      27.472  41.014  51.017  1.00  0.00     0.153 C 
BRANCH  15  16
HETATM   16  C   UNL     1      27.545  39.785  50.189  1.00  0.00     0.017 A 
HETATM   17  C   UNL     1      28.580  38.851  50.344  1.00  0.00     0.077 A 
HETATM   18  C   UNL     1      28.680  37.755  49.492  1.00  0.00     0.039 A 
HETATM   19  C   UNL     1      27.746  37.588  48.470  1.00  0.00     0.022 A 
HETATM   20  C   UNL     1      26.715  38.517  48.315  1.00  0.00     0.012 A 
HETATM   21 BR   UNL     1      25.464  38.296  46.915  1.00  0.00    -0.051 Br
HETATM   22  C   UNL     1      26.608  39.618  49.167  1.00  0.00     0.034 A 
BRANCH  17  23
HETATM   23  O   UNL     1      29.555  38.972  51.298  1.00  0.00    -0.360 OA
HETATM   24  H   UNL     1      30.221  39.592  50.931  1.00  0.00     0.217 HD
ENDBRANCH  17  23
ENDBRANCH  15  16
ENDBRANCH   3  14
BRANCH   2  25
HETATM   25  N   UNL     1      27.195  43.747  49.946  1.00  0.00    -0.286 NA
HETATM   26  H   UNL     1      27.644  44.364  49.265  1.00  0.00     0.125 HD
HETATM   27  H   UNL     1      27.181  42.793  49.575  1.00  0.00     0.125 HD
ENDBRANCH   2  25
BRANCH   1  28
HETATM   28  C   UNL     1      26.041  45.686  52.165  1.00  0.00     0.257 C 
HETATM   29  N   UNL     1      25.830  46.201  50.897  1.00  0.00    -0.352 N 
HETATM   30  H   UNL     1      26.459  45.828  50.192  1.00  0.00     0.163 HD
HETATM   31  O   UNL     1      25.278  45.880  53.102  1.00  0.00    -0.267 OA
BRANCH  29  32
HETATM   32  C   UNL     1      24.525  46.644  50.426  1.00  0.00     0.080 C 
HETATM   33  C   UNL     1      24.605  48.009  49.742  1.00  0.00     0.032 C 
BRANCH  32  34
HETATM   34  C   UNL     1      23.931  45.610  49.448  1.00  0.00     0.020 C 
HETATM   35  C   UNL     1      23.512  44.305  50.119  1.00  0.00     0.007 C 
ENDBRANCH  32  34
ENDBRANCH  29  32
ENDBRANCH   1  28
TORSDOF 7
ENDMDL
MODEL 7
REMARK VINA RESULT:      -8.6      3.010      7.791
REMARK  7 active torsions:
REMARK  status: ('A' for Active; 'I' for Inactive)
REMARK    1  A    between atoms: C_2  and  C_3 
REMARK    2  A    between atoms: C_3  and  N_4 
REMARK       I    between atoms: N_4  and  C_5 
REMARK    3  A    between atoms: C_5  and  C_6 
REMARK    4  A    between atoms: C_7  and  N_8 
REMARK    5  A    between atoms: N_9  and  N_10 
REMARK    6  A    between atoms: C_11  and  C_12 
REMARK    7  A    between atoms: C_13  and  O_14 
ROOT
HETATM    1  C   UNL     1      27.188  44.392  53.315  1.00  0.00     0.104 C 
HETATM    2  C   UNL     1      27.114  43.011  53.186  1.00  0.00     0.123 C 
HETATM    3  N   UNL     1      26.609  42.725  51.922  1.00  0.00    -0.202 N 
HETATM    4  C   UNL     1      25.978  43.864  51.452  1.00  0.00     0.183 A 
HETATM    5  C   UNL     1      26.353  44.913  52.290  1.00  0.00     0.124 A 
HETATM    6  N   UNL     1      25.952  46.184  52.036  1.00  0.00    -0.242 NA
HETATM    7  C   UNL     1      25.134  46.327  50.984  1.00  0.00     0.086 A 
HETATM    8  C   UNL     1      24.750  45.238  50.159  1.00  0.00     0.088 A 
HETATM    9  N   UNL     1      25.181  43.981  50.362  1.00  0.00    -0.225 NA
HETATM   10  C   UNL     1      24.643  47.595  50.699  1.00  0.00     0.034 A 
HETATM   11  C   UNL     1      23.778  47.819  49.627  1.00  0.00     0.002 A 
HETATM   12  C   UNL     1      23.400  46.756  48.821  1.00  0.00     0.002 A 
HETATM   13  C   UNL     1      23.891  45.478  49.093  1.00  0.00     0.034 A 
ENDROOT
BRANCH   3  14
HETATM   14  N   UNL     1      26.849  41.494  51.353  1.00  0.00    -0.176 NA
HETATM   15  C   UNL     1      27.574  41.474  50.281  1.00  0.00     0.153 C 
BRANCH  15  16
HETATM   16  C   UNL     1      28.055  40.179  49.740  1.00  0.00     0.017 A 
HETATM   17  C   UNL     1      28.827  39.298  50.511  1.00  0.00     0.077 A 
HETATM   18  C   UNL     1      29.346  38.133  49.951  1.00  0.00     0.039 A 
HETATM   19  C   UNL     1      29.100  37.844  48.609  1.00  0.00     0.022 A 
HETATM   20  C   UNL     1      28.331  38.721  47.840  1.00  0.00     0.012 A 
HETATM   21 BR   UNL     1      28.018  38.333  46.017  1.00  0.00    -0.051 Br
HETATM   22  C   UNL     1      27.806  39.889  48.396  1.00  0.00     0.034 A 
BRANCH  17  23
HETATM   23  O   UNL     1      29.143  39.536  51.821  1.00  0.00    -0.360 OA
HETATM   24  H   UNL     1      29.875  38.920  52.043  1.00  0.00     0.217 HD
ENDBRANCH  17  23
ENDBRANCH  15  16
ENDBRANCH   3  14
BRANCH   2  25
HETATM   25  N   UNL     1      27.564  42.010  54.006  1.00  0.00    -0.286 NA
HETATM   26  H   UNL     1      28.292  41.395  53.632  1.00  0.00     0.125 HD
HETATM   27  H   UNL     1      27.819  42.290  54.957  1.00  0.00     0.125 HD
ENDBRANCH   2  25
BRANCH   1  28
HETATM   28  C   UNL     1      28.010  45.133  54.268  1.00  0.00     0.257 C 
HETATM   29  N   UNL     1      28.833  44.314  55.024  1.00  0.00    -0.352 N 
HETATM   30  H   UNL     1      28.789  43.333  54.764  1.00  0.00     0.163 HD
HETATM   31  O   UNL     1      28.056  46.355  54.316  1.00  0.00    -0.267 OA
BRANCH  29  32
HETATM   32  C   UNL     1      30.086  44.769  55.610  1.00  0.00     0.080 C 
HETATM   33  C   UNL     1      29.856  45.534  56.913  1.00  0.00     0.032 C 
BRANCH  32  34
HETATM   34  C   UNL     1      31.018  43.569  55.874  1.00  0.00     0.020 C 
HETATM   35  C   UNL     1      31.744  43.642  57.214  1.00  0.00     0.007 C 
ENDBRANCH  32  34
ENDBRANCH  29  32
ENDBRANCH   1  28
TORSDOF 7
ENDMDL
MODEL 8
REMARK VINA RESULT:      -8.6      3.381      6.511
REMARK  7 active torsions:
REMARK  status: ('A' for Active; 'I' for Inactive)
REMARK    1  A    between atoms: C_2  and  C_3 
REMARK    2  A    between atoms: C_3  and  N_4 
REMARK       I    between atoms: N_4  and  C_5 
REMARK    3  A    between atoms: C_5  and  C_6 
REMARK    4  A    between atoms: C_7  and  N_8 
REMARK    5  A    between atoms: N_9  and  N_10 
REMARK    6  A    between atoms: C_11  and  C_12 
REMARK    7  A    between atoms: C_13  and  O_14 
ROOT
HETATM    1  C   UNL     1      27.105  41.108  50.269  1.00  0.00     0.104 C 
HETATM    2  C   UNL     1      27.956  41.559  51.269  1.00  0.00     0.123 C 
HETATM    3  N   UNL     1      27.376  42.682  51.851  1.00  0.00    -0.202 N 
HETATM    4  C   UNL     1      26.431  43.174  50.968  1.00  0.00     0.183 A 
HETATM    5  C   UNL     1      26.230  42.195  49.997  1.00  0.00     0.124 A 
HETATM    6  N   UNL     1      25.294  42.357  49.028  1.00  0.00    -0.242 NA
HETATM    7  C   UNL     1      24.649  43.531  49.045  1.00  0.00     0.086 A 
HETATM    8  C   UNL     1      24.888  44.522  50.034  1.00  0.00     0.088 A 
HETATM    9  N   UNL     1      25.772  44.356  51.034  1.00  0.00    -0.225 NA
HETATM   10  C   UNL     1      23.716  43.784  48.049  1.00  0.00     0.034 A 
HETATM   11  C   UNL     1      23.013  44.989  47.995  1.00  0.00     0.002 A 
HETATM   12  C   UNL     1      23.246  45.959  48.959  1.00  0.00     0.002 A 
HETATM   13  C   UNL     1      24.178  45.714  49.969  1.00  0.00     0.034 A 
ENDROOT
BRANCH   3  14
HETATM   14  N   UNL     1      27.743  43.057  53.125  1.00  0.00    -0.176 NA
HETATM   15  C   UNL     1      28.757  43.855  53.232  1.00  0.00     0.153 C 
BRANCH  15  16
HETATM   16  C   UNL     1      29.073  44.473  54.543  1.00  0.00     0.017 A 
HETATM   17  C   UNL     1      28.427  45.636  54.986  1.00  0.00     0.077 A 
HETATM   18  C   UNL     1      28.808  46.250  56.177  1.00  0.00     0.039 A 
HETATM   19  C   UNL     1      29.847  45.707  56.931  1.00  0.00     0.022 A 
HETATM   20  C   UNL     1      30.492  44.549  56.490  1.00  0.00     0.012 A 
HETATM   21 BR   UNL     1      31.914  43.830  57.508  1.00  0.00    -0.051 Br
HETATM   22  C   UNL     1      30.114  43.927  55.299  1.00  0.00     0.034 A 
BRANCH  17  23
HETATM   23  O   UNL     1      27.427  46.247  54.279  1.00  0.00    -0.360 OA
HETATM   24  H   UNL     1      27.815  47.070  53.911  1.00  0.00     0.217 HD
ENDBRANCH  17  23
ENDBRANCH  15  16
ENDBRANCH   3  14
BRANCH   2  25
HETATM   25  N   UNL     1      29.099  41.009  51.788  1.00  0.00    -0.286 NA
HETATM   26  H   UNL     1      29.230  41.080  52.800  1.00  0.00     0.125 HD
HETATM   27  H   UNL     1      29.312  40.054  51.488  1.00  0.00     0.125 HD
ENDBRANCH   2  25
BRANCH   1  28
HETATM   28  C   UNL     1      27.088  39.771  49.681  1.00  0.00     0.257 C 
HETATM   29  N   UNL     1      28.248  39.468  48.989  1.00  0.00    -0.352 N 
HETATM   30  H   UNL     1      28.960  40.190  49.044  1.00  0.00     0.163 HD
HETATM   31  O   UNL     1      26.193  38.959  49.875  1.00  0.00    -0.267 OA
BRANCH  29  32
HETATM   32  C   UNL     1      28.727  38.107  48.796  1.00  0.00     0.080 C 
HETATM   33  C   UNL     1      28.864  37.760  47.313  1.00  0.00     0.032 C 
BRANCH  32  34
HETATM   34  C   UNL     1      30.086  37.914  49.499  1.00  0.00     0.020 C 
HETATM   35  C   UNL     1      29.963  37.595  50.987  1.00  0.00     0.007 C 
ENDBRANCH  32  34
ENDBRANCH  29  32
ENDBRANCH   1  28
TORSDOF 7
ENDMDL
MODEL 9
REMARK VINA RESULT:      -8.4      2.461      5.280
REMARK  7 active torsions:
REMARK  status: ('A' for Active; 'I' for Inactive)
REMARK    1  A    between atoms: C_2  and  C_3 
REMARK    2  A    between atoms: C_3  and  N_4 
REMARK       I    between atoms: N_4  and  C_5 
REMARK    3  A    between atoms: C_5  and  C_6 
REMARK    4  A    between atoms: C_7  and  N_8 
REMARK    5  A    between atoms: N_9  and  N_10 
REMARK    6  A    between atoms: C_11  and  C_12 
REMARK    7  A    between atoms: C_13  and  O_14 
ROOT
HETATM    1  C   UNL     1      26.017  44.831  51.969  1.00  0.00     0.104 C 
HETATM    2  C   UNL     1      25.843  46.174  51.660  1.00  0.00     0.123 C 
HETATM    3  N   UNL     1      24.900  46.261  50.641  1.00  0.00    -0.202 N 
HETATM    4  C   UNL     1      24.818  45.019  50.035  1.00  0.00     0.183 A 
HETATM    5  C   UNL     1      25.481  44.116  50.863  1.00  0.00     0.124 A 
HETATM    6  N   UNL     1      25.504  42.791  50.571  1.00  0.00    -0.242 NA
HETATM    7  C   UNL     1      24.913  42.448  49.418  1.00  0.00     0.086 A 
HETATM    8  C   UNL     1      24.263  43.393  48.580  1.00  0.00     0.088 A 
HETATM    9  N   UNL     1      24.182  44.700  48.881  1.00  0.00    -0.225 NA
HETATM   10  C   UNL     1      24.947  41.115  49.032  1.00  0.00     0.034 A 
HETATM   11  C   UNL     1      24.363  40.685  47.839  1.00  0.00     0.002 A 
HETATM   12  C   UNL     1      23.729  41.606  47.019  1.00  0.00     0.002 A 
HETATM   13  C   UNL     1      23.683  42.948  47.399  1.00  0.00     0.034 A 
ENDROOT
BRANCH   3  14
HETATM   14  N   UNL     1      24.206  47.435  50.452  1.00  0.00    -0.176 NA
HETATM   15  C   UNL     1      24.277  47.977  49.278  1.00  0.00     0.153 C 
BRANCH  15  16
HETATM   16  C   UNL     1      23.387  49.114  48.936  1.00  0.00     0.017 A 
HETATM   17  C   UNL     1      23.823  50.176  48.130  1.00  0.00     0.077 A 
HETATM   18  C   UNL     1      23.002  51.277  47.902  1.00  0.00     0.039 A 
HETATM   19  C   UNL     1      21.736  51.326  48.486  1.00  0.00     0.022 A 
HETATM   20  C   UNL     1      21.301  50.269  49.288  1.00  0.00     0.012 A 
HETATM   21 BR   UNL     1      19.592  50.351  50.092  1.00  0.00    -0.051 Br
HETATM   22  C   UNL     1      22.119  49.161  49.519  1.00  0.00     0.034 A 
BRANCH  17  23
HETATM   23  O   UNL     1      25.066  50.215  47.559  1.00  0.00    -0.360 OA
HETATM   24  H   UNL     1      25.047  49.573  46.816  1.00  0.00     0.217 HD
ENDBRANCH  17  23
ENDBRANCH  15  16
ENDBRANCH   3  14
BRANCH   2  25
HETATM   25  N   UNL     1      26.327  47.302  52.269  1.00  0.00    -0.286 NA
HETATM   26  H   UNL     1      27.125  47.183  52.898  1.00  0.00     0.125 HD
HETATM   27  H   UNL     1      26.500  48.103  51.655  1.00  0.00     0.125 HD
ENDBRANCH   2  25
BRANCH   1  28
HETATM   28  C   UNL     1      26.573  44.289  53.206  1.00  0.00     0.257 C 
HETATM   29  N   UNL     1      27.076  43.007  53.057  1.00  0.00    -0.352 N 
HETATM   30  H   UNL     1      27.041  42.659  52.103  1.00  0.00     0.163 HD
HETATM   31  O   UNL     1      26.690  44.938  54.237  1.00  0.00    -0.267 OA
BRANCH  29  32
HETATM   32  C   UNL     1      28.131  42.464  53.901  1.00  0.00     0.080 C 
HETATM   33  C   UNL     1      28.339  40.970  53.655  1.00  0.00     0.032 C 
BRANCH  32  34
HETATM   34  C   UNL     1      29.454  43.217  53.653  1.00  0.00     0.020 C 
HETATM   35  C   UNL     1      30.295  43.404  54.912  1.00  0.00     0.007 C 
ENDBRANCH  32  34
ENDBRANCH  29  32
ENDBRANCH   1  28
TORSDOF 7
ENDMDL
MODEL 10
REMARK VINA RESULT:      -8.4      2.869      5.390
REMARK  7 active torsions:
REMARK  status: ('A' for Active; 'I' for Inactive)
REMARK    1  A    between atoms: C_2  and  C_3 
REMARK    2  A    between atoms: C_3  and  N_4 
REMARK       I    between atoms: N_4  and  C_5 
REMARK    3  A    between atoms: C_5  and  C_6 
REMARK    4  A    between atoms: C_7  and  N_8 
REMARK    5  A    between atoms: N_9  and  N_10 
REMARK    6  A    between atoms: C_11  and  C_12 
REMARK    7  A    between atoms: C_13  and  O_14 
ROOT
HETATM    1  C   UNL     1      26.962  45.588  53.357  1.00  0.00     0.104 C 
HETATM    2  C   UNL     1      26.148  46.268  52.460  1.00  0.00     0.123 C 
HETATM    3  N   UNL     1      25.613  45.338  51.576  1.00  0.00    -0.202 N 
HETATM    4  C   UNL     1      26.398  44.200  51.634  1.00  0.00     0.183 A 
HETATM    5  C   UNL     1      27.220  44.327  52.752  1.00  0.00     0.124 A 
HETATM    6  N   UNL     1      28.057  43.324  53.120  1.00  0.00    -0.242 NA
HETATM    7  C   UNL     1      28.073  42.263  52.301  1.00  0.00     0.086 A 
HETATM    8  C   UNL     1      27.241  42.168  51.154  1.00  0.00     0.088 A 
HETATM    9  N   UNL     1      26.367  43.127  50.806  1.00  0.00    -0.225 NA
HETATM   10  C   UNL     1      28.947  41.223  52.589  1.00  0.00     0.034 A 
HETATM   11  C   UNL     1      29.029  40.091  51.776  1.00  0.00     0.002 A 
HETATM   12  C   UNL     1      28.217  39.996  50.655  1.00  0.00     0.002 A 
HETATM   13  C   UNL     1      27.331  41.033  50.358  1.00  0.00     0.034 A 
ENDROOT
BRANCH   3  14
HETATM   14  N   UNL     1      24.453  45.633  50.894  1.00  0.00    -0.176 NA
HETATM   15  C   UNL     1      24.541  45.742  49.607  1.00  0.00     0.153 C 
BRANCH  15  16
HETATM   16  C   UNL     1      23.306  45.840  48.790  1.00  0.00     0.017 A 
HETATM   17  C   UNL     1      22.463  46.958  48.856  1.00  0.00     0.077 A 
HETATM   18  C   UNL     1      21.262  46.985  48.152  1.00  0.00     0.039 A 
HETATM   19  C   UNL     1      20.892  45.885  47.378  1.00  0.00     0.022 A 
HETATM   20  C   UNL     1      21.731  44.770  47.312  1.00  0.00     0.012 A 
HETATM   21 BR   UNL     1      21.213  43.275  46.277  1.00  0.00    -0.051 Br
HETATM   22  C   UNL     1      22.937  44.738  48.014  1.00  0.00     0.034 A 
BRANCH  17  23
HETATM   23  O   UNL     1      22.741  48.056  49.625  1.00  0.00    -0.360 OA
HETATM   24  H   UNL     1      23.119  48.728  49.018  1.00  0.00     0.217 HD
ENDBRANCH  17  23
ENDBRANCH  15  16
ENDBRANCH   3  14
BRANCH   2  25
HETATM   25  N   UNL     1      25.743  47.577  52.435  1.00  0.00    -0.286 NA
HETATM   26  H   UNL     1      26.334  48.236  51.924  1.00  0.00     0.125 HD
HETATM   27  H   UNL     1      24.764  47.738  52.183  1.00  0.00     0.125 HD
ENDBRANCH   2  25
BRANCH   1  28
HETATM   28  C   UNL     1      27.394  46.061  54.670  1.00  0.00     0.257 C 
HETATM   29  N   UNL     1      28.456  45.335  55.184  1.00  0.00    -0.352 N 
HETATM   30  H   UNL     1      28.815  44.626  54.551  1.00  0.00     0.163 HD
HETATM   31  O   UNL     1      26.946  47.064  55.209  1.00  0.00    -0.267 OA
BRANCH  29  32
HETATM   32  C   UNL     1      29.407  45.885  56.139  1.00  0.00     0.080 C 
HETATM   33  C   UNL     1      28.777  46.074  57.519  1.00  0.00     0.032 C 
BRANCH  32  34
HETATM   34  C   UNL     1      30.639  44.965  56.256  1.00  0.00     0.020 C 
HETATM   35  C   UNL     1      30.553  43.716  55.382  1.00  0.00     0.007 C 
ENDBRANCH  32  34
ENDBRANCH  29  32
ENDBRANCH   1  28
TORSDOF 7
ENDMDL
