MODEL 1
REMARK VINA RESULT:      -9.1      0.000      0.000
REMARK  10 active torsions:
REMARK  status: ('A' for Active; 'I' for Inactive)
REMARK    1  A    between atoms: C_2  and  C_3 
REMARK    2  A    between atoms: C_3  and  C_4 
REMARK    3  A    between atoms: C_4  and  O_5 
REMARK    4  A    between atoms: O_5  and  C_6 
REMARK    5  A    between atoms: C_9  and  C_10 
REMARK       I    between atoms: C_10  and  N_11 
REMARK    6  A    between atoms: N_11  and  C_12 
REMARK    7  A    between atoms: C_12  and  N_13 
REMARK    8  A    between atoms: N_13  and  C_14 
REMARK    9  A    between atoms: C_16  and  C_17 
REMARK   10  A    between atoms: C_26  and  O_27 
ROOT
HETATM    1  N   UNL     1      24.586  42.336  51.158  1.00  0.00    -0.337 N 
HETATM    2  H   UNL     1      23.673  42.003  51.451  1.00  0.00     0.168 HD
ENDROOT
BRANCH   1   3
HETATM    3  C   UNL     1      25.306  41.437  50.398  1.00  0.00     0.157 C 
HETATM    4  S   UNL     1      24.941  41.285  48.776  1.00  0.00    -0.047 SA
BRANCH   3   5
HETATM    5  N   UNL     1      26.210  40.671  51.115  1.00  0.00    -0.201 NA
HETATM    6  C   UNL     1      27.590  40.695  51.031  1.00  0.00     0.237 C 
HETATM    7  O   UNL     1      28.209  39.868  50.372  1.00  0.00    -0.274 OA
HETATM    8  H   UNL     1      25.920  39.709  50.978  1.00  0.00     0.139 HD
BRANCH   6   9
HETATM    9  C   UNL     1      28.271  41.523  52.060  1.00  0.00     0.026 A 
HETATM   10  C   UNL     1      28.974  42.692  51.751  1.00  0.00     0.019 A 
HETATM   11  C   UNL     1      29.490  43.483  52.780  1.00  0.00     0.038 A 
HETATM   12  C   UNL     1      29.268  43.122  54.108  1.00  0.00     0.068 A 
HETATM   13  C   UNL     1      28.602  41.942  54.427  1.00  0.00     0.038 A 
HETATM   14  C   UNL     1      28.106  41.139  53.400  1.00  0.00     0.019 A 
BRANCH  12  15
HETATM   15  O   UNL     1      29.745  43.940  55.093  1.00  0.00    -0.351 OA
BRANCH  15  16
HETATM   16  C   UNL     1      30.793  43.296  55.833  1.00  0.00     0.175 C 
BRANCH  16  17
HETATM   17  C   UNL     1      31.316  44.281  56.874  1.00  0.00     0.026 C 
BRANCH  17  18
HETATM   18  C   UNL     1      30.497  45.568  56.899  1.00  0.00    -0.002 C 
HETATM   19  C   UNL     1      29.816  45.768  58.243  1.00  0.00     0.005 C 
ENDBRANCH  17  18
ENDBRANCH  16  17
ENDBRANCH  15  16
ENDBRANCH  12  15
ENDBRANCH   6   9
ENDBRANCH   3   5
ENDBRANCH   1   3
BRANCH   1  20
HETATM   20  C   UNL     1      24.949  43.645  51.551  1.00  0.00     0.035 A 
HETATM   21  C   UNL     1      24.650  44.706  50.685  1.00  0.00     0.048 A 
HETATM   22  C   UNL     1      24.940  46.035  51.046  1.00  0.00     0.052 A 
HETATM   23  C   UNL     1      25.581  46.268  52.275  1.00  0.00     0.080 A 
HETATM   24  C   UNL     1      25.932  45.216  53.112  1.00  0.00     0.040 A 
HETATM   25  C   UNL     1      25.617  43.910  52.750  1.00  0.00     0.032 A 
BRANCH  22  26
HETATM   26  C   UNL     1      24.567  47.165  50.199  1.00  0.00     0.183 A 
HETATM   27  O   UNL     1      23.320  47.157  49.630  1.00  0.00    -0.289 OA
HETATM   28  C   UNL     1      23.276  48.329  48.931  1.00  0.00     0.106 A 
HETATM   29  C   UNL     1      24.485  48.981  49.115  1.00  0.00     0.093 A 
HETATM   30  C   UNL     1      22.226  48.820  48.164  1.00  0.00     0.040 A 
HETATM   31  N   UNL     1      25.303  48.228  49.916  1.00  0.00    -0.221 NA
HETATM   32  C   UNL     1      24.691  50.224  48.504  1.00  0.00     0.034 A 
HETATM   33  C   UNL     1      23.654  50.755  47.723  1.00  0.00     0.002 A 
HETATM   34  C   UNL     1      22.447  50.063  47.556  1.00  0.00     0.003 A 
ENDBRANCH  22  26
BRANCH  23  35
HETATM   35  O   UNL     1      25.904  47.521  52.729  1.00  0.00    -0.360 OA
HETATM   36  H   UNL     1      25.838  48.153  51.980  1.00  0.00     0.217 HD
ENDBRANCH  23  35
ENDBRANCH   1  20
TORSDOF 10
ENDMDL
MODEL 2
REMARK VINA RESULT:      -9.0      2.267      9.537
REMARK  10 active torsions:
REMARK  status: ('A' for Active; 'I' for Inactive)
REMARK    1  A    between atoms: C_2  and  C_3 
REMARK    2  A    between atoms: C_3  and  C_4 
REMARK    3  A    between atoms: C_4  and  O_5 
REMARK    4  A    between atoms: O_5  and  C_6 
REMARK    5  A    between atoms: C_9  and  C_10 
REMARK       I    between atoms: C_10  and  N_11 
REMARK    6  A    between atoms: N_11  and  C_12 
REMARK    7  A    between atoms: C_12  and  N_13 
REMARK    8  A    between atoms: N_13  and  C_14 
REMARK    9  A    between atoms: C_16  and  C_17 
REMARK   10  A    between atoms: C_26  and  O_27 
ROOT
HETATM    1  N   UNL     1      26.229  44.233  49.194  1.00  0.00    -0.337 N 
HETATM    2  H   UNL     1      26.758  44.606  48.412  1.00  0.00     0.168 HD
ENDROOT
BRANCH   1   3
HETATM    3  C   UNL     1      24.946  44.731  49.305  1.00  0.00     0.157 C 
HETATM    4  S   UNL     1      23.739  44.050  48.376  1.00  0.00    -0.047 SA
BRANCH   3   5
HETATM    5  N   UNL     1      24.827  45.836  50.131  1.00  0.00    -0.201 NA
HETATM    6  C   UNL     1      25.372  47.093  49.943  1.00  0.00     0.237 C 
HETATM    7  O   UNL     1      26.405  47.436  50.506  1.00  0.00    -0.274 OA
HETATM    8  H   UNL     1      25.114  45.521  51.051  1.00  0.00     0.139 HD
BRANCH   6   9
HETATM    9  C   UNL     1      24.457  48.095  49.339  1.00  0.00     0.026 A 
HETATM   10  C   UNL     1      24.898  49.326  48.843  1.00  0.00     0.019 A 
HETATM   11  C   UNL     1      24.000  50.170  48.184  1.00  0.00     0.038 A 
HETATM   12  C   UNL     1      22.682  49.763  47.992  1.00  0.00     0.068 A 
HETATM   13  C   UNL     1      22.222  48.556  48.513  1.00  0.00     0.038 A 
HETATM   14  C   UNL     1      23.111  47.723  49.192  1.00  0.00     0.019 A 
BRANCH  12  15
HETATM   15  O   UNL     1      21.839  50.589  47.303  1.00  0.00    -0.351 OA
BRANCH  15  16
HETATM   16  C   UNL     1      20.497  50.486  47.801  1.00  0.00     0.175 C 
BRANCH  16  17
HETATM   17  C   UNL     1      20.255  51.646  48.762  1.00  0.00     0.026 C 
BRANCH  17  18
HETATM   18  C   UNL     1      19.002  52.435  48.392  1.00  0.00    -0.002 C 
HETATM   19  C   UNL     1      17.971  52.396  49.508  1.00  0.00     0.005 C 
ENDBRANCH  17  18
ENDBRANCH  16  17
ENDBRANCH  15  16
ENDBRANCH  12  15
ENDBRANCH   6   9
ENDBRANCH   3   5
ENDBRANCH   1   3
BRANCH   1  20
HETATM   20  C   UNL     1      26.874  43.272  50.005  1.00  0.00     0.035 A 
HETATM   21  C   UNL     1      27.587  43.718  51.126  1.00  0.00     0.048 A 
HETATM   22  C   UNL     1      28.205  42.802  51.999  1.00  0.00     0.052 A 
HETATM   23  C   UNL     1      28.131  41.432  51.691  1.00  0.00     0.080 A 
HETATM   24  C   UNL     1      27.475  40.988  50.550  1.00  0.00     0.040 A 
HETATM   25  C   UNL     1      26.849  41.905  49.710  1.00  0.00     0.032 A 
BRANCH  22  26
HETATM   26  C   UNL     1      28.885  43.234  53.217  1.00  0.00     0.183 A 
HETATM   27  O   UNL     1      28.495  44.419  53.784  1.00  0.00    -0.289 OA
HETATM   28  C   UNL     1      29.292  44.526  54.889  1.00  0.00     0.106 A 
HETATM   29  C   UNL     1      30.110  43.409  54.935  1.00  0.00     0.093 A 
HETATM   30  C   UNL     1      29.307  45.551  55.827  1.00  0.00     0.040 A 
HETATM   31  N   UNL     1      29.850  42.597  53.861  1.00  0.00    -0.221 NA
HETATM   32  C   UNL     1      31.021  43.271  55.988  1.00  0.00     0.034 A 
HETATM   33  C   UNL     1      31.066  44.284  56.957  1.00  0.00     0.002 A 
HETATM   34  C   UNL     1      30.226  45.402  56.875  1.00  0.00     0.003 A 
ENDBRANCH  22  26
BRANCH  23  35
HETATM   35  O   UNL     1      28.690  40.454  52.473  1.00  0.00    -0.360 OA
HETATM   36  H   UNL     1      29.598  40.733  52.722  1.00  0.00     0.217 HD
ENDBRANCH  23  35
ENDBRANCH   1  20
TORSDOF 10
ENDMDL
MODEL 3
REMARK VINA RESULT:      -8.8      3.512     10.524
REMARK  10 active torsions:
REMARK  status: ('A' for Active; 'I' for Inactive)
REMARK    1  A    between atoms: C_2  and  C_3 
REMARK    2  A    between atoms: C_3  and  C_4 
REMARK    3  A    between atoms: C_4  and  O_5 
REMARK    4  A    between atoms: O_5  and  C_6 
REMARK    5  A    between atoms: C_9  and  C_10 
REMARK       I    between atoms: C_10  and  N_11 
REMARK    6  A    between atoms: N_11  and  C_12 
REMARK    7  A    between atoms: C_12  and  N_13 
REMARK    8  A    between atoms: N_13  and  C_14 
REMARK    9  A    between atoms: C_16  and  C_17 
REMARK   10  A    between atoms: C_26  and  O_27 
ROOT
HETATM    1  N   UNL     1      24.183  47.902  50.129  1.00  0.00    -0.337 N 
HETATM    2  H   UNL     1      23.629  48.430  50.796  1.00  0.00     0.168 HD
ENDROOT
BRANCH   1   3
HETATM    3  C   UNL     1      24.514  48.597  48.983  1.00  0.00     0.157 C 
HETATM    4  S   UNL     1      26.026  49.298  48.880  1.00  0.00    -0.047 SA
BRANCH   3   5
HETATM    5  N   UNL     1      23.486  48.717  48.064  1.00  0.00    -0.201 NA
HETATM    6  C   UNL     1      22.196  48.230  48.172  1.00  0.00     0.237 C 
HETATM    7  O   UNL     1      21.857  47.184  47.631  1.00  0.00    -0.274 OA
HETATM    8  H   UNL     1      23.863  48.372  47.187  1.00  0.00     0.139 HD
BRANCH   6   9
HETATM    9  C   UNL     1      21.188  49.211  48.646  1.00  0.00     0.026 A 
HETATM   10  C   UNL     1      20.187  48.887  49.569  1.00  0.00     0.019 A 
HETATM   11  C   UNL     1      19.346  49.889  50.058  1.00  0.00     0.038 A 
HETATM   12  C   UNL     1      19.533  51.209  49.655  1.00  0.00     0.068 A 
HETATM   13  C   UNL     1      20.501  51.538  48.709  1.00  0.00     0.038 A 
HETATM   14  C   UNL     1      21.328  50.536  48.202  1.00  0.00     0.019 A 
BRANCH  12  15
HETATM   15  O   UNL     1      18.724  52.174  50.187  1.00  0.00    -0.351 OA
BRANCH  15  16
HETATM   16  C   UNL     1      17.763  52.628  49.222  1.00  0.00     0.175 C 
BRANCH  16  17
HETATM   17  C   UNL     1      16.384  52.144  49.659  1.00  0.00     0.026 C 
BRANCH  17  18
HETATM   18  C   UNL     1      15.628  51.477  48.514  1.00  0.00    -0.002 C 
HETATM   19  C   UNL     1      16.129  50.064  48.265  1.00  0.00     0.005 C 
ENDBRANCH  17  18
ENDBRANCH  16  17
ENDBRANCH  15  16
ENDBRANCH  12  15
ENDBRANCH   6   9
ENDBRANCH   3   5
ENDBRANCH   1   3
BRANCH   1  20
HETATM   20  C   UNL     1      24.532  46.580  50.488  1.00  0.00     0.035 A 
HETATM   21  C   UNL     1      25.610  46.392  51.364  1.00  0.00     0.048 A 
HETATM   22  C   UNL     1      25.970  45.103  51.798  1.00  0.00     0.052 A 
HETATM   23  C   UNL     1      25.253  44.004  51.292  1.00  0.00     0.080 A 
HETATM   24  C   UNL     1      24.221  44.179  50.379  1.00  0.00     0.040 A 
HETATM   25  C   UNL     1      23.863  45.463  49.978  1.00  0.00     0.032 A 
BRANCH  22  26
HETATM   26  C   UNL     1      27.036  44.884  52.772  1.00  0.00     0.183 A 
HETATM   27  O   UNL     1      27.891  43.834  52.564  1.00  0.00    -0.289 OA
HETATM   28  C   UNL     1      28.760  43.911  53.615  1.00  0.00     0.106 A 
HETATM   29  C   UNL     1      28.391  44.995  54.394  1.00  0.00     0.093 A 
HETATM   30  C   UNL     1      29.837  43.075  53.888  1.00  0.00     0.040 A 
HETATM   31  N   UNL     1      27.288  45.603  53.855  1.00  0.00    -0.221 NA
HETATM   32  C   UNL     1      29.138  45.300  55.539  1.00  0.00     0.034 A 
HETATM   33  C   UNL     1      30.234  44.481  55.848  1.00  0.00     0.002 A 
HETATM   34  C   UNL     1      30.573  43.390  55.038  1.00  0.00     0.003 A 
ENDBRANCH  22  26
BRANCH  23  35
HETATM   35  O   UNL     1      25.514  42.706  51.651  1.00  0.00    -0.360 OA
HETATM   36  H   UNL     1      26.462  42.516  51.475  1.00  0.00     0.217 HD
ENDBRANCH  23  35
ENDBRANCH   1  20
TORSDOF 10
ENDMDL
MODEL 4
REMARK VINA RESULT:      -8.7      4.427     11.103
REMARK  10 active torsions:
REMARK  status: ('A' for Active; 'I' for Inactive)
REMARK    1  A    between atoms: C_2  and  C_3 
REMARK    2  A    between atoms: C_3  and  C_4 
REMARK    3  A    between atoms: C_4  and  O_5 
REMARK    4  A    between atoms: O_5  and  C_6 
REMARK    5  A    between atoms: C_9  and  C_10 
REMARK       I    between atoms: C_10  and  N_11 
REMARK    6  A    between atoms: N_11  and  C_12 
REMARK    7  A    between atoms: C_12  and  N_13 
REMARK    8  A    between atoms: N_13  and  C_14 
REMARK    9  A    between atoms: C_16  and  C_17 
REMARK   10  A    between atoms: C_26  and  O_27 
ROOT
HETATM    1  N   UNL     1      23.398  47.325  48.861  1.00  0.00    -0.337 N 
HETATM    2  H   UNL     1      24.138  47.745  48.306  1.00  0.00     0.168 HD
ENDROOT
BRANCH   1   3
HETATM    3  C   UNL     1      22.182  47.975  48.777  1.00  0.00     0.157 C 
HETATM    4  S   UNL     1      21.189  47.651  47.475  1.00  0.00    -0.047 SA
BRANCH   3   5
HETATM    5  N   UNL     1      21.966  48.921  49.764  1.00  0.00    -0.201 NA
HETATM    6  C   UNL     1      21.941  50.296  49.624  1.00  0.00     0.237 C 
HETATM    7  O   UNL     1      22.914  50.988  49.904  1.00  0.00    -0.274 OA
HETATM    8  H   UNL     1      22.634  48.707  50.497  1.00  0.00     0.139 HD
BRANCH   6   9
HETATM    9  C   UNL     1      20.589  50.893  49.483  1.00  0.00     0.026 A 
HETATM   10  C   UNL     1      20.291  51.889  48.547  1.00  0.00     0.019 A 
HETATM   11  C   UNL     1      18.972  52.321  48.391  1.00  0.00     0.038 A 
HETATM   12  C   UNL     1      17.957  51.731  49.141  1.00  0.00     0.068 A 
HETATM   13  C   UNL     1      18.245  50.766  50.102  1.00  0.00     0.038 A 
HETATM   14  C   UNL     1      19.565  50.349  50.276  1.00  0.00     0.019 A 
BRANCH  12  15
HETATM   15  O   UNL     1      16.670  52.142  48.932  1.00  0.00    -0.351 OA
BRANCH  15  16
HETATM   16  C   UNL     1      16.192  52.918  50.042  1.00  0.00     0.175 C 
BRANCH  16  17
HETATM   17  C   UNL     1      14.671  52.818  50.074  1.00  0.00     0.026 C 
BRANCH  17  18
HETATM   18  C   UNL     1      14.013  54.195  50.117  1.00  0.00    -0.002 C 
HETATM   19  C   UNL     1      15.047  55.307  50.042  1.00  0.00     0.005 C 
ENDBRANCH  17  18
ENDBRANCH  16  17
ENDBRANCH  15  16
ENDBRANCH  12  15
ENDBRANCH   6   9
ENDBRANCH   3   5
ENDBRANCH   1   3
BRANCH   1  20
HETATM   20  C   UNL     1      23.725  46.160  49.591  1.00  0.00     0.035 A 
HETATM   21  C   UNL     1      24.761  46.233  50.532  1.00  0.00     0.048 A 
HETATM   22  C   UNL     1      25.095  45.119  51.324  1.00  0.00     0.052 A 
HETATM   23  C   UNL     1      24.397  43.917  51.114  1.00  0.00     0.080 A 
HETATM   24  C   UNL     1      23.408  43.821  50.143  1.00  0.00     0.040 A 
HETATM   25  C   UNL     1      23.074  44.939  49.384  1.00  0.00     0.032 A 
BRANCH  22  26
HETATM   26  C   UNL     1      26.114  45.190  52.367  1.00  0.00     0.183 A 
HETATM   27  O   UNL     1      26.147  46.310  53.157  1.00  0.00    -0.289 OA
HETATM   28  C   UNL     1      27.176  46.065  54.022  1.00  0.00     0.106 A 
HETATM   29  C   UNL     1      27.703  44.821  53.716  1.00  0.00     0.093 A 
HETATM   30  C   UNL     1      27.640  46.888  55.042  1.00  0.00     0.040 A 
HETATM   31  N   UNL     1      27.027  44.276  52.656  1.00  0.00    -0.221 NA
HETATM   32  C   UNL     1      28.773  44.327  54.472  1.00  0.00     0.034 A 
HETATM   33  C   UNL     1      29.269  45.127  55.513  1.00  0.00     0.002 A 
HETATM   34  C   UNL     1      28.713  46.382  55.789  1.00  0.00     0.003 A 
ENDBRANCH  22  26
BRANCH  23  35
HETATM   35  O   UNL     1      24.635  42.773  51.833  1.00  0.00    -0.360 OA
HETATM   36  H   UNL     1      23.807  42.511  52.289  1.00  0.00     0.217 HD
ENDBRANCH  23  35
ENDBRANCH   1  20
TORSDOF 10
ENDMDL
MODEL 5
REMARK VINA RESULT:      -8.6      2.543      3.812
REMARK  10 active torsions:
REMARK  status: ('A' for Active; 'I' for Inactive)
REMARK    1  A    between atoms: C_2  and  C_3 
REMARK    2  A    between atoms: C_3  and  C_4 
REMARK    3  A    between atoms: C_4  and  O_5 
REMARK    4  A    between atoms: O_5  and  C_6 
REMARK    5  A    between atoms: C_9  and  C_10 
REMARK       I    between atoms: C_10  and  N_11 
REMARK    6  A    between atoms: N_11  and  C_12 
REMARK    7  A    between atoms: C_12  and  N_13 
REMARK    8  A    between atoms: N_13  and  C_14 
REMARK    9  A    between atoms: C_16  and  C_17 
REMARK   10  A    between atoms: C_26  and  O_27 
ROOT
HETATM    1  N   UNL     1      26.287  46.082  50.504  1.00  0.00    -0.337 N 
HETATM    2  H   UNL     1      26.596  45.263  49.991  1.00  0.00     0.168 HD
ENDROOT
BRANCH   1   3
HETATM    3  C   UNL     1      26.139  45.883  51.863  1.00  0.00     0.157 C 
HETATM    4  S   UNL     1      25.778  47.195  52.830  1.00  0.00    -0.047 SA
BRANCH   3   5
HETATM    5  N   UNL     1      26.411  44.594  52.289  1.00  0.00    -0.201 NA
HETATM    6  C   UNL     1      27.535  43.835  52.019  1.00  0.00     0.237 C 
HETATM    7  O   UNL     1      27.540  42.985  51.136  1.00  0.00    -0.274 OA
HETATM    8  H   UNL     1      25.605  44.042  52.016  1.00  0.00     0.139 HD
BRANCH   6   9
HETATM    9  C   UNL     1      28.575  43.848  53.079  1.00  0.00     0.026 A 
HETATM   10  C   UNL     1      28.484  44.648  54.223  1.00  0.00     0.019 A 
HETATM   11  C   UNL     1      29.441  44.523  55.233  1.00  0.00     0.038 A 
HETATM   12  C   UNL     1      30.456  43.576  55.112  1.00  0.00     0.068 A 
HETATM   13  C   UNL     1      30.579  42.801  53.961  1.00  0.00     0.038 A 
HETATM   14  C   UNL     1      29.638  42.940  52.942  1.00  0.00     0.019 A 
BRANCH  12  15
HETATM   15  O   UNL     1      31.350  43.445  56.137  1.00  0.00    -0.351 OA
BRANCH  15  16
HETATM   16  C   UNL     1      30.717  43.683  57.404  1.00  0.00     0.175 C 
BRANCH  16  17
HETATM   17  C   UNL     1      31.526  44.739  58.150  1.00  0.00     0.026 C 
BRANCH  17  18
HETATM   18  C   UNL     1      30.795  46.077  58.208  1.00  0.00    -0.002 C 
HETATM   19  C   UNL     1      29.287  45.885  58.237  1.00  0.00     0.005 C 
ENDBRANCH  17  18
ENDBRANCH  16  17
ENDBRANCH  15  16
ENDBRANCH  12  15
ENDBRANCH   6   9
ENDBRANCH   3   5
ENDBRANCH   1   3
BRANCH   1  20
HETATM   20  C   UNL     1      26.087  47.268  49.762  1.00  0.00     0.035 A 
HETATM   21  C   UNL     1      24.776  47.628  49.423  1.00  0.00     0.048 A 
HETATM   22  C   UNL     1      24.513  48.825  48.731  1.00  0.00     0.052 A 
HETATM   23  C   UNL     1      25.602  49.625  48.343  1.00  0.00     0.080 A 
HETATM   24  C   UNL     1      26.908  49.245  48.624  1.00  0.00     0.040 A 
HETATM   25  C   UNL     1      27.149  48.070  49.330  1.00  0.00     0.032 A 
BRANCH  22  26
HETATM   26  C   UNL     1      23.151  49.264  48.437  1.00  0.00     0.183 A 
HETATM   27  O   UNL     1      22.734  50.459  48.964  1.00  0.00    -0.289 OA
HETATM   28  C   UNL     1      21.455  50.587  48.502  1.00  0.00     0.106 A 
HETATM   29  C   UNL     1      21.170  49.478  47.723  1.00  0.00     0.093 A 
HETATM   30  C   UNL     1      20.568  51.631  48.741  1.00  0.00     0.040 A 
HETATM   31  N   UNL     1      22.252  48.637  47.696  1.00  0.00    -0.221 NA
HETATM   32  C   UNL     1      19.911  49.372  47.118  1.00  0.00     0.034 A 
HETATM   33  C   UNL     1      18.988  50.406  47.334  1.00  0.00     0.002 A 
HETATM   34  C   UNL     1      19.312  51.511  48.131  1.00  0.00     0.003 A 
ENDBRANCH  22  26
BRANCH  23  35
HETATM   35  O   UNL     1      25.461  50.812  47.670  1.00  0.00    -0.360 OA
HETATM   36  H   UNL     1      25.321  51.530  48.326  1.00  0.00     0.217 HD
ENDBRANCH  23  35
ENDBRANCH   1  20
TORSDOF 10
ENDMDL
MODEL 6
REMARK VINA RESULT:      -8.6      3.809     10.785
REMARK  10 active torsions:
REMARK  status: ('A' for Active; 'I' for Inactive)
REMARK    1  A    between atoms: C_2  and  C_3 
REMARK    2  A    between atoms: C_3  and  C_4 
REMARK    3  A    between atoms: C_4  and  O_5 
REMARK    4  A    between atoms: O_5  and  C_6 
REMARK    5  A    between atoms: C_9  and  C_10 
REMARK       I    between atoms: C_10  and  N_11 
REMARK    6  A    between atoms: N_11  and  C_12 
REMARK    7  A    between atoms: C_12  and  N_13 
REMARK    8  A    between atoms: N_13  and  C_14 
REMARK    9  A    between atoms: C_16  and  C_17 
REMARK   10  A    between atoms: C_26  and  O_27 
ROOT
HETATM    1  N   UNL     1      23.340  47.576  48.522  1.00  0.00    -0.337 N 
HETATM    2  H   UNL     1      23.038  47.428  47.564  1.00  0.00     0.168 HD
ENDROOT
BRANCH   1   3
HETATM    3  C   UNL     1      23.423  48.902  48.896  1.00  0.00     0.157 C 
HETATM    4  S   UNL     1      24.751  49.790  48.411  1.00  0.00    -0.047 SA
BRANCH   3   5
HETATM    5  N   UNL     1      22.411  49.328  49.739  1.00  0.00    -0.201 NA
HETATM    6  C   UNL     1      21.935  50.615  49.904  1.00  0.00     0.237 C 
HETATM    7  O   UNL     1      22.297  51.320  50.839  1.00  0.00    -0.274 OA
HETATM    8  H   UNL     1      22.659  48.981  50.659  1.00  0.00     0.139 HD
BRANCH   6   9
HETATM    9  C   UNL     1      20.713  50.942  49.124  1.00  0.00     0.026 A 
HETATM   10  C   UNL     1      20.511  50.505  47.811  1.00  0.00     0.019 A 
HETATM   11  C   UNL     1      19.290  50.752  47.179  1.00  0.00     0.038 A 
HETATM   12  C   UNL     1      18.268  51.397  47.874  1.00  0.00     0.068 A 
HETATM   13  C   UNL     1      18.471  51.869  49.168  1.00  0.00     0.038 A 
HETATM   14  C   UNL     1      19.698  51.644  49.793  1.00  0.00     0.019 A 
BRANCH  12  15
HETATM   15  O   UNL     1      17.069  51.582  47.245  1.00  0.00    -0.351 OA
BRANCH  15  16
HETATM   16  C   UNL     1      16.582  50.349  46.694  1.00  0.00     0.175 C 
BRANCH  16  17
HETATM   17  C   UNL     1      15.628  49.719  47.704  1.00  0.00     0.026 C 
BRANCH  17  18
HETATM   18  C   UNL     1      15.939  48.243  47.933  1.00  0.00    -0.002 C 
HETATM   19  C   UNL     1      17.163  48.063  48.816  1.00  0.00     0.005 C 
ENDBRANCH  17  18
ENDBRANCH  16  17
ENDBRANCH  15  16
ENDBRANCH  12  15
ENDBRANCH   6   9
ENDBRANCH   3   5
ENDBRANCH   1   3
BRANCH   1  20
HETATM   20  C   UNL     1      23.595  46.424  49.300  1.00  0.00     0.035 A 
HETATM   21  C   UNL     1      24.586  46.495  50.289  1.00  0.00     0.048 A 
HETATM   22  C   UNL     1      24.846  45.396  51.129  1.00  0.00     0.052 A 
HETATM   23  C   UNL     1      24.123  44.209  50.919  1.00  0.00     0.080 A 
HETATM   24  C   UNL     1      23.180  44.113  49.903  1.00  0.00     0.040 A 
HETATM   25  C   UNL     1      22.918  45.217  49.097  1.00  0.00     0.032 A 
BRANCH  22  26
HETATM   26  C   UNL     1      25.816  45.469  52.218  1.00  0.00     0.183 A 
HETATM   27  O   UNL     1      25.865  46.623  52.958  1.00  0.00    -0.289 OA
HETATM   28  C   UNL     1      26.837  46.371  53.884  1.00  0.00     0.106 A 
HETATM   29  C   UNL     1      27.317  45.091  53.662  1.00  0.00     0.093 A 
HETATM   30  C   UNL     1      27.290  47.218  54.889  1.00  0.00     0.040 A 
HETATM   31  N   UNL     1      26.667  44.529  52.595  1.00  0.00    -0.221 NA
HETATM   32  C   UNL     1      28.323  44.584  54.493  1.00  0.00     0.034 A 
HETATM   33  C   UNL     1      28.806  45.408  55.521  1.00  0.00     0.002 A 
HETATM   34  C   UNL     1      28.299  46.700  55.712  1.00  0.00     0.003 A 
ENDBRANCH  22  26
BRANCH  23  35
HETATM   35  O   UNL     1      24.291  43.081  51.681  1.00  0.00    -0.360 OA
HETATM   36  H   UNL     1      25.014  42.544  51.291  1.00  0.00     0.217 HD
ENDBRANCH  23  35
ENDBRANCH   1  20
TORSDOF 10
ENDMDL
MODEL 7
REMARK VINA RESULT:      -8.5      1.895      2.829
REMARK  10 active torsions:
REMARK  status: ('A' for Active; 'I' for Inactive)
REMARK    1  A    between atoms: C_2  and  C_3 
REMARK    2  A    between atoms: C_3  and  C_4 
REMARK    3  A    between atoms: C_4  and  O_5 
REMARK    4  A    between atoms: O_5  and  C_6 
REMARK    5  A    between atoms: C_9  and  C_10 
REMARK       I    between atoms: C_10  and  N_11 
REMARK    6  A    between atoms: N_11  and  C_12 
REMARK    7  A    between atoms: C_12  and  N_13 
REMARK    8  A    between atoms: N_13  and  C_14 
REMARK    9  A    between atoms: C_16  and  C_17 
REMARK   10  A    between atoms: C_26  and  O_27 
ROOT
HETATM    1  N   UNL     1      26.789  43.076  50.032  1.00  0.00    -0.337 N 
HETATM    2  H   UNL     1      27.476  43.821  50.080  1.00  0.00     0.168 HD
ENDROOT
BRANCH   1   3
HETATM    3  C   UNL     1      27.323  41.803  50.064  1.00  0.00     0.157 C 
HETATM    4  S   UNL     1      27.656  41.037  48.619  1.00  0.00    -0.047 SA
BRANCH   3   5
HETATM    5  N   UNL     1      27.432  41.257  51.331  1.00  0.00    -0.201 NA
HETATM    6  C   UNL     1      28.580  41.102  52.088  1.00  0.00     0.237 C 
HETATM    7  O   UNL     1      29.174  40.032  52.144  1.00  0.00    -0.274 OA
HETATM    8  H   UNL     1      26.988  40.346  51.275  1.00  0.00     0.139 HD
BRANCH   6   9
HETATM    9  C   UNL     1      28.821  42.169  53.094  1.00  0.00     0.026 A 
HETATM   10  C   UNL     1      30.102  42.595  53.457  1.00  0.00     0.019 A 
HETATM   11  C   UNL     1      30.252  43.681  54.322  1.00  0.00     0.038 A 
HETATM   12  C   UNL     1      29.126  44.356  54.787  1.00  0.00     0.068 A 
HETATM   13  C   UNL     1      27.844  43.919  54.462  1.00  0.00     0.038 A 
HETATM   14  C   UNL     1      27.692  42.820  53.617  1.00  0.00     0.019 A 
BRANCH  12  15
HETATM   15  O   UNL     1      29.306  45.444  55.595  1.00  0.00    -0.351 OA
BRANCH  15  16
HETATM   16  C   UNL     1      28.055  46.091  55.872  1.00  0.00     0.175 C 
BRANCH  16  17
HETATM   17  C   UNL     1      27.949  47.326  54.983  1.00  0.00     0.026 C 
BRANCH  17  18
HETATM   18  C   UNL     1      26.502  47.628  54.603  1.00  0.00    -0.002 C 
HETATM   19  C   UNL     1      26.147  47.033  53.250  1.00  0.00     0.005 C 
ENDBRANCH  17  18
ENDBRANCH  16  17
ENDBRANCH  15  16
ENDBRANCH  12  15
ENDBRANCH   6   9
ENDBRANCH   3   5
ENDBRANCH   1   3
BRANCH   1  20
HETATM   20  C   UNL     1      25.429  43.459  49.964  1.00  0.00     0.035 A 
HETATM   21  C   UNL     1      25.129  44.804  49.714  1.00  0.00     0.048 A 
HETATM   22  C   UNL     1      23.795  45.233  49.584  1.00  0.00     0.052 A 
HETATM   23  C   UNL     1      22.770  44.288  49.761  1.00  0.00     0.080 A 
HETATM   24  C   UNL     1      23.059  42.964  50.067  1.00  0.00     0.040 A 
HETATM   25  C   UNL     1      24.384  42.552  50.169  1.00  0.00     0.032 A 
BRANCH  22  26
HETATM   26  C   UNL     1      23.456  46.612  49.243  1.00  0.00     0.183 A 
HETATM   27  O   UNL     1      22.335  46.829  48.485  1.00  0.00    -0.289 OA
HETATM   28  C   UNL     1      22.289  48.189  48.358  1.00  0.00     0.106 A 
HETATM   29  C   UNL     1      23.371  48.718  49.043  1.00  0.00     0.093 A 
HETATM   30  C   UNL     1      21.341  48.945  47.678  1.00  0.00     0.040 A 
HETATM   31  N   UNL     1      24.112  47.706  49.595  1.00  0.00    -0.221 NA
HETATM   32  C   UNL     1      23.546  50.107  49.075  1.00  0.00     0.034 A 
HETATM   33  C   UNL     1      22.610  50.905  48.402  1.00  0.00     0.002 A 
HETATM   34  C   UNL     1      21.531  50.333  47.716  1.00  0.00     0.003 A 
ENDBRANCH  22  26
BRANCH  23  35
HETATM   35  O   UNL     1      21.437  44.594  49.651  1.00  0.00    -0.360 OA
HETATM   36  H   UNL     1      20.955  44.169  50.394  1.00  0.00     0.217 HD
ENDBRANCH  23  35
ENDBRANCH   1  20
TORSDOF 10
ENDMDL
MODEL 8
REMARK VINA RESULT:      -8.5     12.383     14.846
REMARK  10 active torsions:
REMARK  status: ('A' for Active; 'I' for Inactive)
REMARK    1  A    between atoms: C_2  and  C_3 
REMARK    2  A    between atoms: C_3  and  C_4 
REMARK    3  A    between atoms: C_4  and  O_5 
REMARK    4  A    between atoms: O_5  and  C_6 
REMARK    5  A    between atoms: C_9  and  C_10 
REMARK       I    between atoms: C_10  and  N_11 
REMARK    6  A    between atoms: N_11  and  C_12 
REMARK    7  A    between atoms: C_12  and  N_13 
REMARK    8  A    between atoms: N_13  and  C_14 
REMARK    9  A    between atoms: C_16  and  C_17 
REMARK   10  A    between atoms: C_26  and  O_27 
ROOT
HETATM    1  N   UNL     1      28.890  50.069  38.333  1.00  0.00    -0.337 N 
HETATM    2  H   UNL     1      29.242  49.858  37.404  1.00  0.00     0.168 HD
ENDROOT
BRANCH   1   3
HETATM    3  C   UNL     1      27.866  49.245  38.757  1.00  0.00     0.157 C 
HETATM    4  S   UNL     1      26.497  49.117  37.811  1.00  0.00    -0.047 SA
BRANCH   3   5
HETATM    5  N   UNL     1      28.062  48.679  40.005  1.00  0.00    -0.201 NA
HETATM    6  C   UNL     1      29.005  47.733  40.364  1.00  0.00     0.237 C 
HETATM    7  O   UNL     1      28.722  46.543  40.446  1.00  0.00    -0.274 OA
HETATM    8  H   UNL     1      27.156  48.319  40.286  1.00  0.00     0.139 HD
BRANCH   6   9
HETATM    9  C   UNL     1      30.236  48.276  40.993  1.00  0.00     0.026 A 
HETATM   10  C   UNL     1      31.522  47.928  40.568  1.00  0.00     0.019 A 
HETATM   11  C   UNL     1      32.633  48.565  41.128  1.00  0.00     0.038 A 
HETATM   12  C   UNL     1      32.450  49.569  42.076  1.00  0.00     0.068 A 
HETATM   13  C   UNL     1      31.176  49.898  42.534  1.00  0.00     0.038 A 
HETATM   14  C   UNL     1      30.068  49.247  41.993  1.00  0.00     0.019 A 
BRANCH  12  15
HETATM   15  O   UNL     1      33.553  50.207  42.571  1.00  0.00    -0.351 OA
BRANCH  15  16
HETATM   16  C   UNL     1      33.179  51.372  43.322  1.00  0.00     0.175 C 
BRANCH  16  17
HETATM   17  C   UNL     1      34.449  52.005  43.883  1.00  0.00     0.026 C 
BRANCH  17  18
HETATM   18  C   UNL     1      35.672  51.669  43.034  1.00  0.00    -0.002 C 
HETATM   19  C   UNL     1      36.606  52.861  42.910  1.00  0.00     0.005 C 
ENDBRANCH  17  18
ENDBRANCH  16  17
ENDBRANCH  15  16
ENDBRANCH  12  15
ENDBRANCH   6   9
ENDBRANCH   3   5
ENDBRANCH   1   3
BRANCH   1  20
HETATM   20  C   UNL     1      29.510  51.132  39.028  1.00  0.00     0.035 A 
HETATM   21  C   UNL     1      30.908  51.219  39.001  1.00  0.00     0.048 A 
HETATM   22  C   UNL     1      31.577  52.286  39.631  1.00  0.00     0.052 A 
HETATM   23  C   UNL     1      30.810  53.234  40.331  1.00  0.00     0.080 A 
HETATM   24  C   UNL     1      29.427  53.121  40.410  1.00  0.00     0.040 A 
HETATM   25  C   UNL     1      28.780  52.074  39.762  1.00  0.00     0.032 A 
BRANCH  22  26
HETATM   26  C   UNL     1      33.026  52.445  39.550  1.00  0.00     0.183 A 
HETATM   27  O   UNL     1      33.789  51.317  39.398  1.00  0.00    -0.289 OA
HETATM   28  C   UNL     1      35.067  51.796  39.340  1.00  0.00     0.106 A 
HETATM   29  C   UNL     1      35.011  53.175  39.454  1.00  0.00     0.093 A 
HETATM   30  C   UNL     1      36.240  51.066  39.189  1.00  0.00     0.040 A 
HETATM   31  N   UNL     1      33.708  53.578  39.596  1.00  0.00    -0.221 NA
HETATM   32  C   UNL     1      36.199  53.914  39.413  1.00  0.00     0.034 A 
HETATM   33  C   UNL     1      37.405  53.214  39.259  1.00  0.00     0.002 A 
HETATM   34  C   UNL     1      37.422  51.817  39.152  1.00  0.00     0.003 A 
ENDBRANCH  22  26
BRANCH  23  35
HETATM   35  O   UNL     1      31.356  54.315  40.975  1.00  0.00    -0.360 OA
HETATM   36  H   UNL     1      31.174  55.121  40.445  1.00  0.00     0.217 HD
ENDBRANCH  23  35
ENDBRANCH   1  20
TORSDOF 10
ENDMDL
MODEL 9
REMARK VINA RESULT:      -8.3      2.379      7.102
REMARK  10 active torsions:
REMARK  status: ('A' for Active; 'I' for Inactive)
REMARK    1  A    between atoms: C_2  and  C_3 
REMARK    2  A    between atoms: C_3  and  C_4 
REMARK    3  A    between atoms: C_4  and  O_5 
REMARK    4  A    between atoms: O_5  and  C_6 
REMARK    5  A    between atoms: C_9  and  C_10 
REMARK       I    between atoms: C_10  and  N_11 
REMARK    6  A    between atoms: N_11  and  C_12 
REMARK    7  A    between atoms: C_12  and  N_13 
REMARK    8  A    between atoms: N_13  and  C_14 
REMARK    9  A    between atoms: C_16  and  C_17 
REMARK   10  A    between atoms: C_26  and  O_27 
ROOT
HETATM    1  N   UNL     1      26.009  42.284  48.139  1.00  0.00    -0.337 N 
HETATM    2  H   UNL     1      26.468  42.911  47.485  1.00  0.00     0.168 HD
ENDROOT
BRANCH   1   3
HETATM    3  C   UNL     1      24.645  42.167  47.958  1.00  0.00     0.157 C 
HETATM    4  S   UNL     1      24.003  40.656  47.658  1.00  0.00    -0.047 SA
BRANCH   3   5
HETATM    5  N   UNL     1      23.960  43.370  47.950  1.00  0.00    -0.201 NA
HETATM    6  C   UNL     1      23.123  43.872  48.930  1.00  0.00     0.237 C 
HETATM    7  O   UNL     1      21.904  43.776  48.845  1.00  0.00    -0.274 OA
HETATM    8  H   UNL     1      23.440  43.382  47.079  1.00  0.00     0.139 HD
BRANCH   6   9
HETATM    9  C   UNL     1      23.755  44.835  49.868  1.00  0.00     0.026 A 
HETATM   10  C   UNL     1      24.338  44.445  51.078  1.00  0.00     0.019 A 
HETATM   11  C   UNL     1      25.016  45.387  51.855  1.00  0.00     0.038 A 
HETATM   12  C   UNL     1      25.140  46.699  51.402  1.00  0.00     0.068 A 
HETATM   13  C   UNL     1      24.532  47.107  50.217  1.00  0.00     0.038 A 
HETATM   14  C   UNL     1      23.835  46.173  49.451  1.00  0.00     0.019 A 
BRANCH  12  15
HETATM   15  O   UNL     1      25.849  47.586  52.162  1.00  0.00    -0.351 OA
BRANCH  15  16
HETATM   16  C   UNL     1      25.766  47.251  53.555  1.00  0.00     0.175 C 
BRANCH  16  17
HETATM   17  C   UNL     1      27.117  47.547  54.198  1.00  0.00     0.026 C 
BRANCH  17  18
HETATM   18  C   UNL     1      26.984  47.830  55.692  1.00  0.00    -0.002 C 
HETATM   19  C   UNL     1      26.087  49.029  55.952  1.00  0.00     0.005 C 
ENDBRANCH  17  18
ENDBRANCH  16  17
ENDBRANCH  15  16
ENDBRANCH  12  15
ENDBRANCH   6   9
ENDBRANCH   3   5
ENDBRANCH   1   3
BRANCH   1  20
HETATM   20  C   UNL     1      26.830  41.634  49.088  1.00  0.00     0.035 A 
HETATM   21  C   UNL     1      27.305  42.378  50.177  1.00  0.00     0.048 A 
HETATM   22  C   UNL     1      28.083  41.770  51.181  1.00  0.00     0.052 A 
HETATM   23  C   UNL     1      28.412  40.411  51.039  1.00  0.00     0.080 A 
HETATM   24  C   UNL     1      27.993  39.682  49.933  1.00  0.00     0.040 A 
HETATM   25  C   UNL     1      27.205  40.293  48.961  1.00  0.00     0.032 A 
BRANCH  22  26
HETATM   26  C   UNL     1      28.523  42.501  52.366  1.00  0.00     0.183 A 
HETATM   27  O   UNL     1      29.743  42.181  52.901  1.00  0.00    -0.289 OA
HETATM   28  C   UNL     1      29.864  43.033  53.962  1.00  0.00     0.106 A 
HETATM   29  C   UNL     1      28.725  43.820  54.010  1.00  0.00     0.093 A 
HETATM   30  C   UNL     1      30.925  43.130  54.855  1.00  0.00     0.040 A 
HETATM   31  N   UNL     1      27.873  43.468  52.995  1.00  0.00    -0.221 NA
HETATM   32  C   UNL     1      28.606  44.792  55.010  1.00  0.00     0.034 A 
HETATM   33  C   UNL     1      29.657  44.923  55.930  1.00  0.00     0.002 A 
HETATM   34  C   UNL     1      30.792  44.105  55.853  1.00  0.00     0.003 A 
ENDBRANCH  22  26
BRANCH  23  35
HETATM   35  O   UNL     1      29.158  39.718  51.958  1.00  0.00    -0.360 OA
HETATM   36  H   UNL     1      29.515  38.911  51.528  1.00  0.00     0.217 HD
ENDBRANCH  23  35
ENDBRANCH   1  20
TORSDOF 10
ENDMDL
MODEL 10
REMARK VINA RESULT:      -8.2      2.635      9.158
REMARK  10 active torsions:
REMARK  status: ('A' for Active; 'I' for Inactive)
REMARK    1  A    between atoms: C_2  and  C_3 
REMARK    2  A    between atoms: C_3  and  C_4 
REMARK    3  A    between atoms: C_4  and  O_5 
REMARK    4  A    between atoms: O_5  and  C_6 
REMARK    5  A    between atoms: C_9  and  C_10 
REMARK       I    between atoms: C_10  and  N_11 
REMARK    6  A    between atoms: N_11  and  C_12 
REMARK    7  A    between atoms: C_12  and  N_13 
REMARK    8  A    between atoms: N_13  and  C_14 
REMARK    9  A    between atoms: C_16  and  C_17 
REMARK   10  A    between atoms: C_26  and  O_27 
ROOT
HETATM    1  N   UNL     1      24.983  43.943  51.315  1.00  0.00    -0.337 N 
HETATM    2  H   UNL     1      24.117  43.528  51.645  1.00  0.00     0.168 HD
ENDROOT
BRANCH   1   3
HETATM    3  C   UNL     1      25.411  43.475  50.089  1.00  0.00     0.157 C 
HETATM    4  S   UNL     1      26.973  42.904  49.950  1.00  0.00    -0.047 SA
BRANCH   3   5
HETATM    5  N   UNL     1      24.495  43.629  49.062  1.00  0.00    -0.201 NA
HETATM    6  C   UNL     1      23.140  43.881  49.170  1.00  0.00     0.237 C 
HETATM    7  O   UNL     1      22.309  42.985  49.075  1.00  0.00    -0.274 OA
HETATM    8  H   UNL     1      24.599  42.805  48.479  1.00  0.00     0.139 HD
BRANCH   6   9
HETATM    9  C   UNL     1      22.750  45.308  49.031  1.00  0.00     0.026 A 
HETATM   10  C   UNL     1      23.662  46.361  49.164  1.00  0.00     0.019 A 
HETATM   11  C   UNL     1      23.250  47.670  48.906  1.00  0.00     0.038 A 
HETATM   12  C   UNL     1      21.946  47.915  48.481  1.00  0.00     0.068 A 
HETATM   13  C   UNL     1      21.020  46.880  48.381  1.00  0.00     0.038 A 
HETATM   14  C   UNL     1      21.423  45.574  48.661  1.00  0.00     0.019 A 
BRANCH  12  15
HETATM   15  O   UNL     1      21.586  49.201  48.191  1.00  0.00    -0.351 OA
BRANCH  15  16
HETATM   16  C   UNL     1      20.490  49.626  49.016  1.00  0.00     0.175 C 
BRANCH  16  17
HETATM   17  C   UNL     1      20.660  51.114  49.306  1.00  0.00     0.026 C 
BRANCH  17  18
HETATM   18  C   UNL     1      19.609  51.955  48.589  1.00  0.00    -0.002 C 
HETATM   19  C   UNL     1      18.440  52.282  49.504  1.00  0.00     0.005 C 
ENDBRANCH  17  18
ENDBRANCH  16  17
ENDBRANCH  15  16
ENDBRANCH  12  15
ENDBRANCH   6   9
ENDBRANCH   3   5
ENDBRANCH   1   3
BRANCH   1  20
HETATM   20  C   UNL     1      25.578  44.926  52.138  1.00  0.00     0.035 A 
HETATM   21  C   UNL     1      26.577  44.526  53.037  1.00  0.00     0.048 A 
HETATM   22  C   UNL     1      27.241  45.469  53.843  1.00  0.00     0.052 A 
HETATM   23  C   UNL     1      26.843  46.815  53.762  1.00  0.00     0.080 A 
HETATM   24  C   UNL     1      25.815  47.209  52.916  1.00  0.00     0.040 A 
HETATM   25  C   UNL     1      25.184  46.268  52.108  1.00  0.00     0.032 A 
BRANCH  22  26
HETATM   26  C   UNL     1      28.339  45.091  54.728  1.00  0.00     0.183 A 
HETATM   27  O   UNL     1      28.482  45.779  55.905  1.00  0.00    -0.289 OA
HETATM   28  C   UNL     1      29.563  45.189  56.496  1.00  0.00     0.106 A 
HETATM   29  C   UNL     1      30.011  44.182  55.657  1.00  0.00     0.093 A 
HETATM   30  C   UNL     1      30.138  45.507  57.721  1.00  0.00     0.040 A 
HETATM   31  N   UNL     1      29.231  44.134  54.531  1.00  0.00    -0.221 NA
HETATM   32  C   UNL     1      31.113  43.410  56.043  1.00  0.00     0.034 A 
HETATM   33  C   UNL     1      31.722  43.699  57.273  1.00  0.00     0.002 A 
HETATM   34  C   UNL     1      31.243  44.729  58.093  1.00  0.00     0.003 A 
ENDBRANCH  22  26
BRANCH  23  35
HETATM   35  O   UNL     1      27.425  47.816  54.497  1.00  0.00    -0.360 OA
HETATM   36  H   UNL     1      27.323  48.663  54.010  1.00  0.00     0.217 HD
ENDBRANCH  23  35
ENDBRANCH   1  20
TORSDOF 10
ENDMDL
