MODEL 1
REMARK VINA RESULT:      -8.3      0.000      0.000
REMARK  4 active torsions:
REMARK  status: ('A' for Active; 'I' for Inactive)
REMARK    1  A    between atoms: C_9  and  N_10 
REMARK    2  A    between atoms: N_10  and  C_12 
REMARK    3  A    between atoms: C_12  and  C_13 
REMARK    4  A    between atoms: C_14  and  C_15 
ROOT
HETATM    1  C   UNL     1      25.512  48.280  49.657  1.00  0.00     0.016 A 
HETATM    2  C   UNL     1      24.989  49.244  48.740  1.00  0.00     0.096 A 
HETATM    3  N   UNL     1      25.968  49.786  48.007  1.00  0.00    -0.174 NA
HETATM    4  N   UNL     1      27.100  49.277  48.504  1.00  0.00    -0.288 N 
HETATM    5  H   UNL     1      27.984  49.599  48.118  1.00  0.00     0.188 HD
HETATM    6  C   UNL     1      26.880  48.342  49.473  1.00  0.00     0.120 A 
ENDROOT
BRANCH   1   7
HETATM    7  C   UNL     1      24.769  47.382  50.582  1.00  0.00     0.277 C 
BRANCH   7   8
HETATM    8  N   UNL     1      25.656  46.518  51.462  1.00  0.00    -0.065 N 
HETATM    9  H   UNL     1      26.546  46.372  50.967  1.00  0.00     0.280 HD
HETATM   10  C   UNL     1      25.943  47.166  52.791  1.00  0.00     0.270 C 
BRANCH   8  11
HETATM   11  C   UNL     1      24.943  45.225  51.718  1.00  0.00     0.205 C 
HETATM   12  C   UNL     1      24.770  44.233  50.512  1.00  0.00     0.008 C 
HETATM   13  C   UNL     1      23.305  44.091  50.078  1.00  0.00     0.020 C 
HETATM   14  C   UNL     1      25.667  44.356  49.278  1.00  0.00     0.020 C 
HETATM   15  C   UNL     1      25.195  43.087  51.484  1.00  0.00     0.137 C 
HETATM   16  C   UNL     1      25.762  44.133  52.464  1.00  0.00     0.049 C 
HETATM   17  O   UNL     1      26.264  42.217  51.063  1.00  0.00    -0.385 OA
HETATM   18  C   UNL     1      27.269  43.899  52.317  1.00  0.00     0.035 C 
HETATM   19  C   UNL     1      27.387  42.429  51.923  1.00  0.00     0.168 C 
ENDBRANCH   8  11
ENDBRANCH   7   8
ENDBRANCH   1   7
BRANCH   2  20
HETATM   20  C   UNL     1      23.597  49.605  48.501  1.00  0.00    -0.002 A 
HETATM   21  C   UNL     1      22.702  48.668  47.978  1.00  0.00     0.053 A 
HETATM   22  C   UNL     1      21.380  49.033  47.724  1.00  0.00     0.103 A 
HETATM   23  C   UNL     1      20.947  50.336  47.978  1.00  0.00     0.102 A 
HETATM   24  O   UNL     1      20.566  48.060  47.208  1.00  0.00    -0.346 OA
HETATM   25  O   UNL     1      19.673  50.769  47.722  1.00  0.00    -0.346 OA
HETATM   26  C   UNL     1      21.824  51.263  48.535  1.00  0.00     0.040 A 
HETATM   27  C   UNL     1      18.942  49.841  46.910  1.00  0.00     0.202 C 
HETATM   28  C   UNL     1      19.183  48.410  47.364  1.00  0.00     0.202 C 
HETATM   29  C   UNL     1      23.146  50.899  48.799  1.00  0.00     0.017 A 
ENDBRANCH   2  20
TORSDOF 4
ENDMDL
MODEL 2
REMARK VINA RESULT:      -8.3      1.631      2.231
REMARK  4 active torsions:
REMARK  status: ('A' for Active; 'I' for Inactive)
REMARK    1  A    between atoms: C_9  and  N_10 
REMARK    2  A    between atoms: N_10  and  C_12 
REMARK    3  A    between atoms: C_12  and  C_13 
REMARK    4  A    between atoms: C_14  and  C_15 
ROOT
HETATM    1  C   UNL     1      25.442  47.803  50.042  1.00  0.00     0.016 A 
HETATM    2  C   UNL     1      24.662  48.696  49.243  1.00  0.00     0.096 A 
HETATM    3  N   UNL     1      25.444  49.419  48.434  1.00  0.00    -0.174 NA
HETATM    4  N   UNL     1      26.695  49.091  48.772  1.00  0.00    -0.288 N 
HETATM    5  H   UNL     1      27.463  49.570  48.306  1.00  0.00     0.188 HD
HETATM    6  C   UNL     1      26.749  48.100  49.708  1.00  0.00     0.120 A 
ENDROOT
BRANCH   1   7
HETATM    7  C   UNL     1      24.972  46.762  50.995  1.00  0.00     0.277 C 
BRANCH   7   8
HETATM    8  N   UNL     1      25.924  46.494  52.148  1.00  0.00    -0.065 N 
HETATM    9  H   UNL     1      26.883  46.653  51.810  1.00  0.00     0.280 HD
HETATM   10  C   UNL     1      25.668  47.406  53.320  1.00  0.00     0.270 C 
BRANCH   8  11
HETATM   11  C   UNL     1      25.721  45.081  52.604  1.00  0.00     0.205 C 
HETATM   12  C   UNL     1      26.354  43.934  51.736  1.00  0.00     0.008 C 
HETATM   13  C   UNL     1      25.292  43.073  51.042  1.00  0.00     0.020 C 
HETATM   14  C   UNL     1      27.490  44.245  50.759  1.00  0.00     0.020 C 
HETATM   15  C   UNL     1      26.837  43.285  53.073  1.00  0.00     0.137 C 
HETATM   16  C   UNL     1      26.598  44.621  53.804  1.00  0.00     0.049 C 
HETATM   17  O   UNL     1      28.232  42.940  53.180  1.00  0.00    -0.385 OA
HETATM   18  C   UNL     1      28.034  45.076  54.079  1.00  0.00     0.035 C 
HETATM   19  C   UNL     1      28.832  43.778  54.173  1.00  0.00     0.168 C 
ENDBRANCH   8  11
ENDBRANCH   7   8
ENDBRANCH   1   7
BRANCH   2  20
HETATM   20  C   UNL     1      23.212  48.827  49.183  1.00  0.00    -0.002 A 
HETATM   21  C   UNL     1      22.588  49.995  49.630  1.00  0.00     0.053 A 
HETATM   22  C   UNL     1      21.197  50.098  49.599  1.00  0.00     0.103 A 
HETATM   23  C   UNL     1      20.421  49.034  49.135  1.00  0.00     0.102 A 
HETATM   24  O   UNL     1      20.661  51.273  50.057  1.00  0.00    -0.346 OA
HETATM   25  O   UNL     1      19.052  49.057  49.107  1.00  0.00    -0.346 OA
HETATM   26  C   UNL     1      21.039  47.882  48.653  1.00  0.00     0.040 A 
HETATM   27  C   UNL     1      18.517  50.149  49.865  1.00  0.00     0.202 C 
HETATM   28  C   UNL     1      19.304  51.426  49.615  1.00  0.00     0.202 C 
HETATM   29  C   UNL     1      22.432  47.779  48.674  1.00  0.00     0.017 A 
ENDBRANCH   2  20
TORSDOF 4
ENDMDL
MODEL 3
REMARK VINA RESULT:      -8.3      1.827      7.486
REMARK  4 active torsions:
REMARK  status: ('A' for Active; 'I' for Inactive)
REMARK    1  A    between atoms: C_9  and  N_10 
REMARK    2  A    between atoms: N_10  and  C_12 
REMARK    3  A    between atoms: C_12  and  C_13 
REMARK    4  A    between atoms: C_14  and  C_15 
ROOT
HETATM    1  C   UNL     1      24.910  48.767  49.099  1.00  0.00     0.016 A 
HETATM    2  C   UNL     1      26.105  48.039  49.390  1.00  0.00     0.096 A 
HETATM    3  N   UNL     1      27.166  48.611  48.809  1.00  0.00    -0.174 NA
HETATM    4  N   UNL     1      26.666  49.610  48.075  1.00  0.00    -0.288 N 
HETATM    5  H   UNL     1      27.306  50.154  47.501  1.00  0.00     0.188 HD
HETATM    6  C   UNL     1      25.321  49.769  48.240  1.00  0.00     0.120 A 
ENDROOT
BRANCH   1   7
HETATM    7  C   UNL     1      23.534  48.537  49.618  1.00  0.00     0.277 C 
BRANCH   7   8
HETATM    8  N   UNL     1      22.571  47.954  48.599  1.00  0.00    -0.065 N 
HETATM    9  H   UNL     1      22.805  48.350  47.679  1.00  0.00     0.280 HD
HETATM   10  C   UNL     1      22.669  46.453  48.518  1.00  0.00     0.270 C 
BRANCH   8  11
HETATM   11  C   UNL     1      21.176  48.307  49.020  1.00  0.00     0.205 C 
HETATM   12  C   UNL     1      20.662  49.758  48.703  1.00  0.00     0.008 C 
HETATM   13  C   UNL     1      20.455  50.594  49.973  1.00  0.00     0.020 C 
HETATM   14  C   UNL     1      21.353  50.604  47.632  1.00  0.00     0.020 C 
HETATM   15  C   UNL     1      19.327  49.105  48.221  1.00  0.00     0.137 C 
HETATM   16  C   UNL     1      20.034  47.737  48.130  1.00  0.00     0.049 C 
HETATM   17  O   UNL     1      18.843  49.466  46.913  1.00  0.00    -0.385 OA
HETATM   18  C   UNL     1      20.106  47.536  46.614  1.00  0.00     0.035 C 
HETATM   19  C   UNL     1      18.909  48.311  46.070  1.00  0.00     0.168 C 
ENDBRANCH   8  11
ENDBRANCH   7   8
ENDBRANCH   1   7
BRANCH   2  20
HETATM   20  C   UNL     1      26.269  46.872  50.248  1.00  0.00    -0.002 A 
HETATM   21  C   UNL     1      25.821  46.899  51.572  1.00  0.00     0.053 A 
HETATM   22  C   UNL     1      26.011  45.788  52.394  1.00  0.00     0.103 A 
HETATM   23  C   UNL     1      26.658  44.651  51.906  1.00  0.00     0.102 A 
HETATM   24  O   UNL     1      25.548  45.893  53.679  1.00  0.00    -0.346 OA
HETATM   25  O   UNL     1      26.905  43.540  52.667  1.00  0.00    -0.346 OA
HETATM   26  C   UNL     1      27.072  44.605  50.576  1.00  0.00     0.040 A 
HETATM   27  C   UNL     1      26.696  43.787  54.063  1.00  0.00     0.202 C 
HETATM   28  C   UNL     1      25.431  44.600  54.291  1.00  0.00     0.202 C 
HETATM   29  C   UNL     1      26.875  45.712  49.747  1.00  0.00     0.017 A 
ENDBRANCH   2  20
TORSDOF 4
ENDMDL
MODEL 4
REMARK VINA RESULT:      -8.1      3.927      6.205
REMARK  4 active torsions:
REMARK  status: ('A' for Active; 'I' for Inactive)
REMARK    1  A    between atoms: C_9  and  N_10 
REMARK    2  A    between atoms: N_10  and  C_12 
REMARK    3  A    between atoms: C_12  and  C_13 
REMARK    4  A    between atoms: C_14  and  C_15 
ROOT
HETATM    1  C   UNL     1      27.221  41.172  50.392  1.00  0.00     0.016 A 
HETATM    2  C   UNL     1      27.004  42.106  49.332  1.00  0.00     0.096 A 
HETATM    3  N   UNL     1      27.642  41.723  48.220  1.00  0.00    -0.174 NA
HETATM    4  N   UNL     1      28.339  40.639  48.573  1.00  0.00    -0.288 N 
HETATM    5  H   UNL     1      28.945  40.207  47.878  1.00  0.00     0.188 HD
HETATM    6  C   UNL     1      28.095  40.246  49.856  1.00  0.00     0.120 A 
ENDROOT
BRANCH   1   7
HETATM    7  C   UNL     1      26.625  41.162  51.756  1.00  0.00     0.277 C 
BRANCH   7   8
HETATM    8  N   UNL     1      27.526  41.735  52.836  1.00  0.00    -0.065 N 
HETATM    9  H   UNL     1      27.177  41.405  53.746  1.00  0.00     0.280 HD
HETATM   10  C   UNL     1      28.956  41.291  52.678  1.00  0.00     0.270 C 
BRANCH   8  11
HETATM   11  C   UNL     1      27.487  43.230  52.732  1.00  0.00     0.205 C 
HETATM   12  C   UNL     1      26.570  44.010  53.743  1.00  0.00     0.008 C 
HETATM   13  C   UNL     1      25.376  44.678  53.050  1.00  0.00     0.020 C 
HETATM   14  C   UNL     1      26.111  43.342  55.040  1.00  0.00     0.020 C 
HETATM   15  C   UNL     1      27.755  45.009  53.938  1.00  0.00     0.137 C 
HETATM   16  C   UNL     1      28.720  43.983  53.310  1.00  0.00     0.049 C 
HETATM   17  O   UNL     1      28.181  45.283  55.287  1.00  0.00    -0.385 OA
HETATM   18  C   UNL     1      29.533  43.547  54.533  1.00  0.00     0.035 C 
HETATM   19  C   UNL     1      29.500  44.758  55.461  1.00  0.00     0.168 C 
ENDBRANCH   8  11
ENDBRANCH   7   8
ENDBRANCH   1   7
BRANCH   2  20
HETATM   20  C   UNL     1      26.166  43.298  49.333  1.00  0.00    -0.002 A 
HETATM   21  C   UNL     1      26.712  44.548  49.639  1.00  0.00     0.053 A 
HETATM   22  C   UNL     1      25.895  45.678  49.668  1.00  0.00     0.103 A 
HETATM   23  C   UNL     1      24.528  45.567  49.405  1.00  0.00     0.102 A 
HETATM   24  O   UNL     1      26.504  46.865  49.981  1.00  0.00    -0.346 OA
HETATM   25  O   UNL     1      23.664  46.629  49.447  1.00  0.00    -0.346 OA
HETATM   26  C   UNL     1      23.985  44.331  49.061  1.00  0.00     0.040 A 
HETATM   27  C   UNL     1      24.255  47.778  50.068  1.00  0.00     0.202 C 
HETATM   28  C   UNL     1      25.686  47.979  49.595  1.00  0.00     0.202 C 
HETATM   29  C   UNL     1      24.802  43.199  49.022  1.00  0.00     0.017 A 
ENDBRANCH   2  20
TORSDOF 4
ENDMDL
MODEL 5
REMARK VINA RESULT:      -8.0      2.908      4.999
REMARK  4 active torsions:
REMARK  status: ('A' for Active; 'I' for Inactive)
REMARK    1  A    between atoms: C_9  and  N_10 
REMARK    2  A    between atoms: N_10  and  C_12 
REMARK    3  A    between atoms: C_12  and  C_13 
REMARK    4  A    between atoms: C_14  and  C_15 
ROOT
HETATM    1  C   UNL     1      26.102  43.413  51.206  1.00  0.00     0.016 A 
HETATM    2  C   UNL     1      26.121  44.187  50.004  1.00  0.00     0.096 A 
HETATM    3  N   UNL     1      26.494  43.439  48.960  1.00  0.00    -0.174 NA
HETATM    4  N   UNL     1      26.815  42.250  49.478  1.00  0.00    -0.288 N 
HETATM    5  H   UNL     1      27.179  41.533  48.854  1.00  0.00     0.188 HD
HETATM    6  C   UNL     1      26.566  42.170  50.817  1.00  0.00     0.120 A 
ENDROOT
BRANCH   1   7
HETATM    7  C   UNL     1      25.658  43.821  52.566  1.00  0.00     0.277 C 
BRANCH   7   8
HETATM    8  N   UNL     1      26.682  44.633  53.341  1.00  0.00    -0.065 N 
HETATM    9  H   UNL     1      27.350  45.027  52.665  1.00  0.00     0.280 HD
HETATM   10  C   UNL     1      26.048  45.764  54.108  1.00  0.00     0.270 C 
BRANCH   8  11
HETATM   11  C   UNL     1      27.354  43.723  54.324  1.00  0.00     0.205 C 
HETATM   12  C   UNL     1      28.654  42.974  53.857  1.00  0.00     0.008 C 
HETATM   13  C   UNL     1      28.443  41.459  53.734  1.00  0.00     0.020 C 
HETATM   14  C   UNL     1      29.449  43.486  52.654  1.00  0.00     0.020 C 
HETATM   15  C   UNL     1      29.285  43.357  55.233  1.00  0.00     0.137 C 
HETATM   16  C   UNL     1      28.187  44.421  55.437  1.00  0.00     0.049 C 
HETATM   17  O   UNL     1      30.569  44.011  55.220  1.00  0.00    -0.385 OA
HETATM   18  C   UNL     1      28.987  45.716  55.266  1.00  0.00     0.035 C 
HETATM   19  C   UNL     1      30.403  45.348  55.703  1.00  0.00     0.168 C 
ENDBRANCH   8  11
ENDBRANCH   7   8
ENDBRANCH   1   7
BRANCH   2  20
HETATM   20  C   UNL     1      25.734  45.580  49.818  1.00  0.00    -0.002 A 
HETATM   21  C   UNL     1      24.407  45.913  49.530  1.00  0.00     0.053 A 
HETATM   22  C   UNL     1      24.053  47.246  49.323  1.00  0.00     0.103 A 
HETATM   23  C   UNL     1      25.020  48.252  49.389  1.00  0.00     0.102 A 
HETATM   24  O   UNL     1      22.735  47.492  49.041  1.00  0.00    -0.346 OA
HETATM   25  O   UNL     1      24.747  49.575  49.164  1.00  0.00    -0.346 OA
HETATM   26  C   UNL     1      26.336  47.929  49.713  1.00  0.00     0.040 A 
HETATM   27  C   UNL     1      23.453  49.765  48.578  1.00  0.00     0.202 C 
HETATM   28  C   UNL     1      22.415  48.876  49.244  1.00  0.00     0.202 C 
HETATM   29  C   UNL     1      26.692  46.596  49.930  1.00  0.00     0.017 A 
ENDBRANCH   2  20
TORSDOF 4
ENDMDL
MODEL 6
REMARK VINA RESULT:      -7.9     10.978     13.249
REMARK  4 active torsions:
REMARK  status: ('A' for Active; 'I' for Inactive)
REMARK    1  A    between atoms: C_9  and  N_10 
REMARK    2  A    between atoms: N_10  and  C_12 
REMARK    3  A    between atoms: C_12  and  C_13 
REMARK    4  A    between atoms: C_14  and  C_15 
ROOT
HETATM    1  C   UNL     1      29.052  51.533  40.148  1.00  0.00     0.016 A 
HETATM    2  C   UNL     1      30.088  51.867  41.075  1.00  0.00     0.096 A 
HETATM    3  N   UNL     1      29.601  52.570  42.103  1.00  0.00    -0.174 NA
HETATM    4  N   UNL     1      28.316  52.784  41.803  1.00  0.00    -0.288 N 
HETATM    5  H   UNL     1      27.760  53.353  42.438  1.00  0.00     0.188 HD
HETATM    6  C   UNL     1      27.927  52.154  40.657  1.00  0.00     0.120 A 
ENDROOT
BRANCH   1   7
HETATM    7  C   UNL     1      29.136  50.686  38.928  1.00  0.00     0.277 C 
BRANCH   7   8
HETATM    8  N   UNL     1      28.203  49.488  38.932  1.00  0.00    -0.065 N 
HETATM    9  H   UNL     1      27.722  49.465  39.842  1.00  0.00     0.280 HD
HETATM   10  C   UNL     1      27.168  49.569  37.841  1.00  0.00     0.270 C 
BRANCH   8  11
HETATM   11  C   UNL     1      29.024  48.255  38.704  1.00  0.00     0.205 C 
HETATM   12  C   UNL     1      29.771  47.634  39.940  1.00  0.00     0.008 C 
HETATM   13  C   UNL     1      31.295  47.765  39.827  1.00  0.00     0.020 C 
HETATM   14  C   UNL     1      29.325  47.979  41.363  1.00  0.00     0.020 C 
HETATM   15  C   UNL     1      29.275  46.237  39.450  1.00  0.00     0.137 C 
HETATM   16  C   UNL     1      28.228  46.927  38.553  1.00  0.00     0.049 C 
HETATM   17  O   UNL     1      28.591  45.400  40.403  1.00  0.00    -0.385 OA
HETATM   18  C   UNL     1      26.929  46.582  39.286  1.00  0.00     0.035 C 
HETATM   19  C   UNL     1      27.228  45.261  39.989  1.00  0.00     0.168 C 
ENDBRANCH   8  11
ENDBRANCH   7   8
ENDBRANCH   1   7
BRANCH   2  20
HETATM   20  C   UNL     1      31.493  51.481  41.040  1.00  0.00    -0.002 A 
HETATM   21  C   UNL     1      32.335  51.966  40.036  1.00  0.00     0.053 A 
HETATM   22  C   UNL     1      33.671  51.566  39.993  1.00  0.00     0.103 A 
HETATM   23  C   UNL     1      34.170  50.671  40.941  1.00  0.00     0.102 A 
HETATM   24  O   UNL     1      34.431  52.082  38.976  1.00  0.00    -0.346 OA
HETATM   25  O   UNL     1      35.461  50.213  40.938  1.00  0.00    -0.346 OA
HETATM   26  C   UNL     1      33.345  50.214  41.966  1.00  0.00     0.040 A 
HETATM   27  C   UNL     1      36.136  50.517  39.711  1.00  0.00     0.202 C 
HETATM   28  C   UNL     1      35.831  51.935  39.255  1.00  0.00     0.202 C 
HETATM   29  C   UNL     1      32.010  50.620  42.018  1.00  0.00     0.017 A 
ENDBRANCH   2  20
TORSDOF 4
ENDMDL
MODEL 7
REMARK VINA RESULT:      -7.9      9.819     11.608
REMARK  4 active torsions:
REMARK  status: ('A' for Active; 'I' for Inactive)
REMARK    1  A    between atoms: C_9  and  N_10 
REMARK    2  A    between atoms: N_10  and  C_12 
REMARK    3  A    between atoms: C_12  and  C_13 
REMARK    4  A    between atoms: C_14  and  C_15 
ROOT
HETATM    1  C   UNL     1      28.765  51.956  40.042  1.00  0.00     0.016 A 
HETATM    2  C   UNL     1      28.191  51.133  39.024  1.00  0.00     0.096 A 
HETATM    3  N   UNL     1      28.175  51.770  37.847  1.00  0.00    -0.174 NA
HETATM    4  N   UNL     1      28.618  53.003  38.111  1.00  0.00    -0.288 N 
HETATM    5  H   UNL     1      28.640  53.681  37.353  1.00  0.00     0.188 HD
HETATM    6  C   UNL     1      29.018  53.157  39.406  1.00  0.00     0.120 A 
ENDROOT
BRANCH   1   7
HETATM    7  C   UNL     1      29.061  51.609  41.458  1.00  0.00     0.277 C 
BRANCH   7   8
HETATM    8  N   UNL     1      30.527  51.726  41.838  1.00  0.00    -0.065 N 
HETATM    9  H   UNL     1      31.044  52.046  41.008  1.00  0.00     0.280 HD
HETATM   10  C   UNL     1      30.748  52.713  42.954  1.00  0.00     0.270 C 
BRANCH   8  11
HETATM   11  C   UNL     1      30.998  50.382  42.304  1.00  0.00     0.205 C 
HETATM   12  C   UNL     1      31.316  49.298  41.211  1.00  0.00     0.008 C 
HETATM   13  C   UNL     1      30.322  48.130  41.241  1.00  0.00     0.020 C 
HETATM   14  C   UNL     1      31.580  49.718  39.763  1.00  0.00     0.020 C 
HETATM   15  C   UNL     1      32.614  48.970  42.014  1.00  0.00     0.137 C 
HETATM   16  C   UNL     1      32.480  50.306  42.772  1.00  0.00     0.049 C 
HETATM   17  O   UNL     1      33.862  48.968  41.294  1.00  0.00    -0.385 OA
HETATM   18  C   UNL     1      33.641  51.108  42.177  1.00  0.00     0.035 C 
HETATM   19  C   UNL     1      34.665  50.051  41.774  1.00  0.00     0.168 C 
ENDBRANCH   8  11
ENDBRANCH   7   8
ENDBRANCH   1   7
BRANCH   2  20
HETATM   20  C   UNL     1      27.728  49.755  39.127  1.00  0.00    -0.002 A 
HETATM   21  C   UNL     1      26.691  49.421  40.002  1.00  0.00     0.053 A 
HETATM   22  C   UNL     1      26.276  48.094  40.117  1.00  0.00     0.103 A 
HETATM   23  C   UNL     1      26.901  47.092  39.371  1.00  0.00     0.102 A 
HETATM   24  O   UNL     1      25.257  47.846  40.999  1.00  0.00    -0.346 OA
HETATM   25  O   UNL     1      26.566  45.768  39.459  1.00  0.00    -0.346 OA
HETATM   26  C   UNL     1      27.910  47.425  38.470  1.00  0.00     0.040 A 
HETATM   27  C   UNL     1      25.729  45.499  40.592  1.00  0.00     0.202 C 
HETATM   28  C   UNL     1      24.658  46.567  40.745  1.00  0.00     0.202 C 
HETATM   29  C   UNL     1      28.321  48.754  38.345  1.00  0.00     0.017 A 
ENDBRANCH   2  20
TORSDOF 4
ENDMDL
MODEL 8
REMARK VINA RESULT:      -7.8      2.127      7.964
REMARK  4 active torsions:
REMARK  status: ('A' for Active; 'I' for Inactive)
REMARK    1  A    between atoms: C_9  and  N_10 
REMARK    2  A    between atoms: N_10  and  C_12 
REMARK    3  A    between atoms: C_12  and  C_13 
REMARK    4  A    between atoms: C_14  and  C_15 
ROOT
HETATM    1  C   UNL     1      23.496  48.945  48.732  1.00  0.00     0.016 A 
HETATM    2  C   UNL     1      24.652  48.331  49.308  1.00  0.00     0.096 A 
HETATM    3  N   UNL     1      25.766  48.977  48.947  1.00  0.00    -0.174 NA
HETATM    4  N   UNL     1      25.363  49.910  48.077  1.00  0.00    -0.288 N 
HETATM    5  H   UNL     1      26.068  50.493  47.633  1.00  0.00     0.188 HD
HETATM    6  C   UNL     1      24.006  49.955  47.939  1.00  0.00     0.120 A 
ENDROOT
BRANCH   1   7
HETATM    7  C   UNL     1      22.063  48.609  48.949  1.00  0.00     0.277 C 
BRANCH   7   8
HETATM    8  N   UNL     1      21.225  49.758  49.483  1.00  0.00    -0.065 N 
HETATM    9  H   UNL     1      20.607  49.385  50.216  1.00  0.00     0.280 HD
HETATM   10  C   UNL     1      22.074  50.852  50.078  1.00  0.00     0.270 C 
BRANCH   8  11
HETATM   11  C   UNL     1      20.448  50.341  48.342  1.00  0.00     0.205 C 
HETATM   12  C   UNL     1      19.119  49.617  47.917  1.00  0.00     0.008 C 
HETATM   13  C   UNL     1      19.227  48.965  46.533  1.00  0.00     0.020 C 
HETATM   14  C   UNL     1      18.416  48.664  48.886  1.00  0.00     0.020 C 
HETATM   15  C   UNL     1      18.458  51.030  47.837  1.00  0.00     0.137 C 
HETATM   16  C   UNL     1      19.618  51.617  48.665  1.00  0.00     0.049 C 
HETATM   17  O   UNL     1      17.225  51.231  48.557  1.00  0.00    -0.385 OA
HETATM   18  C   UNL     1      18.921  51.907  49.998  1.00  0.00     0.035 C 
HETATM   19  C   UNL     1      17.465  52.162  49.616  1.00  0.00     0.168 C 
ENDBRANCH   8  11
ENDBRANCH   7   8
ENDBRANCH   1   7
BRANCH   2  20
HETATM   20  C   UNL     1      24.714  47.206  50.232  1.00  0.00    -0.002 A 
HETATM   21  C   UNL     1      25.350  47.340  51.469  1.00  0.00     0.053 A 
HETATM   22  C   UNL     1      25.432  46.248  52.333  1.00  0.00     0.103 A 
HETATM   23  C   UNL     1      24.892  45.014  51.964  1.00  0.00     0.102 A 
HETATM   24  O   UNL     1      26.074  46.459  53.525  1.00  0.00    -0.346 OA
HETATM   25  O   UNL     1      24.966  43.895  52.749  1.00  0.00    -0.346 OA
HETATM   26  C   UNL     1      24.225  44.885  50.748  1.00  0.00     0.040 A 
HETATM   27  C   UNL     1      25.894  44.056  53.829  1.00  0.00     0.202 C 
HETATM   28  C   UNL     1      25.754  45.428  54.471  1.00  0.00     0.202 C 
HETATM   29  C   UNL     1      24.133  45.978  49.884  1.00  0.00     0.017 A 
ENDBRANCH   2  20
TORSDOF 4
ENDMDL
MODEL 9
REMARK VINA RESULT:      -7.7      3.209      8.148
REMARK  4 active torsions:
REMARK  status: ('A' for Active; 'I' for Inactive)
REMARK    1  A    between atoms: C_9  and  N_10 
REMARK    2  A    between atoms: N_10  and  C_12 
REMARK    3  A    between atoms: C_12  and  C_13 
REMARK    4  A    between atoms: C_14  and  C_15 
ROOT
HETATM    1  C   UNL     1      20.299  46.892  47.742  1.00  0.00     0.016 A 
HETATM    2  C   UNL     1      21.699  46.752  47.495  1.00  0.00     0.096 A 
HETATM    3  N   UNL     1      21.929  46.426  46.218  1.00  0.00    -0.174 NA
HETATM    4  N   UNL     1      20.718  46.249  45.680  1.00  0.00    -0.288 N 
HETATM    5  H   UNL     1      20.660  45.942  44.711  1.00  0.00     0.188 HD
HETATM    6  C   UNL     1      19.705  46.549  46.542  1.00  0.00     0.120 A 
ENDROOT
BRANCH   1   7
HETATM    7  C   UNL     1      19.617  47.335  48.989  1.00  0.00     0.277 C 
BRANCH   7   8
HETATM    8  N   UNL     1      18.532  48.376  48.772  1.00  0.00    -0.065 N 
HETATM    9  H   UNL     1      18.571  48.673  47.788  1.00  0.00     0.280 HD
HETATM   10  C   UNL     1      17.157  47.833  49.059  1.00  0.00     0.270 C 
BRANCH   8  11
HETATM   11  C   UNL     1      18.788  49.518  49.709  1.00  0.00     0.205 C 
HETATM   12  C   UNL     1      19.793  50.634  49.246  1.00  0.00     0.008 C 
HETATM   13  C   UNL     1      21.081  50.640  50.079  1.00  0.00     0.020 C 
HETATM   14  C   UNL     1      20.134  50.797  47.764  1.00  0.00     0.020 C 
HETATM   15  C   UNL     1      18.763  51.683  49.772  1.00  0.00     0.137 C 
HETATM   16  C   UNL     1      17.669  50.596  49.786  1.00  0.00     0.049 C 
HETATM   17  O   UNL     1      18.362  52.734  48.871  1.00  0.00    -0.385 OA
HETATM   18  C   UNL     1      16.785  51.043  48.618  1.00  0.00     0.035 C 
HETATM   19  C   UNL     1      16.979  52.556  48.552  1.00  0.00     0.168 C 
ENDBRANCH   8  11
ENDBRANCH   7   8
ENDBRANCH   1   7
BRANCH   2  20
HETATM   20  C   UNL     1      22.809  46.984  48.411  1.00  0.00    -0.002 A 
HETATM   21  C   UNL     1      23.322  45.937  49.181  1.00  0.00     0.053 A 
HETATM   22  C   UNL     1      24.363  46.176  50.078  1.00  0.00     0.103 A 
HETATM   23  C   UNL     1      24.889  47.461  50.223  1.00  0.00     0.102 A 
HETATM   24  O   UNL     1      24.808  45.099  50.799  1.00  0.00    -0.346 OA
HETATM   25  O   UNL     1      25.887  47.771  51.107  1.00  0.00    -0.346 OA
HETATM   26  C   UNL     1      24.407  48.501  49.431  1.00  0.00     0.040 A 
HETATM   27  C   UNL     1      26.117  46.717  52.050  1.00  0.00     0.202 C 
HETATM   28  C   UNL     1      26.100  45.358  51.367  1.00  0.00     0.202 C 
HETATM   29  C   UNL     1      23.371  48.263  48.525  1.00  0.00     0.017 A 
ENDBRANCH   2  20
TORSDOF 4
ENDMDL
MODEL 10
REMARK VINA RESULT:      -7.6      4.347      6.404
REMARK  4 active torsions:
REMARK  status: ('A' for Active; 'I' for Inactive)
REMARK    1  A    between atoms: C_9  and  N_10 
REMARK    2  A    between atoms: N_10  and  C_12 
REMARK    3  A    between atoms: C_12  and  C_13 
REMARK    4  A    between atoms: C_14  and  C_15 
ROOT
HETATM    1  C   UNL     1      27.794  41.031  51.183  1.00  0.00     0.016 A 
HETATM    2  C   UNL     1      27.412  41.649  49.952  1.00  0.00     0.096 A 
HETATM    3  N   UNL     1      27.986  41.036  48.911  1.00  0.00    -0.174 NA
HETATM    4  N   UNL     1      28.801  40.122  49.449  1.00  0.00    -0.288 N 
HETATM    5  H   UNL     1      29.382  39.567  48.825  1.00  0.00     0.188 HD
HETATM    6  C   UNL     1      28.698  40.055  50.807  1.00  0.00     0.120 A 
ENDROOT
BRANCH   1   7
HETATM    7  C   UNL     1      27.316  41.332  52.559  1.00  0.00     0.277 C 
BRANCH   7   8
HETATM    8  N   UNL     1      28.213  42.275  53.341  1.00  0.00    -0.065 N 
HETATM    9  H   UNL     1      28.159  42.013  54.335  1.00  0.00     0.280 HD
HETATM   10  C   UNL     1      29.650  42.192  52.898  1.00  0.00     0.270 C 
BRANCH   8  11
HETATM   11  C   UNL     1      27.734  43.676  53.108  1.00  0.00     0.205 C 
HETATM   12  C   UNL     1      26.466  44.158  53.902  1.00  0.00     0.008 C 
HETATM   13  C   UNL     1      25.257  44.389  52.986  1.00  0.00     0.020 C 
HETATM   14  C   UNL     1      26.025  43.422  55.168  1.00  0.00     0.020 C 
HETATM   15  C   UNL     1      27.235  45.487  54.186  1.00  0.00     0.137 C 
HETATM   16  C   UNL     1      28.560  44.800  53.797  1.00  0.00     0.049 C 
HETATM   17  O   UNL     1      27.324  45.927  55.555  1.00  0.00    -0.385 OA
HETATM   18  C   UNL     1      29.251  44.686  55.159  1.00  0.00     0.035 C 
HETATM   19  C   UNL     1      28.692  45.854  55.967  1.00  0.00     0.168 C 
ENDBRANCH   8  11
ENDBRANCH   7   8
ENDBRANCH   1   7
BRANCH   2  20
HETATM   20  C   UNL     1      26.478  42.748  49.742  1.00  0.00    -0.002 A 
HETATM   21  C   UNL     1      25.121  42.491  49.524  1.00  0.00     0.053 A 
HETATM   22  C   UNL     1      24.240  43.547  49.293  1.00  0.00     0.103 A 
HETATM   23  C   UNL     1      24.707  44.862  49.265  1.00  0.00     0.102 A 
HETATM   24  O   UNL     1      22.927  43.213  49.084  1.00  0.00    -0.346 OA
HETATM   25  O   UNL     1      23.904  45.942  49.012  1.00  0.00    -0.346 OA
HETATM   26  C   UNL     1      26.051  45.127  49.518  1.00  0.00     0.040 A 
HETATM   27  C   UNL     1      22.624  45.551  48.499  1.00  0.00     0.202 C 
HETATM   28  C   UNL     1      22.073  44.353  49.258  1.00  0.00     0.202 C 
HETATM   29  C   UNL     1      26.935  44.072  49.760  1.00  0.00     0.017 A 
ENDBRANCH   2  20
TORSDOF 4
ENDMDL
