MODEL 1
REMARK VINA RESULT:      -9.9      0.000      0.000
REMARK  7 active torsions:
REMARK  status: ('A' for Active; 'I' for Inactive)
REMARK       I    between atoms: C_2  and  N_3 
REMARK    1  A    between atoms: C_2  and  C_11 
REMARK    2  A    between atoms: N_3  and  C_4 
REMARK    3  A    between atoms: C_4  and  C_5 
REMARK    4  A    between atoms: C_15  and  N_16 
REMARK    5  A    between atoms: N_16  and  C_17 
REMARK    6  A    between atoms: C_17  and  C_18 
REMARK    7  A    between atoms: C_20  and  C_24 
ROOT
HETATM    1  C   UNL     1      26.279  46.341  52.939  1.00  0.00     0.033 A 
HETATM    2  C   UNL     1      26.707  45.190  52.270  1.00  0.00     0.017 A 
HETATM    3  C   UNL     1      26.287  44.959  50.964  1.00  0.00     0.003 A 
HETATM    4  C   UNL     1      25.432  45.870  50.336  1.00  0.00     0.023 A 
HETATM    5  C   UNL     1      24.960  47.013  51.000  1.00  0.00     0.009 A 
HETATM    6  C   UNL     1      25.434  47.258  52.295  1.00  0.00     0.040 A 
ENDROOT
BRANCH   5   7
HETATM    7  N   UNL     1      24.162  47.913  50.284  1.00  0.00    -0.286 NA
HETATM    8  H   UNL     1      24.675  48.770  50.074  1.00  0.00     0.128 HD
BRANCH   7   9
HETATM    9  C   UNL     1      23.476  47.444  49.079  1.00  0.00     0.171 C 
BRANCH   9  10
HETATM   10  C   UNL     1      22.056  47.917  49.028  1.00  0.00     0.117 A 
HETATM   11  N   UNL     1      21.636  49.166  49.064  1.00  0.00    -0.232 NA
HETATM   12  C   UNL     1      20.260  49.109  49.062  1.00  0.00     0.084 A 
HETATM   13  C   UNL     1      19.843  47.796  49.025  1.00  0.00     0.122 A 
HETATM   14  N   UNL     1      20.992  47.051  49.017  1.00  0.00    -0.351 N 
HETATM   15  H   UNL     1      21.057  46.042  49.031  1.00  0.00     0.166 HD
BRANCH  12  16
HETATM   16  C   UNL     1      19.422  50.296  49.114  1.00  0.00    -0.003 A 
HETATM   17  C   UNL     1      19.821  51.445  48.426  1.00  0.00     0.033 A 
HETATM   18  C   UNL     1      19.023  52.575  48.490  1.00  0.00     0.117 A 
HETATM   19  N   UNL     1      17.868  52.637  49.183  1.00  0.00    -0.273 NA
HETATM   20  C   UNL     1      17.496  51.518  49.839  1.00  0.00     0.117 A 
HETATM   21  C   UNL     1      18.227  50.339  49.836  1.00  0.00     0.033 A 
ENDBRANCH  12  16
ENDBRANCH   9  10
ENDBRANCH   7   9
ENDBRANCH   5   7
BRANCH   1  22
HETATM   22  C   UNL     1      26.739  46.650  54.320  1.00  0.00     0.251 C 
HETATM   23  O   UNL     1      26.006  47.261  55.089  1.00  0.00    -0.268 OA
HETATM   24  N   UNL     1      27.995  46.188  54.653  1.00  0.00    -0.353 N 
HETATM   25  H   UNL     1      28.430  45.494  54.063  1.00  0.00     0.163 HD
BRANCH  24  26
HETATM   26  C   UNL     1      28.535  46.354  55.982  1.00  0.00     0.161 C 
BRANCH  26  27
HETATM   27  C   UNL     1      29.590  45.320  56.280  1.00  0.00    -0.041 A 
HETATM   28  C   UNL     1      29.830  44.260  55.394  1.00  0.00     0.009 A 
HETATM   29  C   UNL     1      30.808  43.305  55.683  1.00  0.00     0.001 A 
HETATM   30  C   UNL     1      31.547  43.397  56.860  1.00  0.00     0.000 A 
HETATM   31  C   UNL     1      31.308  44.439  57.754  1.00  0.00     0.001 A 
HETATM   32  C   UNL     1      30.332  45.393  57.468  1.00  0.00     0.009 A 
ENDBRANCH  26  27
ENDBRANCH  24  26
ENDBRANCH   1  22
TORSDOF 7
ENDMDL
MODEL 2
REMARK VINA RESULT:      -9.8      1.005      1.777
REMARK  7 active torsions:
REMARK  status: ('A' for Active; 'I' for Inactive)
REMARK       I    between atoms: C_2  and  N_3 
REMARK    1  A    between atoms: C_2  and  C_11 
REMARK    2  A    between atoms: N_3  and  C_4 
REMARK    3  A    between atoms: C_4  and  C_5 
REMARK    4  A    between atoms: C_15  and  N_16 
REMARK    5  A    between atoms: N_16  and  C_17 
REMARK    6  A    between atoms: C_17  and  C_18 
REMARK    7  A    between atoms: C_20  and  C_24 
ROOT
HETATM    1  C   UNL     1      26.061  46.256  53.258  1.00  0.00     0.033 A 
HETATM    2  C   UNL     1      25.655  44.918  53.223  1.00  0.00     0.017 A 
HETATM    3  C   UNL     1      24.995  44.431  52.099  1.00  0.00     0.003 A 
HETATM    4  C   UNL     1      24.731  45.283  51.022  1.00  0.00     0.023 A 
HETATM    5  C   UNL     1      25.097  46.638  51.050  1.00  0.00     0.009 A 
HETATM    6  C   UNL     1      25.807  47.099  52.165  1.00  0.00     0.040 A 
ENDROOT
BRANCH   5   7
HETATM    7  N   UNL     1      24.860  47.412  49.908  1.00  0.00    -0.286 NA
HETATM    8  H   UNL     1      25.588  47.263  49.207  1.00  0.00     0.128 HD
BRANCH   7   9
HETATM    9  C   UNL     1      23.545  47.345  49.269  1.00  0.00     0.171 C 
BRANCH   9  10
HETATM   10  C   UNL     1      22.872  48.683  49.241  1.00  0.00     0.117 A 
HETATM   11  N   UNL     1      21.578  48.919  49.325  1.00  0.00    -0.232 NA
HETATM   12  C   UNL     1      21.427  50.281  49.183  1.00  0.00     0.084 A 
HETATM   13  C   UNL     1      22.657  50.876  49.008  1.00  0.00     0.122 A 
HETATM   14  N   UNL     1      23.563  49.850  49.034  1.00  0.00    -0.351 N 
HETATM   15  H   UNL     1      24.562  49.924  48.897  1.00  0.00     0.166 HD
BRANCH  12  16
HETATM   16  C   UNL     1      20.128  50.935  49.201  1.00  0.00    -0.003 A 
HETATM   17  C   UNL     1      19.109  50.409  50.001  1.00  0.00     0.033 A 
HETATM   18  C   UNL     1      17.873  51.033  50.005  1.00  0.00     0.117 A 
HETATM   19  N   UNL     1      17.584  52.130  49.276  1.00  0.00    -0.273 NA
HETATM   20  C   UNL     1      18.580  52.624  48.511  1.00  0.00     0.117 A 
HETATM   21  C   UNL     1      19.850  52.072  48.440  1.00  0.00     0.033 A 
ENDBRANCH  12  16
ENDBRANCH   9  10
ENDBRANCH   7   9
ENDBRANCH   5   7
BRANCH   1  22
HETATM   22  C   UNL     1      26.810  46.807  54.420  1.00  0.00     0.251 C 
HETATM   23  O   UNL     1      26.514  47.906  54.876  1.00  0.00    -0.268 OA
HETATM   24  N   UNL     1      27.802  46.000  54.934  1.00  0.00    -0.353 N 
HETATM   25  H   UNL     1      27.822  45.026  54.669  1.00  0.00     0.163 HD
BRANCH  24  26
HETATM   26  C   UNL     1      28.556  46.380  56.106  1.00  0.00     0.161 C 
BRANCH  26  27
HETATM   27  C   UNL     1      29.614  45.358  56.433  1.00  0.00    -0.041 A 
HETATM   28  C   UNL     1      30.320  45.413  57.643  1.00  0.00     0.009 A 
HETATM   29  C   UNL     1      31.301  44.463  57.933  1.00  0.00     0.001 A 
HETATM   30  C   UNL     1      31.590  43.454  57.016  1.00  0.00     0.000 A 
HETATM   31  C   UNL     1      30.903  43.397  55.805  1.00  0.00     0.001 A 
HETATM   32  C   UNL     1      29.924  44.346  55.513  1.00  0.00     0.009 A 
ENDBRANCH  26  27
ENDBRANCH  24  26
ENDBRANCH   1  22
TORSDOF 7
ENDMDL
MODEL 3
REMARK VINA RESULT:      -9.8      2.196     11.310
REMARK  7 active torsions:
REMARK  status: ('A' for Active; 'I' for Inactive)
REMARK       I    between atoms: C_2  and  N_3 
REMARK    1  A    between atoms: C_2  and  C_11 
REMARK    2  A    between atoms: N_3  and  C_4 
REMARK    3  A    between atoms: C_4  and  C_5 
REMARK    4  A    between atoms: C_15  and  N_16 
REMARK    5  A    between atoms: N_16  and  C_17 
REMARK    6  A    between atoms: C_17  and  C_18 
REMARK    7  A    between atoms: C_20  and  C_24 
ROOT
HETATM    1  C   UNL     1      23.937  48.132  49.128  1.00  0.00     0.033 A 
HETATM    2  C   UNL     1      24.874  49.096  48.742  1.00  0.00     0.017 A 
HETATM    3  C   UNL     1      26.181  49.007  49.211  1.00  0.00     0.003 A 
HETATM    4  C   UNL     1      26.544  47.966  50.070  1.00  0.00     0.023 A 
HETATM    5  C   UNL     1      25.612  47.008  50.499  1.00  0.00     0.009 A 
HETATM    6  C   UNL     1      24.315  47.081  49.977  1.00  0.00     0.040 A 
ENDROOT
BRANCH   5   7
HETATM    7  N   UNL     1      26.066  45.956  51.304  1.00  0.00    -0.286 NA
HETATM    8  H   UNL     1      27.084  45.892  51.283  1.00  0.00     0.128 HD
BRANCH   7   9
HETATM    9  C   UNL     1      25.599  45.876  52.689  1.00  0.00     0.171 C 
BRANCH   9  10
HETATM   10  C   UNL     1      26.684  46.216  53.663  1.00  0.00     0.117 A 
HETATM   11  N   UNL     1      27.478  45.371  54.290  1.00  0.00    -0.232 NA
HETATM   12  C   UNL     1      28.262  46.133  55.129  1.00  0.00     0.084 A 
HETATM   13  C   UNL     1      27.931  47.464  55.004  1.00  0.00     0.122 A 
HETATM   14  N   UNL     1      26.920  47.502  54.081  1.00  0.00    -0.351 N 
HETATM   15  H   UNL     1      26.412  48.321  53.777  1.00  0.00     0.166 HD
BRANCH  12  16
HETATM   16  C   UNL     1      29.263  45.554  56.012  1.00  0.00    -0.003 A 
HETATM   17  C   UNL     1      30.080  44.525  55.537  1.00  0.00     0.033 A 
HETATM   18  C   UNL     1      31.023  43.973  56.387  1.00  0.00     0.117 A 
HETATM   19  N   UNL     1      31.206  44.371  57.663  1.00  0.00    -0.273 NA
HETATM   20  C   UNL     1      30.408  45.366  58.104  1.00  0.00     0.117 A 
HETATM   21  C   UNL     1      29.437  45.982  57.330  1.00  0.00     0.033 A 
ENDBRANCH  12  16
ENDBRANCH   9  10
ENDBRANCH   7   9
ENDBRANCH   5   7
BRANCH   1  22
HETATM   22  C   UNL     1      22.540  48.162  48.615  1.00  0.00     0.251 C 
HETATM   23  O   UNL     1      22.310  47.885  47.444  1.00  0.00    -0.268 OA
HETATM   24  N   UNL     1      21.569  48.488  49.537  1.00  0.00    -0.353 N 
HETATM   25  H   UNL     1      21.801  48.462  50.519  1.00  0.00     0.163 HD
BRANCH  24  26
HETATM   26  C   UNL     1      20.165  48.483  49.193  1.00  0.00     0.161 C 
BRANCH  26  27
HETATM   27  C   UNL     1      19.596  49.878  49.189  1.00  0.00    -0.041 A 
HETATM   28  C   UNL     1      18.420  50.178  49.891  1.00  0.00     0.009 A 
HETATM   29  C   UNL     1      17.900  51.475  49.876  1.00  0.00     0.001 A 
HETATM   30  C   UNL     1      18.544  52.478  49.155  1.00  0.00     0.000 A 
HETATM   31  C   UNL     1      19.706  52.187  48.443  1.00  0.00     0.001 A 
HETATM   32  C   UNL     1      20.227  50.894  48.456  1.00  0.00     0.009 A 
ENDBRANCH  26  27
ENDBRANCH  24  26
ENDBRANCH   1  22
TORSDOF 7
ENDMDL
MODEL 4
REMARK VINA RESULT:      -9.7      4.792      8.744
REMARK  7 active torsions:
REMARK  status: ('A' for Active; 'I' for Inactive)
REMARK       I    between atoms: C_2  and  N_3 
REMARK    1  A    between atoms: C_2  and  C_11 
REMARK    2  A    between atoms: N_3  and  C_4 
REMARK    3  A    between atoms: C_4  and  C_5 
REMARK    4  A    between atoms: C_15  and  N_16 
REMARK    5  A    between atoms: N_16  and  C_17 
REMARK    6  A    between atoms: C_17  and  C_18 
REMARK    7  A    between atoms: C_20  and  C_24 
ROOT
HETATM    1  C   UNL     1      25.850  46.230  53.072  1.00  0.00     0.033 A 
HETATM    2  C   UNL     1      25.499  47.092  52.028  1.00  0.00     0.017 A 
HETATM    3  C   UNL     1      24.857  46.581  50.904  1.00  0.00     0.003 A 
HETATM    4  C   UNL     1      24.580  45.214  50.821  1.00  0.00     0.023 A 
HETATM    5  C   UNL     1      24.955  44.325  51.840  1.00  0.00     0.009 A 
HETATM    6  C   UNL     1      25.552  44.861  52.987  1.00  0.00     0.040 A 
ENDROOT
BRANCH   5   7
HETATM    7  N   UNL     1      24.583  42.980  51.716  1.00  0.00    -0.286 NA
HETATM    8  H   UNL     1      23.795  42.761  52.327  1.00  0.00     0.128 HD
BRANCH   7   9
HETATM    9  C   UNL     1      24.334  42.437  50.380  1.00  0.00     0.171 C 
BRANCH   9  10
HETATM   10  C   UNL     1      25.565  41.818  49.793  1.00  0.00     0.117 A 
HETATM   11  N   UNL     1      26.268  40.824  50.298  1.00  0.00    -0.232 NA
HETATM   12  C   UNL     1      27.342  40.647  49.453  1.00  0.00     0.084 A 
HETATM   13  C   UNL     1      27.283  41.555  48.418  1.00  0.00     0.122 A 
HETATM   14  N   UNL     1      26.158  42.300  48.653  1.00  0.00    -0.351 N 
HETATM   15  H   UNL     1      25.830  43.086  48.108  1.00  0.00     0.166 HD
BRANCH  12  16
HETATM   16  C   UNL     1      28.369  39.643  49.685  1.00  0.00    -0.003 A 
HETATM   17  C   UNL     1      28.912  38.957  48.595  1.00  0.00     0.033 A 
HETATM   18  C   UNL     1      29.882  37.996  48.825  1.00  0.00     0.117 A 
HETATM   19  N   UNL     1      30.342  37.676  50.052  1.00  0.00    -0.273 NA
HETATM   20  C   UNL     1      29.808  38.349  51.092  1.00  0.00     0.117 A 
HETATM   21  C   UNL     1      28.834  39.328  50.963  1.00  0.00     0.033 A 
ENDBRANCH  12  16
ENDBRANCH   9  10
ENDBRANCH   7   9
ENDBRANCH   5   7
BRANCH   1  22
HETATM   22  C   UNL     1      26.496  46.739  54.312  1.00  0.00     0.251 C 
HETATM   23  O   UNL     1      25.959  47.627  54.964  1.00  0.00    -0.268 OA
HETATM   24  N   UNL     1      27.684  46.134  54.663  1.00  0.00    -0.353 N 
HETATM   25  H   UNL     1      27.933  45.260  54.223  1.00  0.00     0.163 HD
BRANCH  24  26
HETATM   26  C   UNL     1      28.379  46.480  55.881  1.00  0.00     0.161 C 
BRANCH  26  27
HETATM   27  C   UNL     1      29.426  45.453  56.227  1.00  0.00    -0.041 A 
HETATM   28  C   UNL     1      30.130  45.520  57.437  1.00  0.00     0.009 A 
HETATM   29  C   UNL     1      31.101  44.564  57.744  1.00  0.00     0.001 A 
HETATM   30  C   UNL     1      31.382  43.539  56.843  1.00  0.00     0.000 A 
HETATM   31  C   UNL     1      30.698  43.470  55.631  1.00  0.00     0.001 A 
HETATM   32  C   UNL     1      29.728  44.424  55.322  1.00  0.00     0.009 A 
ENDBRANCH  26  27
ENDBRANCH  24  26
ENDBRANCH   1  22
TORSDOF 7
ENDMDL
MODEL 5
REMARK VINA RESULT:      -9.7      2.414     11.233
REMARK  7 active torsions:
REMARK  status: ('A' for Active; 'I' for Inactive)
REMARK       I    between atoms: C_2  and  N_3 
REMARK    1  A    between atoms: C_2  and  C_11 
REMARK    2  A    between atoms: N_3  and  C_4 
REMARK    3  A    between atoms: C_4  and  C_5 
REMARK    4  A    between atoms: C_15  and  N_16 
REMARK    5  A    between atoms: N_16  and  C_17 
REMARK    6  A    between atoms: C_17  and  C_18 
REMARK    7  A    between atoms: C_20  and  C_24 
ROOT
HETATM    1  C   UNL     1      23.822  48.629  48.797  1.00  0.00     0.033 A 
HETATM    2  C   UNL     1      24.606  49.637  48.227  1.00  0.00     0.017 A 
HETATM    3  C   UNL     1      25.973  49.672  48.485  1.00  0.00     0.003 A 
HETATM    4  C   UNL     1      26.549  48.711  49.320  1.00  0.00     0.023 A 
HETATM    5  C   UNL     1      25.777  47.712  49.933  1.00  0.00     0.009 A 
HETATM    6  C   UNL     1      24.413  47.658  49.621  1.00  0.00     0.040 A 
ENDROOT
BRANCH   5   7
HETATM    7  N   UNL     1      26.434  46.744  50.702  1.00  0.00    -0.286 NA
HETATM    8  H   UNL     1      26.970  47.177  51.456  1.00  0.00     0.128 HD
BRANCH   7   9
HETATM    9  C   UNL     1      25.662  45.620  51.233  1.00  0.00     0.171 C 
BRANCH   9  10
HETATM   10  C   UNL     1      26.467  44.794  52.190  1.00  0.00     0.117 A 
HETATM   11  N   UNL     1      27.385  45.228  53.030  1.00  0.00    -0.232 NA
HETATM   12  C   UNL     1      27.899  44.108  53.646  1.00  0.00     0.084 A 
HETATM   13  C   UNL     1      27.277  42.977  53.165  1.00  0.00     0.122 A 
HETATM   14  N   UNL     1      26.380  43.426  52.233  1.00  0.00    -0.351 N 
HETATM   15  H   UNL     1      25.778  42.857  51.652  1.00  0.00     0.166 HD
BRANCH  12  16
HETATM   16  C   UNL     1      28.961  44.173  54.639  1.00  0.00    -0.003 A 
HETATM   17  C   UNL     1      29.069  45.306  55.450  1.00  0.00     0.033 A 
HETATM   18  C   UNL     1      30.089  45.364  56.385  1.00  0.00     0.117 A 
HETATM   19  N   UNL     1      30.997  44.383  56.565  1.00  0.00    -0.273 NA
HETATM   20  C   UNL     1      30.876  43.297  55.775  1.00  0.00     0.117 A 
HETATM   21  C   UNL     1      29.890  43.145  54.811  1.00  0.00     0.033 A 
ENDBRANCH  12  16
ENDBRANCH   9  10
ENDBRANCH   7   9
ENDBRANCH   5   7
BRANCH   1  22
HETATM   22  C   UNL     1      22.366  48.526  48.512  1.00  0.00     0.251 C 
HETATM   23  O   UNL     1      21.981  48.145  47.413  1.00  0.00    -0.268 OA
HETATM   24  N   UNL     1      21.525  48.856  49.553  1.00  0.00    -0.353 N 
HETATM   25  H   UNL     1      21.906  48.921  50.486  1.00  0.00     0.163 HD
BRANCH  24  26
HETATM   26  C   UNL     1      20.090  48.730  49.436  1.00  0.00     0.161 C 
BRANCH  26  27
HETATM   27  C   UNL     1      19.429  50.078  49.308  1.00  0.00    -0.041 A 
HETATM   28  C   UNL     1      20.013  51.097  48.542  1.00  0.00     0.009 A 
HETATM   29  C   UNL     1      19.393  52.344  48.434  1.00  0.00     0.001 A 
HETATM   30  C   UNL     1      18.190  52.585  49.094  1.00  0.00     0.000 A 
HETATM   31  C   UNL     1      17.607  51.585  49.868  1.00  0.00     0.001 A 
HETATM   32  C   UNL     1      18.225  50.339  49.978  1.00  0.00     0.009 A 
ENDBRANCH  26  27
ENDBRANCH  24  26
ENDBRANCH   1  22
TORSDOF 7
ENDMDL
MODEL 6
REMARK VINA RESULT:      -9.7      1.935      2.981
REMARK  7 active torsions:
REMARK  status: ('A' for Active; 'I' for Inactive)
REMARK       I    between atoms: C_2  and  N_3 
REMARK    1  A    between atoms: C_2  and  C_11 
REMARK    2  A    between atoms: N_3  and  C_4 
REMARK    3  A    between atoms: C_4  and  C_5 
REMARK    4  A    between atoms: C_15  and  N_16 
REMARK    5  A    between atoms: N_16  and  C_17 
REMARK    6  A    between atoms: C_17  and  C_18 
REMARK    7  A    between atoms: C_20  and  C_24 
ROOT
HETATM    1  C   UNL     1      26.652  44.140  52.738  1.00  0.00     0.033 A 
HETATM    2  C   UNL     1      25.528  43.474  52.238  1.00  0.00     0.017 A 
HETATM    3  C   UNL     1      24.619  44.165  51.443  1.00  0.00     0.003 A 
HETATM    4  C   UNL     1      24.826  45.518  51.162  1.00  0.00     0.023 A 
HETATM    5  C   UNL     1      25.927  46.216  51.683  1.00  0.00     0.009 A 
HETATM    6  C   UNL     1      26.860  45.495  52.437  1.00  0.00     0.040 A 
ENDROOT
BRANCH   5   7
HETATM    7  N   UNL     1      26.104  47.552  51.303  1.00  0.00    -0.286 NA
HETATM    8  H   UNL     1      26.814  48.006  51.879  1.00  0.00     0.128 HD
BRANCH   7   9
HETATM    9  C   UNL     1      26.351  47.857  49.893  1.00  0.00     0.171 C 
BRANCH   9  10
HETATM   10  C   UNL     1      25.282  48.736  49.319  1.00  0.00     0.117 A 
HETATM   11  N   UNL     1      24.000  48.726  49.625  1.00  0.00    -0.232 NA
HETATM   12  C   UNL     1      23.401  49.652  48.799  1.00  0.00     0.084 A 
HETATM   13  C   UNL     1      24.344  50.230  47.978  1.00  0.00     0.122 A 
HETATM   14  N   UNL     1      25.530  49.631  48.309  1.00  0.00    -0.351 N 
HETATM   15  H   UNL     1      26.429  49.790  47.873  1.00  0.00     0.166 HD
BRANCH  12  16
HETATM   16  C   UNL     1      21.972  49.920  48.823  1.00  0.00    -0.003 A 
HETATM   17  C   UNL     1      21.085  48.876  49.100  1.00  0.00     0.033 A 
HETATM   18  C   UNL     1      19.726  49.138  49.110  1.00  0.00     0.117 A 
HETATM   19  N   UNL     1      19.195  50.354  48.867  1.00  0.00    -0.273 NA
HETATM   20  C   UNL     1      20.066  51.350  48.604  1.00  0.00     0.117 A 
HETATM   21  C   UNL     1      21.443  51.187  48.571  1.00  0.00     0.033 A 
ENDBRANCH  12  16
ENDBRANCH   9  10
ENDBRANCH   7   9
ENDBRANCH   5   7
BRANCH   1  22
HETATM   22  C   UNL     1      27.673  43.429  53.554  1.00  0.00     0.251 C 
HETATM   23  O   UNL     1      27.357  42.447  54.215  1.00  0.00    -0.268 OA
HETATM   24  N   UNL     1      28.955  43.932  53.483  1.00  0.00    -0.353 N 
HETATM   25  H   UNL     1      29.185  44.577  52.741  1.00  0.00     0.163 HD
BRANCH  24  26
HETATM   26  C   UNL     1      30.057  43.294  54.166  1.00  0.00     0.161 C 
BRANCH  26  27
HETATM   27  C   UNL     1      30.318  43.935  55.505  1.00  0.00    -0.041 A 
HETATM   28  C   UNL     1      29.694  45.139  55.862  1.00  0.00     0.009 A 
HETATM   29  C   UNL     1      29.947  45.725  57.104  1.00  0.00     0.001 A 
HETATM   30  C   UNL     1      30.829  45.117  57.996  1.00  0.00     0.000 A 
HETATM   31  C   UNL     1      31.464  43.927  57.647  1.00  0.00     0.001 A 
HETATM   32  C   UNL     1      31.213  43.341  56.407  1.00  0.00     0.009 A 
ENDBRANCH  26  27
ENDBRANCH  24  26
ENDBRANCH   1  22
TORSDOF 7
ENDMDL
MODEL 7
REMARK VINA RESULT:      -9.5      2.243      3.436
REMARK  7 active torsions:
REMARK  status: ('A' for Active; 'I' for Inactive)
REMARK       I    between atoms: C_2  and  N_3 
REMARK    1  A    between atoms: C_2  and  C_11 
REMARK    2  A    between atoms: N_3  and  C_4 
REMARK    3  A    between atoms: C_4  and  C_5 
REMARK    4  A    between atoms: C_15  and  N_16 
REMARK    5  A    between atoms: N_16  and  C_17 
REMARK    6  A    between atoms: C_17  and  C_18 
REMARK    7  A    between atoms: C_20  and  C_24 
ROOT
HETATM    1  C   UNL     1      26.123  47.857  49.804  1.00  0.00     0.033 A 
HETATM    2  C   UNL     1      27.340  48.511  49.589  1.00  0.00     0.017 A 
HETATM    3  C   UNL     1      27.377  49.641  48.778  1.00  0.00     0.003 A 
HETATM    4  C   UNL     1      26.204  50.106  48.176  1.00  0.00     0.023 A 
HETATM    5  C   UNL     1      24.978  49.444  48.349  1.00  0.00     0.009 A 
HETATM    6  C   UNL     1      24.948  48.341  49.209  1.00  0.00     0.040 A 
ENDROOT
BRANCH   5   7
HETATM    7  N   UNL     1      23.834  50.008  47.770  1.00  0.00    -0.286 NA
HETATM    8  H   UNL     1      23.167  49.284  47.497  1.00  0.00     0.128 HD
BRANCH   7   9
HETATM    9  C   UNL     1      23.133  51.075  48.486  1.00  0.00     0.171 C 
BRANCH   9  10
HETATM   10  C   UNL     1      21.727  50.686  48.826  1.00  0.00     0.117 A 
HETATM   11  N   UNL     1      20.641  51.409  48.641  1.00  0.00    -0.232 NA
HETATM   12  C   UNL     1      19.599  50.676  49.167  1.00  0.00     0.084 A 
HETATM   13  C   UNL     1      20.071  49.487  49.680  1.00  0.00     0.122 A 
HETATM   14  N   UNL     1      21.424  49.512  49.469  1.00  0.00    -0.351 N 
HETATM   15  H   UNL     1      22.092  48.811  49.758  1.00  0.00     0.166 HD
BRANCH  12  16
HETATM   16  C   UNL     1      18.224  51.151  49.169  1.00  0.00    -0.003 A 
HETATM   17  C   UNL     1      17.921  52.361  49.799  1.00  0.00     0.033 A 
HETATM   18  C   UNL     1      16.608  52.800  49.806  1.00  0.00     0.117 A 
HETATM   19  N   UNL     1      15.589  52.126  49.235  1.00  0.00    -0.273 NA
HETATM   20  C   UNL     1      15.901  50.961  48.630  1.00  0.00     0.117 A 
HETATM   21  C   UNL     1      17.184  50.438  48.570  1.00  0.00     0.033 A 
ENDBRANCH  12  16
ENDBRANCH   9  10
ENDBRANCH   7   9
ENDBRANCH   5   7
BRANCH   1  22
HETATM   22  C   UNL     1      26.029  46.672  50.700  1.00  0.00     0.251 C 
HETATM   23  O   UNL     1      26.360  45.565  50.290  1.00  0.00    -0.268 OA
HETATM   24  N   UNL     1      25.583  46.920  51.980  1.00  0.00    -0.353 N 
HETATM   25  H   UNL     1      25.566  47.873  52.314  1.00  0.00     0.163 HD
BRANCH  24  26
HETATM   26  C   UNL     1      25.514  45.874  52.974  1.00  0.00     0.161 C 
BRANCH  26  27
HETATM   27  C   UNL     1      26.767  45.826  53.809  1.00  0.00    -0.041 A 
HETATM   28  C   UNL     1      27.491  44.634  53.956  1.00  0.00     0.009 A 
HETATM   29  C   UNL     1      28.649  44.602  54.737  1.00  0.00     0.001 A 
HETATM   30  C   UNL     1      29.089  45.756  55.382  1.00  0.00     0.000 A 
HETATM   31  C   UNL     1      28.370  46.943  55.254  1.00  0.00     0.001 A 
HETATM   32  C   UNL     1      27.214  46.977  54.476  1.00  0.00     0.009 A 
ENDBRANCH  26  27
ENDBRANCH  24  26
ENDBRANCH   1  22
TORSDOF 7
ENDMDL
MODEL 8
REMARK VINA RESULT:      -9.3      2.542     10.955
REMARK  7 active torsions:
REMARK  status: ('A' for Active; 'I' for Inactive)
REMARK       I    between atoms: C_2  and  N_3 
REMARK    1  A    between atoms: C_2  and  C_11 
REMARK    2  A    between atoms: N_3  and  C_4 
REMARK    3  A    between atoms: C_4  and  C_5 
REMARK    4  A    between atoms: C_15  and  N_16 
REMARK    5  A    between atoms: N_16  and  C_17 
REMARK    6  A    between atoms: C_17  and  C_18 
REMARK    7  A    between atoms: C_20  and  C_24 
ROOT
HETATM    1  C   UNL     1      24.050  46.696  49.315  1.00  0.00     0.033 A 
HETATM    2  C   UNL     1      24.720  47.886  49.619  1.00  0.00     0.017 A 
HETATM    3  C   UNL     1      26.079  47.851  49.913  1.00  0.00     0.003 A 
HETATM    4  C   UNL     1      26.761  46.631  49.916  1.00  0.00     0.023 A 
HETATM    5  C   UNL     1      26.101  45.420  49.650  1.00  0.00     0.009 A 
HETATM    6  C   UNL     1      24.746  45.478  49.304  1.00  0.00     0.040 A 
ENDROOT
BRANCH   5   7
HETATM    7  N   UNL     1      26.864  44.246  49.603  1.00  0.00    -0.286 NA
HETATM    8  H   UNL     1      27.835  44.430  49.861  1.00  0.00     0.128 HD
BRANCH   7   9
HETATM    9  C   UNL     1      26.383  43.063  50.318  1.00  0.00     0.171 C 
BRANCH   9  10
HETATM   10  C   UNL     1      27.085  42.881  51.628  1.00  0.00     0.117 A 
HETATM   11  N   UNL     1      27.714  43.807  52.324  1.00  0.00    -0.232 NA
HETATM   12  C   UNL     1      28.259  43.164  53.413  1.00  0.00     0.084 A 
HETATM   13  C   UNL     1      27.952  41.822  53.370  1.00  0.00     0.122 A 
HETATM   14  N   UNL     1      27.218  41.654  52.227  1.00  0.00    -0.351 N 
HETATM   15  H   UNL     1      26.860  40.781  51.863  1.00  0.00     0.166 HD
BRANCH  12  16
HETATM   16  C   UNL     1      29.053  43.853  54.419  1.00  0.00    -0.003 A 
HETATM   17  C   UNL     1      28.623  45.094  54.896  1.00  0.00     0.033 A 
HETATM   18  C   UNL     1      29.390  45.748  55.845  1.00  0.00     0.117 A 
HETATM   19  N   UNL     1      30.542  45.257  56.346  1.00  0.00    -0.273 NA
HETATM   20  C   UNL     1      30.940  44.057  55.875  1.00  0.00     0.117 A 
HETATM   21  C   UNL     1      30.242  43.326  54.926  1.00  0.00     0.033 A 
ENDBRANCH  12  16
ENDBRANCH   9  10
ENDBRANCH   7   9
ENDBRANCH   5   7
BRANCH   1  22
HETATM   22  C   UNL     1      22.607  46.692  48.951  1.00  0.00     0.251 C 
HETATM   23  O   UNL     1      22.101  45.690  48.457  1.00  0.00    -0.268 OA
HETATM   24  N   UNL     1      21.913  47.850  49.228  1.00  0.00    -0.353 N 
HETATM   25  H   UNL     1      22.329  48.530  49.848  1.00  0.00     0.163 HD
BRANCH  24  26
HETATM   26  C   UNL     1      20.492  47.956  48.993  1.00  0.00     0.161 C 
BRANCH  26  27
HETATM   27  C   UNL     1      20.022  49.383  49.106  1.00  0.00    -0.041 A 
HETATM   28  C   UNL     1      18.954  49.727  49.947  1.00  0.00     0.009 A 
HETATM   29  C   UNL     1      18.525  51.053  50.039  1.00  0.00     0.001 A 
HETATM   30  C   UNL     1      19.153  52.044  49.288  1.00  0.00     0.000 A 
HETATM   31  C   UNL     1      20.206  51.712  48.438  1.00  0.00     0.001 A 
HETATM   32  C   UNL     1      20.635  50.389  48.344  1.00  0.00     0.009 A 
ENDBRANCH  26  27
ENDBRANCH  24  26
ENDBRANCH   1  22
TORSDOF 7
ENDMDL
MODEL 9
REMARK VINA RESULT:      -9.3      2.309      4.011
REMARK  7 active torsions:
REMARK  status: ('A' for Active; 'I' for Inactive)
REMARK       I    between atoms: C_2  and  N_3 
REMARK    1  A    between atoms: C_2  and  C_11 
REMARK    2  A    between atoms: N_3  and  C_4 
REMARK    3  A    between atoms: C_4  and  C_5 
REMARK    4  A    between atoms: C_15  and  N_16 
REMARK    5  A    between atoms: N_16  and  C_17 
REMARK    6  A    between atoms: C_17  and  C_18 
REMARK    7  A    between atoms: C_20  and  C_24 
ROOT
HETATM    1  C   UNL     1      25.597  47.874  49.836  1.00  0.00     0.033 A 
HETATM    2  C   UNL     1      26.903  48.335  49.646  1.00  0.00     0.017 A 
HETATM    3  C   UNL     1      27.136  49.399  48.779  1.00  0.00     0.003 A 
HETATM    4  C   UNL     1      26.068  49.989  48.098  1.00  0.00     0.023 A 
HETATM    5  C   UNL     1      24.753  49.519  48.245  1.00  0.00     0.009 A 
HETATM    6  C   UNL     1      24.528  48.484  49.160  1.00  0.00     0.040 A 
ENDROOT
BRANCH   5   7
HETATM    7  N   UNL     1      23.726  50.204  47.582  1.00  0.00    -0.286 NA
HETATM    8  H   UNL     1      23.179  49.569  47.000  1.00  0.00     0.128 HD
BRANCH   7   9
HETATM    9  C   UNL     1      22.826  51.053  48.364  1.00  0.00     0.171 C 
BRANCH   9  10
HETATM   10  C   UNL     1      21.617  50.300  48.830  1.00  0.00     0.117 A 
HETATM   11  N   UNL     1      21.132  49.187  48.317  1.00  0.00    -0.232 NA
HETATM   12  C   UNL     1      19.983  48.909  49.024  1.00  0.00     0.084 A 
HETATM   13  C   UNL     1      19.773  49.876  49.982  1.00  0.00     0.122 A 
HETATM   14  N   UNL     1      20.810  50.759  49.840  1.00  0.00    -0.351 N 
HETATM   15  H   UNL     1      20.949  51.615  50.360  1.00  0.00     0.166 HD
BRANCH  12  16
HETATM   16  C   UNL     1      19.143  47.756  48.739  1.00  0.00    -0.003 A 
HETATM   17  C   UNL     1      19.743  46.535  48.421  1.00  0.00     0.033 A 
HETATM   18  C   UNL     1      18.936  45.445  48.140  1.00  0.00     0.117 A 
HETATM   19  N   UNL     1      17.588  45.488  48.155  1.00  0.00    -0.273 NA
HETATM   20  C   UNL     1      17.026  46.675  48.466  1.00  0.00     0.117 A 
HETATM   21  C   UNL     1      17.748  47.821  48.762  1.00  0.00     0.033 A 
ENDBRANCH  12  16
ENDBRANCH   9  10
ENDBRANCH   7   9
ENDBRANCH   5   7
BRANCH   1  22
HETATM   22  C   UNL     1      25.296  46.770  50.787  1.00  0.00     0.251 C 
HETATM   23  O   UNL     1      24.590  45.832  50.435  1.00  0.00    -0.268 OA
HETATM   24  N   UNL     1      25.877  46.874  52.032  1.00  0.00    -0.353 N 
HETATM   25  H   UNL     1      26.631  47.534  52.165  1.00  0.00     0.163 HD
BRANCH  24  26
HETATM   26  C   UNL     1      25.729  45.837  53.027  1.00  0.00     0.161 C 
BRANCH  26  27
HETATM   27  C   UNL     1      26.959  45.724  53.890  1.00  0.00    -0.041 A 
HETATM   28  C   UNL     1      27.692  44.530  53.948  1.00  0.00     0.009 A 
HETATM   29  C   UNL     1      28.828  44.437  54.756  1.00  0.00     0.001 A 
HETATM   30  C   UNL     1      29.236  45.531  55.517  1.00  0.00     0.000 A 
HETATM   31  C   UNL     1      28.508  46.718  55.476  1.00  0.00     0.001 A 
HETATM   32  C   UNL     1      27.373  46.813  54.671  1.00  0.00     0.009 A 
ENDBRANCH  26  27
ENDBRANCH  24  26
ENDBRANCH   1  22
TORSDOF 7
ENDMDL
MODEL 10
REMARK VINA RESULT:      -9.1      2.242      2.994
REMARK  7 active torsions:
REMARK  status: ('A' for Active; 'I' for Inactive)
REMARK       I    between atoms: C_2  and  N_3 
REMARK    1  A    between atoms: C_2  and  C_11 
REMARK    2  A    between atoms: N_3  and  C_4 
REMARK    3  A    between atoms: C_4  and  C_5 
REMARK    4  A    between atoms: C_15  and  N_16 
REMARK    5  A    between atoms: N_16  and  C_17 
REMARK    6  A    between atoms: C_17  and  C_18 
REMARK    7  A    between atoms: C_20  and  C_24 
ROOT
HETATM    1  C   UNL     1      25.771  43.321  51.175  1.00  0.00     0.033 A 
HETATM    2  C   UNL     1      24.759  42.539  50.610  1.00  0.00     0.017 A 
HETATM    3  C   UNL     1      23.629  43.156  50.082  1.00  0.00     0.003 A 
HETATM    4  C   UNL     1      23.509  44.548  50.131  1.00  0.00     0.023 A 
HETATM    5  C   UNL     1      24.495  45.350  50.725  1.00  0.00     0.009 A 
HETATM    6  C   UNL     1      25.649  44.719  51.204  1.00  0.00     0.040 A 
ENDROOT
BRANCH   5   7
HETATM    7  N   UNL     1      24.336  46.741  50.676  1.00  0.00    -0.286 NA
HETATM    8  H   UNL     1      24.718  47.183  51.513  1.00  0.00     0.128 HD
BRANCH   7   9
HETATM    9  C   UNL     1      24.797  47.462  49.489  1.00  0.00     0.171 C 
BRANCH   9  10
HETATM   10  C   UNL     1      23.906  48.620  49.160  1.00  0.00     0.117 A 
HETATM   11  N   UNL     1      22.669  48.809  49.575  1.00  0.00    -0.232 NA
HETATM   12  C   UNL     1      22.232  49.964  48.964  1.00  0.00     0.084 A 
HETATM   13  C   UNL     1      23.228  50.479  48.163  1.00  0.00     0.122 A 
HETATM   14  N   UNL     1      24.279  49.611  48.287  1.00  0.00    -0.351 N 
HETATM   15  H   UNL     1      25.165  49.664  47.803  1.00  0.00     0.166 HD
BRANCH  12  16
HETATM   16  C   UNL     1      20.894  50.500  49.159  1.00  0.00    -0.003 A 
HETATM   17  C   UNL     1      20.517  51.661  48.478  1.00  0.00     0.033 A 
HETATM   18  C   UNL     1      19.245  52.170  48.677  1.00  0.00     0.117 A 
HETATM   19  N   UNL     1      18.334  51.609  49.497  1.00  0.00    -0.273 NA
HETATM   20  C   UNL     1      18.714  50.488  50.145  1.00  0.00     0.117 A 
HETATM   21  C   UNL     1      19.964  49.902  50.011  1.00  0.00     0.033 A 
ENDBRANCH  12  16
ENDBRANCH   9  10
ENDBRANCH   7   9
ENDBRANCH   5   7
BRANCH   1  22
HETATM   22  C   UNL     1      27.016  42.707  51.710  1.00  0.00     0.251 C 
HETATM   23  O   UNL     1      27.861  42.262  50.942  1.00  0.00    -0.268 OA
HETATM   24  N   UNL     1      27.144  42.705  53.083  1.00  0.00    -0.353 N 
HETATM   25  H   UNL     1      26.536  43.299  53.629  1.00  0.00     0.163 HD
BRANCH  24  26
HETATM   26  C   UNL     1      28.335  42.207  53.732  1.00  0.00     0.161 C 
BRANCH  26  27
HETATM   27  C   UNL     1      29.022  43.289  54.523  1.00  0.00    -0.041 A 
HETATM   28  C   UNL     1      30.270  43.063  55.122  1.00  0.00     0.009 A 
HETATM   29  C   UNL     1      30.895  44.073  55.856  1.00  0.00     0.001 A 
HETATM   30  C   UNL     1      30.278  45.314  56.004  1.00  0.00     0.000 A 
HETATM   31  C   UNL     1      29.033  45.546  55.424  1.00  0.00     0.001 A 
HETATM   32  C   UNL     1      28.406  44.538  54.691  1.00  0.00     0.009 A 
ENDBRANCH  26  27
ENDBRANCH  24  26
ENDBRANCH   1  22
TORSDOF 7
ENDMDL
