MODEL 1
REMARK VINA RESULT:      -9.0      0.000      0.000
REMARK  5 active torsions:
REMARK  status: ('A' for Active; 'I' for Inactive)
REMARK    1  A    between atoms: C_8  and  C_9 
REMARK    2  A    between atoms: C_9  and  C_10 
REMARK       I    between atoms: C_10  and  N_11 
REMARK    3  A    between atoms: N_11  and  N_12 
REMARK    4  A    between atoms: C_13  and  C_14 
REMARK    5  A    between atoms: C_15  and  O_16 
ROOT
HETATM    1  C   UNL     1      25.834  44.521  52.271  1.00  0.00     0.241 C 
HETATM    2  N   UNL     1      26.483  45.105  51.189  1.00  0.00    -0.247 N 
HETATM    3  O   UNL     1      24.623  44.591  52.479  1.00  0.00    -0.271 OA
HETATM    4  H   UNL     1      27.497  45.074  51.138  1.00  0.00     0.192 HD
ENDROOT
BRANCH   1   5
HETATM    5  C   UNL     1      26.758  43.708  53.167  1.00  0.00     0.145 C 
BRANCH   5   6
HETATM    6  C   UNL     1      27.510  44.576  54.127  1.00  0.00    -0.021 A 
HETATM    7  C   UNL     1      28.756  44.281  54.770  1.00  0.00    -0.001 A 
HETATM    8  C   UNL     1      29.624  43.167  54.770  1.00  0.00     0.014 A 
HETATM    9  C   UNL     1      29.119  45.405  55.512  1.00  0.00     0.042 A 
HETATM   10  C   UNL     1      30.818  43.225  55.498  1.00  0.00     0.001 A 
HETATM   11  C   UNL     1      31.155  44.368  56.220  1.00  0.00     0.002 A 
HETATM   12  C   UNL     1      30.310  45.480  56.243  1.00  0.00     0.030 A 
HETATM   13  N   UNL     1      28.116  46.333  55.362  1.00  0.00    -0.365 N 
HETATM   14  H   UNL     1      28.108  47.247  55.794  1.00  0.00     0.165 HD
HETATM   15  C   UNL     1      27.145  45.847  54.530  1.00  0.00     0.097 A 
ENDBRANCH   5   6
ENDBRANCH   1   5
BRANCH   2  16
HETATM   16  N   UNL     1      25.805  45.959  50.375  1.00  0.00    -0.184 NA
HETATM   17  C   UNL     1      26.305  47.151  50.286  1.00  0.00     0.153 C 
BRANCH  17  18
HETATM   18  C   UNL     1      25.629  48.197  49.495  1.00  0.00     0.017 A 
HETATM   19  C   UNL     1      26.344  49.140  48.748  1.00  0.00     0.077 A 
HETATM   20  C   UNL     1      25.667  50.086  47.981  1.00  0.00     0.039 A 
HETATM   21  C   UNL     1      24.272  50.102  47.967  1.00  0.00     0.022 A 
HETATM   22  C   UNL     1      23.562  49.168  48.721  1.00  0.00     0.012 A 
HETATM   23 BR   UNL     1      21.671  49.194  48.706  1.00  0.00    -0.051 Br
HETATM   24  C   UNL     1      24.230  48.210  49.485  1.00  0.00     0.034 A 
BRANCH  19  25
HETATM   25  O   UNL     1      27.710  49.190  48.705  1.00  0.00    -0.360 OA
HETATM   26  H   UNL     1      27.980  50.000  48.213  1.00  0.00     0.217 HD
ENDBRANCH  19  25
ENDBRANCH  17  18
ENDBRANCH   2  16
TORSDOF 5
ENDMDL
MODEL 2
REMARK VINA RESULT:      -8.7      1.688      2.216
REMARK  5 active torsions:
REMARK  status: ('A' for Active; 'I' for Inactive)
REMARK    1  A    between atoms: C_8  and  C_9 
REMARK    2  A    between atoms: C_9  and  C_10 
REMARK       I    between atoms: C_10  and  N_11 
REMARK    3  A    between atoms: N_11  and  N_12 
REMARK    4  A    between atoms: C_13  and  C_14 
REMARK    5  A    between atoms: C_15  and  O_16 
ROOT
HETATM    1  C   UNL     1      26.689  44.915  51.137  1.00  0.00     0.241 C 
HETATM    2  N   UNL     1      25.987  45.968  51.715  1.00  0.00    -0.247 N 
HETATM    3  O   UNL     1      27.353  45.003  50.105  1.00  0.00    -0.271 OA
HETATM    4  H   UNL     1      25.393  45.790  52.519  1.00  0.00     0.192 HD
ENDROOT
BRANCH   1   5
HETATM    5  C   UNL     1      26.621  43.626  51.942  1.00  0.00     0.145 C 
BRANCH   5   6
HETATM    6  C   UNL     1      27.960  43.239  52.491  1.00  0.00    -0.021 A 
HETATM    7  C   UNL     1      28.627  43.801  53.627  1.00  0.00    -0.001 A 
HETATM    8  C   UNL     1      28.324  44.843  54.531  1.00  0.00     0.014 A 
HETATM    9  C   UNL     1      29.807  43.081  53.816  1.00  0.00     0.042 A 
HETATM   10  C   UNL     1      29.201  45.115  55.587  1.00  0.00     0.001 A 
HETATM   11  C   UNL     1      30.366  44.370  55.753  1.00  0.00     0.002 A 
HETATM   12  C   UNL     1      30.693  43.339  54.868  1.00  0.00     0.030 A 
HETATM   13  N   UNL     1      29.878  42.146  52.811  1.00  0.00    -0.365 N 
HETATM   14  H   UNL     1      30.633  41.483  52.695  1.00  0.00     0.165 HD
HETATM   15  C   UNL     1      28.772  42.229  52.011  1.00  0.00     0.097 A 
ENDBRANCH   5   6
ENDBRANCH   1   5
BRANCH   2  16
HETATM   16  N   UNL     1      25.859  47.144  51.043  1.00  0.00    -0.184 NA
HETATM   17  C   UNL     1      24.822  47.230  50.272  1.00  0.00     0.153 C 
BRANCH  17  18
HETATM   18  C   UNL     1      24.601  48.421  49.431  1.00  0.00     0.017 A 
HETATM   19  C   UNL     1      25.632  49.008  48.689  1.00  0.00     0.077 A 
HETATM   20  C   UNL     1      25.372  50.108  47.874  1.00  0.00     0.039 A 
HETATM   21  C   UNL     1      24.081  50.634  47.807  1.00  0.00     0.022 A 
HETATM   22  C   UNL     1      23.058  50.054  48.556  1.00  0.00     0.012 A 
HETATM   23 BR   UNL     1      21.310  50.773  48.468  1.00  0.00    -0.051 Br
HETATM   24  C   UNL     1      23.306  48.947  49.367  1.00  0.00     0.034 A 
BRANCH  19  25
HETATM   25  O   UNL     1      26.921  48.551  48.697  1.00  0.00    -0.360 OA
HETATM   26  H   UNL     1      27.339  48.806  49.552  1.00  0.00     0.217 HD
ENDBRANCH  19  25
ENDBRANCH  17  18
ENDBRANCH   2  16
TORSDOF 5
ENDMDL
MODEL 3
REMARK VINA RESULT:      -8.5      3.906      9.156
REMARK  5 active torsions:
REMARK  status: ('A' for Active; 'I' for Inactive)
REMARK    1  A    between atoms: C_8  and  C_9 
REMARK    2  A    between atoms: C_9  and  C_10 
REMARK       I    between atoms: C_10  and  N_11 
REMARK    3  A    between atoms: N_11  and  N_12 
REMARK    4  A    between atoms: C_13  and  C_14 
REMARK    5  A    between atoms: C_15  and  O_16 
ROOT
HETATM    1  C   UNL     1      23.822  48.318  49.321  1.00  0.00     0.241 C 
HETATM    2  N   UNL     1      24.057  47.231  50.156  1.00  0.00    -0.247 N 
HETATM    3  O   UNL     1      24.457  49.372  49.354  1.00  0.00    -0.271 OA
HETATM    4  H   UNL     1      23.432  46.431  50.122  1.00  0.00     0.192 HD
ENDROOT
BRANCH   1   5
HETATM    5  C   UNL     1      22.731  48.068  48.290  1.00  0.00     0.145 C 
BRANCH   5   6
HETATM    6  C   UNL     1      21.364  48.135  48.896  1.00  0.00    -0.021 A 
HETATM    7  C   UNL     1      20.622  49.314  49.232  1.00  0.00    -0.001 A 
HETATM    8  C   UNL     1      20.889  50.699  49.163  1.00  0.00     0.014 A 
HETATM    9  C   UNL     1      19.371  48.902  49.693  1.00  0.00     0.042 A 
HETATM   10  C   UNL     1      19.898  51.611  49.544  1.00  0.00     0.001 A 
HETATM   11  C   UNL     1      18.656  51.166  49.991  1.00  0.00     0.002 A 
HETATM   12  C   UNL     1      18.370  49.801  50.077  1.00  0.00     0.030 A 
HETATM   13  N   UNL     1      19.365  47.527  49.680  1.00  0.00    -0.365 N 
HETATM   14  H   UNL     1      18.585  46.952  49.969  1.00  0.00     0.165 HD
HETATM   15  C   UNL     1      20.556  47.055  49.200  1.00  0.00     0.097 A 
ENDBRANCH   5   6
ENDBRANCH   1   5
BRANCH   2  16
HETATM   16  N   UNL     1      24.918  47.355  51.202  1.00  0.00    -0.184 NA
HETATM   17  C   UNL     1      25.258  46.244  51.773  1.00  0.00     0.153 C 
BRANCH  17  18
HETATM   18  C   UNL     1      26.128  46.240  52.964  1.00  0.00     0.017 A 
HETATM   19  C   UNL     1      26.023  47.214  53.963  1.00  0.00     0.077 A 
HETATM   20  C   UNL     1      26.836  47.151  55.093  1.00  0.00     0.039 A 
HETATM   21  C   UNL     1      27.766  46.119  55.224  1.00  0.00     0.022 A 
HETATM   22  C   UNL     1      27.876  45.156  54.222  1.00  0.00     0.012 A 
HETATM   23 BR   UNL     1      29.142  43.761  54.398  1.00  0.00    -0.051 Br
HETATM   24  C   UNL     1      27.060  45.205  53.091  1.00  0.00     0.034 A 
BRANCH  19  25
HETATM   25  O   UNL     1      25.135  48.254  53.912  1.00  0.00    -0.360 OA
HETATM   26  H   UNL     1      25.067  48.653  54.811  1.00  0.00     0.217 HD
ENDBRANCH  19  25
ENDBRANCH  17  18
ENDBRANCH   2  16
TORSDOF 5
ENDMDL
MODEL 4
REMARK VINA RESULT:      -8.4      4.922      6.950
REMARK  5 active torsions:
REMARK  status: ('A' for Active; 'I' for Inactive)
REMARK    1  A    between atoms: C_8  and  C_9 
REMARK    2  A    between atoms: C_9  and  C_10 
REMARK       I    between atoms: C_10  and  N_11 
REMARK    3  A    between atoms: N_11  and  N_12 
REMARK    4  A    between atoms: C_13  and  C_14 
REMARK    5  A    between atoms: C_15  and  O_16 
ROOT
HETATM    1  C   UNL     1      27.272  43.491  52.250  1.00  0.00     0.241 C 
HETATM    2  N   UNL     1      27.140  42.108  52.307  1.00  0.00    -0.247 N 
HETATM    3  O   UNL     1      27.908  44.096  51.387  1.00  0.00    -0.271 OA
HETATM    4  H   UNL     1      26.671  41.683  53.102  1.00  0.00     0.192 HD
ENDROOT
BRANCH   1   5
HETATM    5  C   UNL     1      26.491  44.221  53.333  1.00  0.00     0.145 C 
BRANCH   5   6
HETATM    6  C   UNL     1      27.393  44.979  54.258  1.00  0.00    -0.021 A 
HETATM    7  C   UNL     1      28.633  44.531  54.820  1.00  0.00    -0.001 A 
HETATM    8  C   UNL     1      29.366  43.326  54.753  1.00  0.00     0.014 A 
HETATM    9  C   UNL     1      29.164  45.592  55.553  1.00  0.00     0.042 A 
HETATM   10  C   UNL     1      30.600  43.235  55.408  1.00  0.00     0.001 A 
HETATM   11  C   UNL     1      31.107  44.317  56.123  1.00  0.00     0.002 A 
HETATM   12  C   UNL     1      30.397  45.517  56.212  1.00  0.00     0.030 A 
HETATM   13  N   UNL     1      28.266  46.630  55.478  1.00  0.00    -0.365 N 
HETATM   14  H   UNL     1      28.389  47.530  55.921  1.00  0.00     0.165 HD
HETATM   15  C   UNL     1      27.199  46.274  54.699  1.00  0.00     0.097 A 
ENDBRANCH   5   6
ENDBRANCH   1   5
BRANCH   2  16
HETATM   16  N   UNL     1      27.880  41.323  51.478  1.00  0.00    -0.184 NA
HETATM   17  C   UNL     1      27.200  40.634  50.617  1.00  0.00     0.153 C 
BRANCH  17  18
HETATM   18  C   UNL     1      27.870  39.688  49.706  1.00  0.00     0.017 A 
HETATM   19  C   UNL     1      28.948  38.896  50.120  1.00  0.00     0.077 A 
HETATM   20  C   UNL     1      29.527  37.984  49.240  1.00  0.00     0.039 A 
HETATM   21  C   UNL     1      29.039  37.867  47.938  1.00  0.00     0.022 A 
HETATM   22  C   UNL     1      27.973  38.666  47.525  1.00  0.00     0.012 A 
HETATM   23 BR   UNL     1      27.317  38.511  45.757  1.00  0.00    -0.051 Br
HETATM   24  C   UNL     1      27.380  39.575  48.401  1.00  0.00     0.034 A 
BRANCH  19  25
HETATM   25  O   UNL     1      29.481  38.947  51.379  1.00  0.00    -0.360 OA
HETATM   26  H   UNL     1      30.356  39.397  51.331  1.00  0.00     0.217 HD
ENDBRANCH  19  25
ENDBRANCH  17  18
ENDBRANCH   2  16
TORSDOF 5
ENDMDL
MODEL 5
REMARK VINA RESULT:      -8.4      4.576      6.062
REMARK  5 active torsions:
REMARK  status: ('A' for Active; 'I' for Inactive)
REMARK    1  A    between atoms: C_8  and  C_9 
REMARK    2  A    between atoms: C_9  and  C_10 
REMARK       I    between atoms: C_10  and  N_11 
REMARK    3  A    between atoms: N_11  and  N_12 
REMARK    4  A    between atoms: C_13  and  C_14 
REMARK    5  A    between atoms: C_15  and  O_16 
ROOT
HETATM    1  C   UNL     1      26.191  44.729  52.451  1.00  0.00     0.241 C 
HETATM    2  N   UNL     1      25.643  43.457  52.327  1.00  0.00    -0.247 N 
HETATM    3  O   UNL     1      26.835  45.300  51.572  1.00  0.00    -0.271 OA
HETATM    4  H   UNL     1      25.200  43.023  53.131  1.00  0.00     0.192 HD
ENDROOT
BRANCH   1   5
HETATM    5  C   UNL     1      25.865  45.404  53.776  1.00  0.00     0.145 C 
BRANCH   5   6
HETATM    6  C   UNL     1      27.095  45.663  54.589  1.00  0.00    -0.021 A 
HETATM    7  C   UNL     1      28.202  44.777  54.793  1.00  0.00    -0.001 A 
HETATM    8  C   UNL     1      28.496  43.458  54.383  1.00  0.00     0.014 A 
HETATM    9  C   UNL     1      29.151  45.464  55.549  1.00  0.00     0.042 A 
HETATM   10  C   UNL     1      29.725  42.886  54.733  1.00  0.00     0.001 A 
HETATM   11  C   UNL     1      30.655  43.604  55.480  1.00  0.00     0.002 A 
HETATM   12  C   UNL     1      30.385  44.907  55.906  1.00  0.00     0.030 A 
HETATM   13  N   UNL     1      28.628  46.704  55.831  1.00  0.00    -0.365 N 
HETATM   14  H   UNL     1      29.098  47.417  56.372  1.00  0.00     0.165 HD
HETATM   15  C   UNL     1      27.394  46.836  55.256  1.00  0.00     0.097 A 
ENDBRANCH   5   6
ENDBRANCH   1   5
BRANCH   2  16
HETATM   16  N   UNL     1      25.955  42.689  51.248  1.00  0.00    -0.184 NA
HETATM   17  C   UNL     1      27.066  42.030  51.342  1.00  0.00     0.153 C 
BRANCH  17  18
HETATM   18  C   UNL     1      27.560  41.216  50.215  1.00  0.00     0.017 A 
HETATM   19  C   UNL     1      27.359  41.593  48.882  1.00  0.00     0.077 A 
HETATM   20  C   UNL     1      27.878  40.817  47.848  1.00  0.00     0.039 A 
HETATM   21  C   UNL     1      28.592  39.654  48.141  1.00  0.00     0.022 A 
HETATM   22  C   UNL     1      28.781  39.275  49.470  1.00  0.00     0.012 A 
HETATM   23 BR   UNL     1      29.744  37.695  49.865  1.00  0.00    -0.051 Br
HETATM   24  C   UNL     1      28.274  40.050  50.513  1.00  0.00     0.034 A 
BRANCH  19  25
HETATM   25  O   UNL     1      26.675  42.718  48.512  1.00  0.00    -0.360 OA
HETATM   26  H   UNL     1      25.712  42.556  48.637  1.00  0.00     0.217 HD
ENDBRANCH  19  25
ENDBRANCH  17  18
ENDBRANCH   2  16
TORSDOF 5
ENDMDL
MODEL 6
REMARK VINA RESULT:      -8.0      2.796      3.965
REMARK  5 active torsions:
REMARK  status: ('A' for Active; 'I' for Inactive)
REMARK    1  A    between atoms: C_8  and  C_9 
REMARK    2  A    between atoms: C_9  and  C_10 
REMARK       I    between atoms: C_10  and  N_11 
REMARK    3  A    between atoms: N_11  and  N_12 
REMARK    4  A    between atoms: C_13  and  C_14 
REMARK    5  A    between atoms: C_15  and  O_16 
ROOT
HETATM    1  C   UNL     1      25.196  46.878  50.583  1.00  0.00     0.241 C 
HETATM    2  N   UNL     1      24.242  47.018  49.581  1.00  0.00    -0.247 N 
HETATM    3  O   UNL     1      25.329  47.649  51.532  1.00  0.00    -0.271 OA
HETATM    4  H   UNL     1      24.255  46.386  48.786  1.00  0.00     0.192 HD
ENDROOT
BRANCH   1   5
HETATM    5  C   UNL     1      26.042  45.620  50.443  1.00  0.00     0.145 C 
BRANCH   5   6
HETATM    6  C   UNL     1      26.038  44.803  51.697  1.00  0.00    -0.021 A 
HETATM    7  C   UNL     1      27.147  44.108  52.283  1.00  0.00    -0.001 A 
HETATM    8  C   UNL     1      28.497  43.922  51.915  1.00  0.00     0.014 A 
HETATM    9  C   UNL     1      26.702  43.551  53.482  1.00  0.00     0.042 A 
HETATM   10  C   UNL     1      29.348  43.200  52.761  1.00  0.00     0.001 A 
HETATM   11  C   UNL     1      28.874  42.666  53.957  1.00  0.00     0.002 A 
HETATM   12  C   UNL     1      27.540  42.829  54.340  1.00  0.00     0.030 A 
HETATM   13  N   UNL     1      25.368  43.857  53.604  1.00  0.00    -0.365 N 
HETATM   14  H   UNL     1      24.781  43.576  54.378  1.00  0.00     0.165 HD
HETATM   15  C   UNL     1      24.958  44.612  52.538  1.00  0.00     0.097 A 
ENDBRANCH   5   6
ENDBRANCH   1   5
BRANCH   2  16
HETATM   16  N   UNL     1      23.498  48.156  49.510  1.00  0.00    -0.184 NA
HETATM   17  C   UNL     1      22.358  48.034  48.908  1.00  0.00     0.153 C 
BRANCH  17  18
HETATM   18  C   UNL     1      21.485  49.204  48.697  1.00  0.00     0.017 A 
HETATM   19  C   UNL     1      21.505  50.309  49.556  1.00  0.00     0.077 A 
HETATM   20  C   UNL     1      20.694  51.412  49.298  1.00  0.00     0.039 A 
HETATM   21  C   UNL     1      19.850  51.411  48.186  1.00  0.00     0.022 A 
HETATM   22  C   UNL     1      19.824  50.303  47.339  1.00  0.00     0.012 A 
HETATM   23 BR   UNL     1      18.675  50.301  45.836  1.00  0.00    -0.051 Br
HETATM   24  C   UNL     1      20.639  49.198  47.583  1.00  0.00     0.034 A 
BRANCH  19  25
HETATM   25  O   UNL     1      22.305  50.390  50.662  1.00  0.00    -0.360 OA
HETATM   26  H   UNL     1      21.952  51.096  51.253  1.00  0.00     0.217 HD
ENDBRANCH  19  25
ENDBRANCH  17  18
ENDBRANCH   2  16
TORSDOF 5
ENDMDL
MODEL 7
REMARK VINA RESULT:      -7.8      6.078      7.266
REMARK  5 active torsions:
REMARK  status: ('A' for Active; 'I' for Inactive)
REMARK    1  A    between atoms: C_8  and  C_9 
REMARK    2  A    between atoms: C_9  and  C_10 
REMARK       I    between atoms: C_10  and  N_11 
REMARK    3  A    between atoms: N_11  and  N_12 
REMARK    4  A    between atoms: C_13  and  C_14 
REMARK    5  A    between atoms: C_15  and  O_16 
ROOT
HETATM    1  C   UNL     1      28.069  41.461  51.735  1.00  0.00     0.241 C 
HETATM    2  N   UNL     1      28.488  40.300  51.095  1.00  0.00    -0.247 N 
HETATM    3  O   UNL     1      27.651  42.464  51.157  1.00  0.00    -0.271 OA
HETATM    4  H   UNL     1      28.901  39.550  51.641  1.00  0.00     0.192 HD
ENDROOT
BRANCH   1   5
HETATM    5  C   UNL     1      28.106  41.364  53.253  1.00  0.00     0.145 C 
BRANCH   5   6
HETATM    6  C   UNL     1      27.949  42.704  53.903  1.00  0.00    -0.021 A 
HETATM    7  C   UNL     1      28.936  43.427  54.650  1.00  0.00    -0.001 A 
HETATM    8  C   UNL     1      30.265  43.157  55.045  1.00  0.00     0.014 A 
HETATM    9  C   UNL     1      28.378  44.658  54.995  1.00  0.00     0.042 A 
HETATM   10  C   UNL     1      30.982  44.127  55.755  1.00  0.00     0.001 A 
HETATM   11  C   UNL     1      30.398  45.350  56.074  1.00  0.00     0.002 A 
HETATM   12  C   UNL     1      29.082  45.638  55.703  1.00  0.00     0.030 A 
HETATM   13  N   UNL     1      27.089  44.670  54.516  1.00  0.00    -0.365 N 
HETATM   14  H   UNL     1      26.442  45.439  54.625  1.00  0.00     0.165 HD
HETATM   15  C   UNL     1      26.822  43.502  53.855  1.00  0.00     0.097 A 
ENDBRANCH   5   6
ENDBRANCH   1   5
BRANCH   2  16
HETATM   16  N   UNL     1      28.623  40.286  49.740  1.00  0.00    -0.184 NA
HETATM   17  C   UNL     1      27.909  39.399  49.124  1.00  0.00     0.153 C 
BRANCH  17  18
HETATM   18  C   UNL     1      28.013  39.227  47.663  1.00  0.00     0.017 A 
HETATM   19  C   UNL     1      27.915  40.307  46.779  1.00  0.00     0.077 A 
HETATM   20  C   UNL     1      28.061  40.107  45.408  1.00  0.00     0.039 A 
HETATM   21  C   UNL     1      28.294  38.823  44.912  1.00  0.00     0.022 A 
HETATM   22  C   UNL     1      28.381  37.747  45.795  1.00  0.00     0.012 A 
HETATM   23 BR   UNL     1      28.691  36.007  45.121  1.00  0.00    -0.051 Br
HETATM   24  C   UNL     1      28.246  37.938  47.170  1.00  0.00     0.034 A 
BRANCH  19  25
HETATM   25  O   UNL     1      27.691  41.595  47.183  1.00  0.00    -0.360 OA
HETATM   26  H   UNL     1      26.839  41.902  46.796  1.00  0.00     0.217 HD
ENDBRANCH  19  25
ENDBRANCH  17  18
ENDBRANCH   2  16
TORSDOF 5
ENDMDL
MODEL 8
REMARK VINA RESULT:      -7.7      4.983      7.342
REMARK  5 active torsions:
REMARK  status: ('A' for Active; 'I' for Inactive)
REMARK    1  A    between atoms: C_8  and  C_9 
REMARK    2  A    between atoms: C_9  and  C_10 
REMARK       I    between atoms: C_10  and  N_11 
REMARK    3  A    between atoms: N_11  and  N_12 
REMARK    4  A    between atoms: C_13  and  C_14 
REMARK    5  A    between atoms: C_15  and  O_16 
ROOT
HETATM    1  C   UNL     1      29.435  42.506  53.443  1.00  0.00     0.241 C 
HETATM    2  N   UNL     1      28.691  41.407  53.028  1.00  0.00    -0.247 N 
HETATM    3  O   UNL     1      30.286  43.072  52.758  1.00  0.00    -0.271 OA
HETATM    4  H   UNL     1      28.071  40.946  53.686  1.00  0.00     0.192 HD
ENDROOT
BRANCH   1   5
HETATM    5  C   UNL     1      29.052  43.009  54.828  1.00  0.00     0.145 C 
BRANCH   5   6
HETATM    6  C   UNL     1      28.768  44.479  54.829  1.00  0.00    -0.021 A 
HETATM    7  C   UNL     1      27.670  45.151  54.198  1.00  0.00    -0.001 A 
HETATM    8  C   UNL     1      26.590  44.729  53.393  1.00  0.00     0.014 A 
HETATM    9  C   UNL     1      27.763  46.503  54.530  1.00  0.00     0.042 A 
HETATM   10  C   UNL     1      25.644  45.668  52.964  1.00  0.00     0.001 A 
HETATM   11  C   UNL     1      25.761  47.008  53.322  1.00  0.00     0.002 A 
HETATM   12  C   UNL     1      26.825  47.453  54.110  1.00  0.00     0.030 A 
HETATM   13  N   UNL     1      28.894  46.657  55.296  1.00  0.00    -0.365 N 
HETATM   14  H   UNL     1      29.215  47.537  55.676  1.00  0.00     0.165 HD
HETATM   15  C   UNL     1      29.504  45.447  55.486  1.00  0.00     0.097 A 
ENDBRANCH   5   6
ENDBRANCH   1   5
BRANCH   2  16
HETATM   16  N   UNL     1      29.009  40.777  51.864  1.00  0.00    -0.184 NA
HETATM   17  C   UNL     1      28.026  40.622  51.034  1.00  0.00     0.153 C 
BRANCH  17  18
HETATM   18  C   UNL     1      28.215  39.892  49.766  1.00  0.00     0.017 A 
HETATM   19  C   UNL     1      28.580  38.541  49.735  1.00  0.00     0.077 A 
HETATM   20  C   UNL     1      28.707  37.877  48.517  1.00  0.00     0.039 A 
HETATM   21  C   UNL     1      28.482  38.564  47.323  1.00  0.00     0.022 A 
HETATM   22  C   UNL     1      28.128  39.913  47.357  1.00  0.00     0.012 A 
HETATM   23 BR   UNL     1      27.828  40.843  45.737  1.00  0.00    -0.051 Br
HETATM   24  C   UNL     1      27.989  40.584  48.571  1.00  0.00     0.034 A 
BRANCH  19  25
HETATM   25  O   UNL     1      28.816  37.798  50.858  1.00  0.00    -0.360 OA
HETATM   26  H   UNL     1      29.748  37.480  50.835  1.00  0.00     0.217 HD
ENDBRANCH  19  25
ENDBRANCH  17  18
ENDBRANCH   2  16
TORSDOF 5
ENDMDL
MODEL 9
REMARK VINA RESULT:      -7.7      3.327      8.366
REMARK  5 active torsions:
REMARK  status: ('A' for Active; 'I' for Inactive)
REMARK    1  A    between atoms: C_8  and  C_9 
REMARK    2  A    between atoms: C_9  and  C_10 
REMARK       I    between atoms: C_10  and  N_11 
REMARK    3  A    between atoms: N_11  and  N_12 
REMARK    4  A    between atoms: C_13  and  C_14 
REMARK    5  A    between atoms: C_15  and  O_16 
ROOT
HETATM    1  C   UNL     1      25.156  44.740  51.906  1.00  0.00     0.241 C 
HETATM    2  N   UNL     1      26.501  44.546  51.612  1.00  0.00    -0.247 N 
HETATM    3  O   UNL     1      24.663  44.622  53.027  1.00  0.00    -0.271 OA
HETATM    4  H   UNL     1      26.811  44.578  50.646  1.00  0.00     0.192 HD
ENDROOT
BRANCH   1   5
HETATM    5  C   UNL     1      24.332  45.189  50.708  1.00  0.00     0.145 C 
BRANCH   5   6
HETATM    6  C   UNL     1      24.795  46.509  50.175  1.00  0.00    -0.021 A 
HETATM    7  C   UNL     1      24.039  47.442  49.393  1.00  0.00    -0.001 A 
HETATM    8  C   UNL     1      22.733  47.447  48.857  1.00  0.00     0.014 A 
HETATM    9  C   UNL     1      24.844  48.564  49.191  1.00  0.00     0.042 A 
HETATM   10  C   UNL     1      22.281  48.571  48.155  1.00  0.00     0.001 A 
HETATM   11  C   UNL     1      23.106  49.679  47.981  1.00  0.00     0.002 A 
HETATM   12  C   UNL     1      24.406  49.696  48.493  1.00  0.00     0.030 A 
HETATM   13  N   UNL     1      26.055  48.310  49.788  1.00  0.00    -0.365 N 
HETATM   14  H   UNL     1      26.838  48.949  49.796  1.00  0.00     0.165 HD
HETATM   15  C   UNL     1      26.037  47.079  50.385  1.00  0.00     0.097 A 
ENDBRANCH   5   6
ENDBRANCH   1   5
BRANCH   2  16
HETATM   16  N   UNL     1      27.331  44.026  52.557  1.00  0.00    -0.184 NA
HETATM   17  C   UNL     1      27.978  44.898  53.263  1.00  0.00     0.153 C 
BRANCH  17  18
HETATM   18  C   UNL     1      28.966  44.471  54.273  1.00  0.00     0.017 A 
HETATM   19  C   UNL     1      29.779  43.347  54.087  1.00  0.00     0.077 A 
HETATM   20  C   UNL     1      30.728  43.002  55.047  1.00  0.00     0.039 A 
HETATM   21  C   UNL     1      30.861  43.772  56.203  1.00  0.00     0.022 A 
HETATM   22  C   UNL     1      30.042  44.886  56.390  1.00  0.00     0.012 A 
HETATM   23 BR   UNL     1      30.220  45.926  57.960  1.00  0.00    -0.051 Br
HETATM   24  C   UNL     1      29.095  45.245  55.431  1.00  0.00     0.034 A 
BRANCH  19  25
HETATM   25  O   UNL     1      29.713  42.543  52.983  1.00  0.00    -0.360 OA
HETATM   26  H   UNL     1      30.162  41.690  53.188  1.00  0.00     0.217 HD
ENDBRANCH  19  25
ENDBRANCH  17  18
ENDBRANCH   2  16
TORSDOF 5
ENDMDL
MODEL 10
REMARK VINA RESULT:      -7.6      1.823      2.516
REMARK  5 active torsions:
REMARK  status: ('A' for Active; 'I' for Inactive)
REMARK    1  A    between atoms: C_8  and  C_9 
REMARK    2  A    between atoms: C_9  and  C_10 
REMARK       I    between atoms: C_10  and  N_11 
REMARK    3  A    between atoms: N_11  and  N_12 
REMARK    4  A    between atoms: C_13  and  C_14 
REMARK    5  A    between atoms: C_15  and  O_16 
ROOT
HETATM    1  C   UNL     1      26.500  45.383  52.558  1.00  0.00     0.241 C 
HETATM    2  N   UNL     1      25.464  44.640  52.001  1.00  0.00    -0.247 N 
HETATM    3  O   UNL     1      26.515  46.611  52.635  1.00  0.00    -0.271 OA
HETATM    4  H   UNL     1      25.569  43.636  51.898  1.00  0.00     0.192 HD
ENDROOT
BRANCH   1   5
HETATM    5  C   UNL     1      27.615  44.527  53.141  1.00  0.00     0.145 C 
BRANCH   5   6
HETATM    6  C   UNL     1      28.141  45.092  54.424  1.00  0.00    -0.021 A 
HETATM    7  C   UNL     1      29.228  44.591  55.211  1.00  0.00    -0.001 A 
HETATM    8  C   UNL     1      30.088  43.476  55.106  1.00  0.00     0.014 A 
HETATM    9  C   UNL     1      29.417  45.476  56.273  1.00  0.00     0.042 A 
HETATM   10  C   UNL     1      31.103  43.297  56.053  1.00  0.00     0.001 A 
HETATM   11  C   UNL     1      31.270  44.206  57.095  1.00  0.00     0.002 A 
HETATM   12  C   UNL     1      30.428  45.313  57.226  1.00  0.00     0.030 A 
HETATM   13  N   UNL     1      28.457  46.455  56.162  1.00  0.00    -0.365 N 
HETATM   14  H   UNL     1      28.351  47.231  56.801  1.00  0.00     0.165 HD
HETATM   15  C   UNL     1      27.687  46.236  55.053  1.00  0.00     0.097 A 
ENDBRANCH   5   6
ENDBRANCH   1   5
BRANCH   2  16
HETATM   16  N   UNL     1      24.461  45.274  51.335  1.00  0.00    -0.184 NA
HETATM   17  C   UNL     1      24.794  45.787  50.194  1.00  0.00     0.153 C 
BRANCH  17  18
HETATM   18  C   UNL     1      23.822  46.564  49.401  1.00  0.00     0.017 A 
HETATM   19  C   UNL     1      22.675  45.979  48.852  1.00  0.00     0.077 A 
HETATM   20  C   UNL     1      21.761  46.757  48.145  1.00  0.00     0.039 A 
HETATM   21  C   UNL     1      21.995  48.122  47.973  1.00  0.00     0.022 A 
HETATM   22  C   UNL     1      23.144  48.700  48.512  1.00  0.00     0.012 A 
HETATM   23 BR   UNL     1      23.463  50.550  48.273  1.00  0.00    -0.051 Br
HETATM   24  C   UNL     1      24.061  47.932  49.230  1.00  0.00     0.034 A 
BRANCH  19  25
HETATM   25  O   UNL     1      22.372  44.651  48.979  1.00  0.00    -0.360 OA
HETATM   26  H   UNL     1      22.312  44.256  48.078  1.00  0.00     0.217 HD
ENDBRANCH  19  25
ENDBRANCH  17  18
ENDBRANCH   2  16
TORSDOF 5
ENDMDL
