MODEL 1
REMARK VINA RESULT:      -9.5      0.000      0.000
REMARK  7 active torsions:
REMARK  status: ('A' for Active; 'I' for Inactive)
REMARK    1  A    between atoms: C_11  and  N_12 
REMARK       I    between atoms: N_12  and  C_13 
REMARK    2  A    between atoms: C_13  and  C_14 
REMARK    3  A    between atoms: C_14  and  S_15 
REMARK    4  A    between atoms: S_15  and  C_16 
REMARK    5  A    between atoms: N_17  and  C_18 
REMARK    6  A    between atoms: C_18  and  C_19 
REMARK    7  A    between atoms: C_25  and  C_26 
ROOT
HETATM    1  N   UNL     1      23.185  47.450  48.981  1.00  0.00    -0.326 N 
HETATM    2  C   UNL     1      24.202  47.157  49.878  1.00  0.00     0.231 C 
HETATM    3  O   UNL     1      24.637  47.916  50.740  1.00  0.00    -0.272 OA
HETATM    4  H   UNL     1      23.051  46.777  48.233  1.00  0.00     0.169 HD
ENDROOT
BRANCH   2   5
HETATM    5  C   UNL     1      24.718  45.731  49.779  1.00  0.00     0.185 C 
BRANCH   5   6
HETATM    6  S   UNL     1      24.438  44.798  51.318  1.00  0.00    -0.081 SA
BRANCH   6   7
HETATM    7  C   UNL     1      25.891  43.852  51.343  1.00  0.00     0.192 A 
HETATM    8  N   UNL     1      26.644  43.577  52.461  1.00  0.00    -0.307 N 
HETATM    9  C   UNL     1      27.682  42.788  52.008  1.00  0.00     0.135 A 
HETATM   10  N   UNL     1      27.540  42.617  50.705  1.00  0.00    -0.134 NA
HETATM   11  N   UNL     1      26.431  43.293  50.289  1.00  0.00    -0.123 NA
BRANCH   8  12
HETATM   12  C   UNL     1      26.299  43.934  53.825  1.00  0.00     0.171 C 
BRANCH  12  13
HETATM   13  C   UNL     1      26.811  45.283  54.274  1.00  0.00    -0.040 A 
HETATM   14  C   UNL     1      28.133  45.498  54.692  1.00  0.00     0.009 A 
HETATM   15  C   UNL     1      28.559  46.771  55.082  1.00  0.00     0.001 A 
HETATM   16  C   UNL     1      27.678  47.848  55.039  1.00  0.00     0.000 A 
HETATM   17  C   UNL     1      26.371  47.658  54.601  1.00  0.00     0.001 A 
HETATM   18  C   UNL     1      25.942  46.386  54.214  1.00  0.00     0.009 A 
ENDBRANCH  12  13
ENDBRANCH   8  12
BRANCH   9  19
HETATM   19  C   UNL     1      28.880  42.130  52.682  1.00  0.00     0.057 A 
HETATM   20  C   UNL     1      30.113  42.935  53.019  1.00  0.00     0.013 A 
HETATM   21  C   UNL     1      29.279  42.364  54.116  1.00  0.00     0.013 A 
ENDBRANCH   9  19
ENDBRANCH   6   7
ENDBRANCH   5   6
ENDBRANCH   2   5
BRANCH   1  22
HETATM   22  C   UNL     1      22.400  48.620  48.933  1.00  0.00     0.037 A 
HETATM   23  C   UNL     1      22.934  49.905  48.796  1.00  0.00     0.032 A 
HETATM   24  C   UNL     1      22.099  51.027  48.781  1.00  0.00     0.041 A 
HETATM   25  C   UNL     1      20.721  50.875  48.885  1.00  0.00     0.096 A 
HETATM   26  O   UNL     1      19.980  52.022  48.886  1.00  0.00    -0.335 OA
HETATM   27  C   UNL     1      20.178  49.598  49.025  1.00  0.00     0.070 A 
HETATM   28  C   UNL     1      18.582  51.840  48.678  1.00  0.00     0.217 C 
HETATM   29  C   UNL     1      18.283  52.130  47.209  1.00  0.00     0.050 C 
HETATM   30  C   UNL     1      17.941  50.501  49.068  1.00  0.00     0.251 C 
HETATM   31  N   UNL     1      18.799  49.439  49.155  1.00  0.00    -0.323 N 
HETATM   32  O   UNL     1      16.731  50.350  49.224  1.00  0.00    -0.270 OA
HETATM   33  H   UNL     1      18.387  48.535  49.340  1.00  0.00     0.169 HD
HETATM   34  C   UNL     1      21.012  48.474  49.060  1.00  0.00     0.062 A 
ENDBRANCH   1  22
TORSDOF 7
ENDMDL
MODEL 2
REMARK VINA RESULT:      -9.5      1.479      3.071
REMARK  7 active torsions:
REMARK  status: ('A' for Active; 'I' for Inactive)
REMARK    1  A    between atoms: C_11  and  N_12 
REMARK       I    between atoms: N_12  and  C_13 
REMARK    2  A    between atoms: C_13  and  C_14 
REMARK    3  A    between atoms: C_14  and  S_15 
REMARK    4  A    between atoms: S_15  and  C_16 
REMARK    5  A    between atoms: N_17  and  C_18 
REMARK    6  A    between atoms: C_18  and  C_19 
REMARK    7  A    between atoms: C_25  and  C_26 
ROOT
HETATM    1  N   UNL     1      23.196  47.837  49.467  1.00  0.00    -0.326 N 
HETATM    2  C   UNL     1      23.294  46.616  48.816  1.00  0.00     0.231 C 
HETATM    3  O   UNL     1      22.548  46.217  47.926  1.00  0.00    -0.272 OA
HETATM    4  H   UNL     1      23.788  47.950  50.283  1.00  0.00     0.169 HD
ENDROOT
BRANCH   2   5
HETATM    5  C   UNL     1      24.497  45.789  49.239  1.00  0.00     0.185 C 
BRANCH   5   6
HETATM    6  S   UNL     1      24.158  44.812  50.738  1.00  0.00    -0.081 SA
BRANCH   6   7
HETATM    7  C   UNL     1      24.941  45.817  51.914  1.00  0.00     0.192 A 
HETATM    8  N   UNL     1      25.611  45.367  53.027  1.00  0.00    -0.307 N 
HETATM    9  C   UNL     1      26.076  46.508  53.649  1.00  0.00     0.135 A 
HETATM   10  N   UNL     1      25.698  47.556  52.939  1.00  0.00    -0.134 NA
HETATM   11  N   UNL     1      24.977  47.126  51.865  1.00  0.00    -0.123 NA
BRANCH   8  12
HETATM   12  C   UNL     1      25.875  43.978  53.355  1.00  0.00     0.171 C 
BRANCH  12  13
HETATM   13  C   UNL     1      27.339  43.607  53.396  1.00  0.00    -0.040 A 
HETATM   14  C   UNL     1      27.981  43.156  54.560  1.00  0.00     0.009 A 
HETATM   15  C   UNL     1      29.334  42.810  54.539  1.00  0.00     0.001 A 
HETATM   16  C   UNL     1      30.060  42.889  53.353  1.00  0.00     0.000 A 
HETATM   17  C   UNL     1      29.433  43.308  52.184  1.00  0.00     0.001 A 
HETATM   18  C   UNL     1      28.081  43.658  52.203  1.00  0.00     0.009 A 
ENDBRANCH  12  13
ENDBRANCH   8  12
BRANCH   9  19
HETATM   19  C   UNL     1      26.883  46.766  54.917  1.00  0.00     0.057 A 
HETATM   20  C   UNL     1      28.390  46.854  54.867  1.00  0.00     0.013 A 
HETATM   21  C   UNL     1      27.589  48.061  55.223  1.00  0.00     0.013 A 
ENDBRANCH   9  19
ENDBRANCH   6   7
ENDBRANCH   5   6
ENDBRANCH   2   5
BRANCH   1  22
HETATM   22  C   UNL     1      22.294  48.884  49.185  1.00  0.00     0.037 A 
HETATM   23  C   UNL     1      22.689  50.208  48.969  1.00  0.00     0.032 A 
HETATM   24  C   UNL     1      21.739  51.204  48.718  1.00  0.00     0.041 A 
HETATM   25  C   UNL     1      20.387  50.884  48.663  1.00  0.00     0.096 A 
HETATM   26  O   UNL     1      19.526  51.918  48.437  1.00  0.00    -0.335 OA
HETATM   27  C   UNL     1      19.983  49.567  48.880  1.00  0.00     0.070 A 
HETATM   28  C   UNL     1      18.201  51.535  48.076  1.00  0.00     0.217 C 
HETATM   29  C   UNL     1      18.079  51.636  46.557  1.00  0.00     0.050 C 
HETATM   30  C   UNL     1      17.672  50.169  48.534  1.00  0.00     0.251 C 
HETATM   31  N   UNL     1      18.627  49.242  48.851  1.00  0.00    -0.323 N 
HETATM   32  O   UNL     1      16.478  49.877  48.552  1.00  0.00    -0.270 OA
HETATM   33  H   UNL     1      18.301  48.315  49.086  1.00  0.00     0.169 HD
HETATM   34  C   UNL     1      20.928  48.571  49.151  1.00  0.00     0.062 A 
ENDBRANCH   1  22
TORSDOF 7
ENDMDL
MODEL 3
REMARK VINA RESULT:      -9.2      1.788      2.388
REMARK  7 active torsions:
REMARK  status: ('A' for Active; 'I' for Inactive)
REMARK    1  A    between atoms: C_11  and  N_12 
REMARK       I    between atoms: N_12  and  C_13 
REMARK    2  A    between atoms: C_13  and  C_14 
REMARK    3  A    between atoms: C_14  and  S_15 
REMARK    4  A    between atoms: S_15  and  C_16 
REMARK    5  A    between atoms: N_17  and  C_18 
REMARK    6  A    between atoms: C_18  and  C_19 
REMARK    7  A    between atoms: C_25  and  C_26 
ROOT
HETATM    1  N   UNL     1      24.273  48.388  49.538  1.00  0.00    -0.326 N 
HETATM    2  C   UNL     1      25.580  48.692  49.189  1.00  0.00     0.231 C 
HETATM    3  O   UNL     1      25.928  49.574  48.409  1.00  0.00    -0.272 OA
HETATM    4  H   UNL     1      24.146  47.533  50.070  1.00  0.00     0.169 HD
ENDROOT
BRANCH   2   5
HETATM    5  C   UNL     1      26.622  47.874  49.936  1.00  0.00     0.185 C 
BRANCH   5   6
HETATM    6  S   UNL     1      25.872  46.843  51.237  1.00  0.00    -0.081 SA
BRANCH   6   7
HETATM    7  C   UNL     1      26.458  45.289  50.739  1.00  0.00     0.192 A 
HETATM    8  N   UNL     1      26.719  44.229  51.576  1.00  0.00    -0.307 N 
HETATM    9  C   UNL     1      27.143  43.213  50.745  1.00  0.00     0.135 A 
HETATM   10  N   UNL     1      27.130  43.656  49.500  1.00  0.00    -0.134 NA
HETATM   11  N   UNL     1      26.717  44.956  49.498  1.00  0.00    -0.123 NA
BRANCH   8  12
HETATM   12  C   UNL     1      26.447  44.187  53.001  1.00  0.00     0.171 C 
BRANCH  12  13
HETATM   13  C   UNL     1      27.672  44.277  53.881  1.00  0.00    -0.040 A 
HETATM   14  C   UNL     1      28.633  43.256  53.960  1.00  0.00     0.009 A 
HETATM   15  C   UNL     1      29.757  43.398  54.778  1.00  0.00     0.001 A 
HETATM   16  C   UNL     1      29.948  44.565  55.511  1.00  0.00     0.000 A 
HETATM   17  C   UNL     1      29.020  45.599  55.423  1.00  0.00     0.001 A 
HETATM   18  C   UNL     1      27.893  45.459  54.609  1.00  0.00     0.009 A 
ENDBRANCH  12  13
ENDBRANCH   8  12
BRANCH   9  19
HETATM   19  C   UNL     1      27.598  41.777  50.979  1.00  0.00     0.057 A 
HETATM   20  C   UNL     1      26.615  40.633  50.890  1.00  0.00     0.013 A 
HETATM   21  C   UNL     1      27.720  40.739  49.893  1.00  0.00     0.013 A 
ENDBRANCH   9  19
ENDBRANCH   6   7
ENDBRANCH   5   6
ENDBRANCH   2   5
BRANCH   1  22
HETATM   22  C   UNL     1      23.104  49.073  49.145  1.00  0.00     0.037 A 
HETATM   23  C   UNL     1      22.989  50.466  49.141  1.00  0.00     0.032 A 
HETATM   24  C   UNL     1      21.791  51.082  48.764  1.00  0.00     0.041 A 
HETATM   25  C   UNL     1      20.702  50.311  48.370  1.00  0.00     0.096 A 
HETATM   26  O   UNL     1      19.564  50.989  48.040  1.00  0.00    -0.335 OA
HETATM   27  C   UNL     1      20.806  48.921  48.373  1.00  0.00     0.070 A 
HETATM   28  C   UNL     1      18.580  50.223  47.350  1.00  0.00     0.217 C 
HETATM   29  C   UNL     1      18.707  50.525  45.859  1.00  0.00     0.050 C 
HETATM   30  C   UNL     1      18.547  48.702  47.555  1.00  0.00     0.251 C 
HETATM   31  N   UNL     1      19.711  48.141  48.004  1.00  0.00    -0.323 N 
HETATM   32  O   UNL     1      17.577  48.002  47.270  1.00  0.00    -0.270 OA
HETATM   33  H   UNL     1      19.732  47.133  48.077  1.00  0.00     0.169 HD
HETATM   34  C   UNL     1      21.996  48.301  48.770  1.00  0.00     0.062 A 
ENDBRANCH   1  22
TORSDOF 7
ENDMDL
MODEL 4
REMARK VINA RESULT:      -9.0      1.673      2.575
REMARK  7 active torsions:
REMARK  status: ('A' for Active; 'I' for Inactive)
REMARK    1  A    between atoms: C_11  and  N_12 
REMARK       I    between atoms: N_12  and  C_13 
REMARK    2  A    between atoms: C_13  and  C_14 
REMARK    3  A    between atoms: C_14  and  S_15 
REMARK    4  A    between atoms: S_15  and  C_16 
REMARK    5  A    between atoms: N_17  and  C_18 
REMARK    6  A    between atoms: C_18  and  C_19 
REMARK    7  A    between atoms: C_25  and  C_26 
ROOT
HETATM    1  N   UNL     1      23.372  48.659  49.636  1.00  0.00    -0.326 N 
HETATM    2  C   UNL     1      24.007  47.433  49.761  1.00  0.00     0.231 C 
HETATM    3  O   UNL     1      23.537  46.345  49.436  1.00  0.00    -0.272 OA
HETATM    4  H   UNL     1      23.828  49.440  50.094  1.00  0.00     0.169 HD
ENDROOT
BRANCH   2   5
HETATM    5  C   UNL     1      25.433  47.529  50.281  1.00  0.00     0.185 C 
BRANCH   5   6
HETATM    6  S   UNL     1      25.677  46.530  51.784  1.00  0.00    -0.081 SA
BRANCH   6   7
HETATM    7  C   UNL     1      26.344  45.099  51.066  1.00  0.00     0.192 A 
HETATM    8  N   UNL     1      26.751  43.978  51.753  1.00  0.00    -0.307 N 
HETATM    9  C   UNL     1      27.190  43.104  50.780  1.00  0.00     0.135 A 
HETATM   10  N   UNL     1      27.048  43.682  49.601  1.00  0.00    -0.134 NA
HETATM   11  N   UNL     1      26.534  44.933  49.781  1.00  0.00    -0.123 NA
BRANCH   8  12
HETATM   12  C   UNL     1      26.592  43.751  53.177  1.00  0.00     0.171 C 
BRANCH  12  13
HETATM   13  C   UNL     1      27.843  43.969  53.995  1.00  0.00    -0.040 A 
HETATM   14  C   UNL     1      28.069  45.129  54.754  1.00  0.00     0.009 A 
HETATM   15  C   UNL     1      29.238  45.272  55.505  1.00  0.00     0.001 A 
HETATM   16  C   UNL     1      30.187  44.254  55.527  1.00  0.00     0.000 A 
HETATM   17  C   UNL     1      29.967  43.086  54.803  1.00  0.00     0.001 A 
HETATM   18  C   UNL     1      28.801  42.941  54.047  1.00  0.00     0.009 A 
ENDBRANCH  12  13
ENDBRANCH   8  12
BRANCH   9  19
HETATM   19  C   UNL     1      27.773  41.695  50.811  1.00  0.00     0.057 A 
HETATM   20  C   UNL     1      26.877  40.487  50.674  1.00  0.00     0.013 A 
HETATM   21  C   UNL     1      27.875  40.794  49.608  1.00  0.00     0.013 A 
ENDBRANCH   9  19
ENDBRANCH   6   7
ENDBRANCH   5   6
ENDBRANCH   2   5
BRANCH   1  22
HETATM   22  C   UNL     1      22.119  48.914  49.039  1.00  0.00     0.037 A 
HETATM   23  C   UNL     1      21.767  48.471  47.761  1.00  0.00     0.032 A 
HETATM   24  C   UNL     1      20.515  48.781  47.218  1.00  0.00     0.041 A 
HETATM   25  C   UNL     1      19.597  49.521  47.955  1.00  0.00     0.096 A 
HETATM   26  O   UNL     1      18.409  49.800  47.343  1.00  0.00    -0.335 OA
HETATM   27  C   UNL     1      19.940  49.970  49.229  1.00  0.00     0.070 A 
HETATM   28  C   UNL     1      17.380  50.275  48.206  1.00  0.00     0.217 C 
HETATM   29  C   UNL     1      16.466  49.099  48.542  1.00  0.00     0.050 C 
HETATM   30  C   UNL     1      17.773  50.995  49.504  1.00  0.00     0.251 C 
HETATM   31  N   UNL     1      19.034  50.734  49.964  1.00  0.00    -0.323 N 
HETATM   32  O   UNL     1      16.999  51.703  50.145  1.00  0.00    -0.270 OA
HETATM   33  H   UNL     1      19.287  51.142  50.855  1.00  0.00     0.169 HD
HETATM   34  C   UNL     1      21.198  49.680  49.768  1.00  0.00     0.062 A 
ENDBRANCH   1  22
TORSDOF 7
ENDMDL
MODEL 5
REMARK VINA RESULT:      -8.9      1.657      2.199
REMARK  7 active torsions:
REMARK  status: ('A' for Active; 'I' for Inactive)
REMARK    1  A    between atoms: C_11  and  N_12 
REMARK       I    between atoms: N_12  and  C_13 
REMARK    2  A    between atoms: C_13  and  C_14 
REMARK    3  A    between atoms: C_14  and  S_15 
REMARK    4  A    between atoms: S_15  and  C_16 
REMARK    5  A    between atoms: N_17  and  C_18 
REMARK    6  A    between atoms: C_18  and  C_19 
REMARK    7  A    between atoms: C_25  and  C_26 
ROOT
HETATM    1  N   UNL     1      21.712  48.201  49.346  1.00  0.00    -0.326 N 
HETATM    2  C   UNL     1      23.009  48.007  48.896  1.00  0.00     0.231 C 
HETATM    3  O   UNL     1      23.589  48.696  48.061  1.00  0.00    -0.272 OA
HETATM    4  H   UNL     1      21.327  47.455  49.915  1.00  0.00     0.169 HD
ENDROOT
BRANCH   2   5
HETATM    5  C   UNL     1      23.740  46.873  49.597  1.00  0.00     0.185 C 
BRANCH   5   6
HETATM    6  S   UNL     1      25.342  47.415  50.276  1.00  0.00    -0.081 SA
BRANCH   6   7
HETATM    7  C   UNL     1      26.176  45.895  50.279  1.00  0.00     0.192 A 
HETATM    8  N   UNL     1      26.290  45.051  51.360  1.00  0.00    -0.307 N 
HETATM    9  C   UNL     1      27.013  43.971  50.894  1.00  0.00     0.135 A 
HETATM   10  N   UNL     1      27.301  44.177  49.621  1.00  0.00    -0.134 NA
HETATM   11  N   UNL     1      26.791  45.384  49.242  1.00  0.00    -0.123 NA
BRANCH   8  12
HETATM   12  C   UNL     1      25.645  45.228  52.648  1.00  0.00     0.171 C 
BRANCH  12  13
HETATM   13  C   UNL     1      26.528  45.822  53.720  1.00  0.00    -0.040 A 
HETATM   14  C   UNL     1      26.415  47.153  54.153  1.00  0.00     0.009 A 
HETATM   15  C   UNL     1      27.248  47.646  55.161  1.00  0.00     0.001 A 
HETATM   16  C   UNL     1      28.189  46.816  55.763  1.00  0.00     0.000 A 
HETATM   17  C   UNL     1      28.296  45.487  55.364  1.00  0.00     0.001 A 
HETATM   18  C   UNL     1      27.468  44.991  54.355  1.00  0.00     0.009 A 
ENDBRANCH  12  13
ENDBRANCH   8  12
BRANCH   9  19
HETATM   19  C   UNL     1      27.512  42.680  51.532  1.00  0.00     0.057 A 
HETATM   20  C   UNL     1      26.696  41.411  51.443  1.00  0.00     0.013 A 
HETATM   21  C   UNL     1      28.018  41.491  50.756  1.00  0.00     0.013 A 
ENDBRANCH   9  19
ENDBRANCH   6   7
ENDBRANCH   5   6
ENDBRANCH   2   5
BRANCH   1  22
HETATM   22  C   UNL     1      20.842  49.260  49.010  1.00  0.00     0.037 A 
HETATM   23  C   UNL     1      21.191  50.609  49.113  1.00  0.00     0.032 A 
HETATM   24  C   UNL     1      20.271  51.611  48.788  1.00  0.00     0.041 A 
HETATM   25  C   UNL     1      18.998  51.274  48.340  1.00  0.00     0.096 A 
HETATM   26  O   UNL     1      18.154  52.311  48.067  1.00  0.00    -0.335 OA
HETATM   27  C   UNL     1      18.639  49.931  48.237  1.00  0.00     0.070 A 
HETATM   28  C   UNL     1      16.988  51.964  47.324  1.00  0.00     0.217 C 
HETATM   29  C   UNL     1      17.241  52.316  45.859  1.00  0.00     0.050 C 
HETATM   30  C   UNL     1      16.452  50.529  47.411  1.00  0.00     0.251 C 
HETATM   31  N   UNL     1      17.357  49.584  47.813  1.00  0.00    -0.323 N 
HETATM   32  O   UNL     1      15.313  50.211  47.077  1.00  0.00    -0.270 OA
HETATM   33  H   UNL     1      17.044  48.623  47.808  1.00  0.00     0.169 HD
HETATM   34  C   UNL     1      19.550  48.925  48.580  1.00  0.00     0.062 A 
ENDBRANCH   1  22
TORSDOF 7
ENDMDL
MODEL 6
REMARK VINA RESULT:      -8.9      3.027     10.362
REMARK  7 active torsions:
REMARK  status: ('A' for Active; 'I' for Inactive)
REMARK    1  A    between atoms: C_11  and  N_12 
REMARK       I    between atoms: N_12  and  C_13 
REMARK    2  A    between atoms: C_13  and  C_14 
REMARK    3  A    between atoms: C_14  and  S_15 
REMARK    4  A    between atoms: S_15  and  C_16 
REMARK    5  A    between atoms: N_17  and  C_18 
REMARK    6  A    between atoms: C_18  and  C_19 
REMARK    7  A    between atoms: C_25  and  C_26 
ROOT
HETATM    1  N   UNL     1      24.052  47.329  50.257  1.00  0.00    -0.326 N 
HETATM    2  C   UNL     1      24.641  48.347  49.522  1.00  0.00     0.231 C 
HETATM    3  O   UNL     1      25.822  48.681  49.578  1.00  0.00    -0.272 OA
HETATM    4  H   UNL     1      23.040  47.283  50.214  1.00  0.00     0.169 HD
ENDROOT
BRANCH   2   5
HETATM    5  C   UNL     1      23.701  49.009  48.527  1.00  0.00     0.185 C 
BRANCH   5   6
HETATM    6  S   UNL     1      22.450  50.040  49.357  1.00  0.00    -0.081 SA
BRANCH   6   7
HETATM    7  C   UNL     1      21.080  48.985  49.221  1.00  0.00     0.192 A 
HETATM    8  N   UNL     1      19.791  49.301  49.584  1.00  0.00    -0.307 N 
HETATM    9  C   UNL     1      19.050  48.176  49.284  1.00  0.00     0.135 A 
HETATM   10  N   UNL     1      19.860  47.263  48.778  1.00  0.00    -0.134 NA
HETATM   11  N   UNL     1      21.129  47.763  48.753  1.00  0.00    -0.123 NA
BRANCH   8  12
HETATM   12  C   UNL     1      19.332  50.601  50.039  1.00  0.00     0.171 C 
BRANCH  12  13
HETATM   13  C   UNL     1      18.247  51.220  49.190  1.00  0.00    -0.040 A 
HETATM   14  C   UNL     1      18.384  51.433  47.809  1.00  0.00     0.009 A 
HETATM   15  C   UNL     1      17.341  51.994  47.068  1.00  0.00     0.001 A 
HETATM   16  C   UNL     1      16.142  52.332  47.689  1.00  0.00     0.000 A 
HETATM   17  C   UNL     1      15.978  52.102  49.052  1.00  0.00     0.001 A 
HETATM   18  C   UNL     1      17.020  51.544  49.796  1.00  0.00     0.009 A 
ENDBRANCH  12  13
ENDBRANCH   8  12
BRANCH   9  19
HETATM   19  C   UNL     1      17.575  47.815  49.424  1.00  0.00     0.057 A 
HETATM   20  C   UNL     1      16.587  48.182  48.342  1.00  0.00     0.013 A 
HETATM   21  C   UNL     1      16.885  46.746  48.616  1.00  0.00     0.013 A 
ENDBRANCH   9  19
ENDBRANCH   6   7
ENDBRANCH   5   6
ENDBRANCH   2   5
BRANCH   1  22
HETATM   22  C   UNL     1      24.694  46.429  51.134  1.00  0.00     0.037 A 
HETATM   23  C   UNL     1      24.614  45.039  51.010  1.00  0.00     0.032 A 
HETATM   24  C   UNL     1      25.255  44.202  51.930  1.00  0.00     0.041 A 
HETATM   25  C   UNL     1      25.997  44.747  52.973  1.00  0.00     0.096 A 
HETATM   26  O   UNL     1      26.570  43.862  53.839  1.00  0.00    -0.335 OA
HETATM   27  C   UNL     1      26.080  46.132  53.107  1.00  0.00     0.070 A 
HETATM   28  C   UNL     1      27.566  44.413  54.697  1.00  0.00     0.217 C 
HETATM   29  C   UNL     1      28.934  44.090  54.100  1.00  0.00     0.050 C 
HETATM   30  C   UNL     1      27.506  45.908  55.040  1.00  0.00     0.251 C 
HETATM   31  N   UNL     1      26.801  46.687  54.163  1.00  0.00    -0.323 N 
HETATM   32  O   UNL     1      28.105  46.409  55.990  1.00  0.00    -0.270 OA
HETATM   33  H   UNL     1      26.810  47.684  54.332  1.00  0.00     0.169 HD
HETATM   34  C   UNL     1      25.424  46.973  52.200  1.00  0.00     0.062 A 
ENDBRANCH   1  22
TORSDOF 7
ENDMDL
MODEL 7
REMARK VINA RESULT:      -8.9      3.475      9.639
REMARK  7 active torsions:
REMARK  status: ('A' for Active; 'I' for Inactive)
REMARK    1  A    between atoms: C_11  and  N_12 
REMARK       I    between atoms: N_12  and  C_13 
REMARK    2  A    between atoms: C_13  and  C_14 
REMARK    3  A    between atoms: C_14  and  S_15 
REMARK    4  A    between atoms: S_15  and  C_16 
REMARK    5  A    between atoms: N_17  and  C_18 
REMARK    6  A    between atoms: C_18  and  C_19 
REMARK    7  A    between atoms: C_25  and  C_26 
ROOT
HETATM    1  N   UNL     1      24.636  43.242  48.698  1.00  0.00    -0.326 N 
HETATM    2  C   UNL     1      23.259  43.078  48.665  1.00  0.00     0.231 C 
HETATM    3  O   UNL     1      22.597  42.407  49.453  1.00  0.00    -0.272 OA
HETATM    4  H   UNL     1      25.044  43.695  47.888  1.00  0.00     0.169 HD
ENDROOT
BRANCH   2   5
HETATM    5  C   UNL     1      22.568  43.891  47.581  1.00  0.00     0.185 C 
BRANCH   5   6
HETATM    6  S   UNL     1      21.435  45.133  48.281  1.00  0.00    -0.081 SA
BRANCH   6   7
HETATM    7  C   UNL     1      22.584  46.367  48.686  1.00  0.00     0.192 A 
HETATM    8  N   UNL     1      22.502  47.687  48.307  1.00  0.00    -0.307 N 
HETATM    9  C   UNL     1      23.612  48.288  48.867  1.00  0.00     0.135 A 
HETATM   10  N   UNL     1      24.295  47.372  49.529  1.00  0.00    -0.134 NA
HETATM   11  N   UNL     1      23.662  46.170  49.404  1.00  0.00    -0.123 NA
BRANCH   8  12
HETATM   12  C   UNL     1      21.393  48.300  47.600  1.00  0.00     0.171 C 
BRANCH  12  13
HETATM   13  C   UNL     1      20.659  49.367  48.379  1.00  0.00    -0.040 A 
HETATM   14  C   UNL     1      20.046  49.123  49.618  1.00  0.00     0.009 A 
HETATM   15  C   UNL     1      19.394  50.150  50.304  1.00  0.00     0.001 A 
HETATM   16  C   UNL     1      19.363  51.437  49.776  1.00  0.00     0.000 A 
HETATM   17  C   UNL     1      19.989  51.703  48.562  1.00  0.00     0.001 A 
HETATM   18  C   UNL     1      20.639  50.678  47.871  1.00  0.00     0.009 A 
ENDBRANCH  12  13
ENDBRANCH   8  12
BRANCH   9  19
HETATM   19  C   UNL     1      24.159  49.711  48.858  1.00  0.00     0.057 A 
HETATM   20  C   UNL     1      25.424  50.045  48.102  1.00  0.00     0.013 A 
HETATM   21  C   UNL     1      24.122  50.625  47.660  1.00  0.00     0.013 A 
ENDBRANCH   9  19
ENDBRANCH   6   7
ENDBRANCH   5   6
ENDBRANCH   2   5
BRANCH   1  22
HETATM   22  C   UNL     1      25.529  42.755  49.674  1.00  0.00     0.037 A 
HETATM   23  C   UNL     1      26.084  41.472  49.644  1.00  0.00     0.032 A 
HETATM   24  C   UNL     1      26.946  41.043  50.659  1.00  0.00     0.041 A 
HETATM   25  C   UNL     1      27.274  41.898  51.705  1.00  0.00     0.096 A 
HETATM   26  O   UNL     1      28.102  41.393  52.667  1.00  0.00    -0.335 OA
HETATM   27  C   UNL     1      26.724  43.178  51.747  1.00  0.00     0.070 A 
HETATM   28  C   UNL     1      28.671  42.360  53.545  1.00  0.00     0.217 C 
HETATM   29  C   UNL     1      30.087  42.663  53.060  1.00  0.00     0.050 C 
HETATM   30  C   UNL     1      27.925  43.682  53.778  1.00  0.00     0.251 C 
HETATM   31  N   UNL     1      27.028  44.032  52.806  1.00  0.00    -0.323 N 
HETATM   32  O   UNL     1      28.153  44.430  54.726  1.00  0.00    -0.270 OA
HETATM   33  H   UNL     1      26.580  44.933  52.904  1.00  0.00     0.169 HD
HETATM   34  C   UNL     1      25.846  43.604  50.744  1.00  0.00     0.062 A 
ENDBRANCH   1  22
TORSDOF 7
ENDMDL
MODEL 8
REMARK VINA RESULT:      -8.9      2.002      3.888
REMARK  7 active torsions:
REMARK  status: ('A' for Active; 'I' for Inactive)
REMARK    1  A    between atoms: C_11  and  N_12 
REMARK       I    between atoms: N_12  and  C_13 
REMARK    2  A    between atoms: C_13  and  C_14 
REMARK    3  A    between atoms: C_14  and  S_15 
REMARK    4  A    between atoms: S_15  and  C_16 
REMARK    5  A    between atoms: N_17  and  C_18 
REMARK    6  A    between atoms: C_18  and  C_19 
REMARK    7  A    between atoms: C_25  and  C_26 
ROOT
HETATM    1  N   UNL     1      21.878  48.871  49.643  1.00  0.00    -0.326 N 
HETATM    2  C   UNL     1      22.870  48.831  48.674  1.00  0.00     0.231 C 
HETATM    3  O   UNL     1      22.778  49.280  47.535  1.00  0.00    -0.272 OA
HETATM    4  H   UNL     1      22.053  48.319  50.475  1.00  0.00     0.169 HD
ENDROOT
BRANCH   2   5
HETATM    5  C   UNL     1      24.181  48.234  49.161  1.00  0.00     0.185 C 
BRANCH   5   6
HETATM    6  S   UNL     1      23.988  46.498  49.676  1.00  0.00    -0.081 SA
BRANCH   6   7
HETATM    7  C   UNL     1      24.987  46.511  51.093  1.00  0.00     0.192 A 
HETATM    8  N   UNL     1      25.220  45.432  51.914  1.00  0.00    -0.307 N 
HETATM    9  C   UNL     1      26.076  45.903  52.889  1.00  0.00     0.135 A 
HETATM   10  N   UNL     1      26.325  47.178  52.648  1.00  0.00    -0.134 NA
HETATM   11  N   UNL     1      25.633  47.561  51.536  1.00  0.00    -0.123 NA
BRANCH   8  12
HETATM   12  C   UNL     1      24.763  44.074  51.682  1.00  0.00     0.171 C 
BRANCH  12  13
HETATM   13  C   UNL     1      25.774  43.174  51.011  1.00  0.00    -0.040 A 
HETATM   14  C   UNL     1      26.661  42.354  51.726  1.00  0.00     0.009 A 
HETATM   15  C   UNL     1      27.566  41.528  51.055  1.00  0.00     0.001 A 
HETATM   16  C   UNL     1      27.585  41.493  49.664  1.00  0.00     0.000 A 
HETATM   17  C   UNL     1      26.694  42.279  48.939  1.00  0.00     0.001 A 
HETATM   18  C   UNL     1      25.791  43.109  49.607  1.00  0.00     0.009 A 
ENDBRANCH  12  13
ENDBRANCH   8  12
BRANCH   9  19
HETATM   19  C   UNL     1      26.737  45.272  54.109  1.00  0.00     0.057 A 
HETATM   20  C   UNL     1      28.106  44.641  54.004  1.00  0.00     0.013 A 
HETATM   21  C   UNL     1      27.917  45.866  54.835  1.00  0.00     0.013 A 
ENDBRANCH   9  19
ENDBRANCH   6   7
ENDBRANCH   5   6
ENDBRANCH   2   5
BRANCH   1  22
HETATM   22  C   UNL     1      20.620  49.502  49.549  1.00  0.00     0.037 A 
HETATM   23  C   UNL     1      20.380  50.814  49.969  1.00  0.00     0.032 A 
HETATM   24  C   UNL     1      19.101  51.372  49.871  1.00  0.00     0.041 A 
HETATM   25  C   UNL     1      18.053  50.630  49.337  1.00  0.00     0.096 A 
HETATM   26  O   UNL     1      16.833  51.240  49.299  1.00  0.00    -0.335 OA
HETATM   27  C   UNL     1      18.281  49.319  48.918  1.00  0.00     0.070 A 
HETATM   28  C   UNL     1      15.860  50.599  48.478  1.00  0.00     0.217 C 
HETATM   29  C   UNL     1      15.816  51.334  47.139  1.00  0.00     0.050 C 
HETATM   30  C   UNL     1      15.983  49.091  48.220  1.00  0.00     0.251 C 
HETATM   31  N   UNL     1      17.231  48.560  48.405  1.00  0.00    -0.323 N 
HETATM   32  O   UNL     1      15.057  48.398  47.803  1.00  0.00    -0.270 OA
HETATM   33  H   UNL     1      17.349  47.584  48.171  1.00  0.00     0.169 HD
HETATM   34  C   UNL     1      19.555  48.751  49.033  1.00  0.00     0.062 A 
ENDBRANCH   1  22
TORSDOF 7
ENDMDL
MODEL 9
REMARK VINA RESULT:      -8.8      3.152      9.917
REMARK  7 active torsions:
REMARK  status: ('A' for Active; 'I' for Inactive)
REMARK    1  A    between atoms: C_11  and  N_12 
REMARK       I    between atoms: N_12  and  C_13 
REMARK    2  A    between atoms: C_13  and  C_14 
REMARK    3  A    between atoms: C_14  and  S_15 
REMARK    4  A    between atoms: S_15  and  C_16 
REMARK    5  A    between atoms: N_17  and  C_18 
REMARK    6  A    between atoms: C_18  and  C_19 
REMARK    7  A    between atoms: C_25  and  C_26 
ROOT
HETATM    1  N   UNL     1      23.871  44.050  48.740  1.00  0.00    -0.326 N 
HETATM    2  C   UNL     1      22.569  43.949  49.206  1.00  0.00     0.231 C 
HETATM    3  O   UNL     1      22.237  43.788  50.378  1.00  0.00    -0.272 OA
HETATM    4  H   UNL     1      23.981  44.022  47.732  1.00  0.00     0.169 HD
ENDROOT
BRANCH   2   5
HETATM    5  C   UNL     1      21.513  44.142  48.129  1.00  0.00     0.185 C 
BRANCH   5   6
HETATM    6  S   UNL     1      20.290  45.408  48.595  1.00  0.00    -0.081 SA
BRANCH   6   7
HETATM    7  C   UNL     1      21.210  46.834  48.238  1.00  0.00     0.192 A 
HETATM    8  N   UNL     1      20.858  48.117  48.589  1.00  0.00    -0.307 N 
HETATM    9  C   UNL     1      21.885  48.909  48.117  1.00  0.00     0.135 A 
HETATM   10  N   UNL     1      22.777  48.133  47.528  1.00  0.00    -0.134 NA
HETATM   11  N   UNL     1      22.348  46.840  47.591  1.00  0.00    -0.123 NA
BRANCH   8  12
HETATM   12  C   UNL     1      19.721  48.492  49.408  1.00  0.00     0.171 C 
BRANCH  12  13
HETATM   13  C   UNL     1      19.131  49.846  49.089  1.00  0.00    -0.040 A 
HETATM   14  C   UNL     1      18.544  50.151  47.851  1.00  0.00     0.009 A 
HETATM   15  C   UNL     1      17.999  51.416  47.615  1.00  0.00     0.001 A 
HETATM   16  C   UNL     1      18.013  52.384  48.614  1.00  0.00     0.000 A 
HETATM   17  C   UNL     1      18.567  52.090  49.856  1.00  0.00     0.001 A 
HETATM   18  C   UNL     1      19.116  50.828  50.095  1.00  0.00     0.009 A 
ENDBRANCH  12  13
ENDBRANCH   8  12
BRANCH   9  19
HETATM   19  C   UNL     1      22.159  50.409  48.142  1.00  0.00     0.057 A 
HETATM   20  C   UNL     1      22.763  51.062  49.363  1.00  0.00     0.013 A 
HETATM   21  C   UNL     1      23.536  51.020  48.087  1.00  0.00     0.013 A 
ENDBRANCH   9  19
ENDBRANCH   6   7
ENDBRANCH   5   6
ENDBRANCH   2   5
BRANCH   1  22
HETATM   22  C   UNL     1      25.053  44.078  49.510  1.00  0.00     0.037 A 
HETATM   23  C   UNL     1      25.984  45.119  49.459  1.00  0.00     0.032 A 
HETATM   24  C   UNL     1      27.150  45.072  50.231  1.00  0.00     0.041 A 
HETATM   25  C   UNL     1      27.387  43.992  51.075  1.00  0.00     0.096 A 
HETATM   26  O   UNL     1      28.559  44.013  51.775  1.00  0.00    -0.335 OA
HETATM   27  C   UNL     1      26.466  42.947  51.130  1.00  0.00     0.070 A 
HETATM   28  C   UNL     1      28.640  43.078  52.848  1.00  0.00     0.217 C 
HETATM   29  C   UNL     1      28.323  43.821  54.144  1.00  0.00     0.050 C 
HETATM   30  C   UNL     1      27.796  41.798  52.782  1.00  0.00     0.251 C 
HETATM   31  N   UNL     1      26.709  41.849  51.954  1.00  0.00    -0.323 N 
HETATM   32  O   UNL     1      28.018  40.805  53.474  1.00  0.00    -0.270 OA
HETATM   33  H   UNL     1      26.100  41.041  51.951  1.00  0.00     0.169 HD
HETATM   34  C   UNL     1      25.308  42.981  50.344  1.00  0.00     0.062 A 
ENDBRANCH   1  22
TORSDOF 7
ENDMDL
MODEL 10
REMARK VINA RESULT:      -8.8      2.072      3.649
REMARK  7 active torsions:
REMARK  status: ('A' for Active; 'I' for Inactive)
REMARK    1  A    between atoms: C_11  and  N_12 
REMARK       I    between atoms: N_12  and  C_13 
REMARK    2  A    between atoms: C_13  and  C_14 
REMARK    3  A    between atoms: C_14  and  S_15 
REMARK    4  A    between atoms: S_15  and  C_16 
REMARK    5  A    between atoms: N_17  and  C_18 
REMARK    6  A    between atoms: C_18  and  C_19 
REMARK    7  A    between atoms: C_25  and  C_26 
ROOT
HETATM    1  N   UNL     1      22.691  45.938  49.016  1.00  0.00    -0.326 N 
HETATM    2  C   UNL     1      22.423  44.659  49.478  1.00  0.00     0.231 C 
HETATM    3  O   UNL     1      21.331  44.096  49.439  1.00  0.00    -0.272 OA
HETATM    4  H   UNL     1      23.599  46.315  49.264  1.00  0.00     0.169 HD
ENDROOT
BRANCH   2   5
HETATM    5  C   UNL     1      23.648  43.922  49.994  1.00  0.00     0.185 C 
BRANCH   5   6
HETATM    6  S   UNL     1      25.195  44.754  49.512  1.00  0.00    -0.081 SA
BRANCH   6   7
HETATM    7  C   UNL     1      25.423  45.757  50.908  1.00  0.00     0.192 A 
HETATM    8  N   UNL     1      25.680  45.304  52.181  1.00  0.00    -0.307 N 
HETATM    9  C   UNL     1      25.802  46.445  52.948  1.00  0.00     0.135 A 
HETATM   10  N   UNL     1      25.626  47.496  52.166  1.00  0.00    -0.134 NA
HETATM   11  N   UNL     1      25.375  47.066  50.897  1.00  0.00    -0.123 NA
BRANCH   8  12
HETATM   12  C   UNL     1      25.913  43.922  52.560  1.00  0.00     0.171 C 
BRANCH  12  13
HETATM   13  C   UNL     1      27.328  43.616  52.992  1.00  0.00    -0.040 A 
HETATM   14  C   UNL     1      27.675  43.325  54.321  1.00  0.00     0.009 A 
HETATM   15  C   UNL     1      28.998  43.033  54.663  1.00  0.00     0.001 A 
HETATM   16  C   UNL     1      29.986  43.006  53.684  1.00  0.00     0.000 A 
HETATM   17  C   UNL     1      29.655  43.265  52.357  1.00  0.00     0.001 A 
HETATM   18  C   UNL     1      28.334  43.561  52.012  1.00  0.00     0.009 A 
ENDBRANCH  12  13
ENDBRANCH   8  12
BRANCH   9  19
HETATM   19  C   UNL     1      26.077  46.700  54.426  1.00  0.00     0.057 A 
HETATM   20  C   UNL     1      27.486  46.927  54.920  1.00  0.00     0.013 A 
HETATM   21  C   UNL     1      26.489  48.034  54.993  1.00  0.00     0.013 A 
ENDBRANCH   9  19
ENDBRANCH   6   7
ENDBRANCH   5   6
ENDBRANCH   2   5
BRANCH   1  22
HETATM   22  C   UNL     1      21.807  46.803  48.338  1.00  0.00     0.037 A 
HETATM   23  C   UNL     1      21.100  46.440  47.188  1.00  0.00     0.032 A 
HETATM   24  C   UNL     1      20.257  47.356  46.549  1.00  0.00     0.041 A 
HETATM   25  C   UNL     1      20.099  48.638  47.064  1.00  0.00     0.096 A 
HETATM   26  O   UNL     1      19.277  49.476  46.368  1.00  0.00    -0.335 OA
HETATM   27  C   UNL     1      20.802  49.011  48.209  1.00  0.00     0.070 A 
HETATM   28  C   UNL     1      18.884  50.656  47.064  1.00  0.00     0.217 C 
HETATM   29  C   UNL     1      17.488  50.423  47.637  1.00  0.00     0.050 C 
HETATM   30  C   UNL     1      19.797  51.204  48.170  1.00  0.00     0.251 C 
HETATM   31  N   UNL     1      20.668  50.302  48.717  1.00  0.00    -0.323 N 
HETATM   32  O   UNL     1      19.719  52.351  48.605  1.00  0.00    -0.270 OA
HETATM   33  H   UNL     1      21.227  50.625  49.495  1.00  0.00     0.169 HD
HETATM   34  C   UNL     1      21.661  48.104  48.839  1.00  0.00     0.062 A 
ENDBRANCH   1  22
TORSDOF 7
ENDMDL
