MODEL 1
REMARK VINA RESULT:      -9.0      0.000      0.000
REMARK  5 active torsions:
REMARK  status: ('A' for Active; 'I' for Inactive)
REMARK    1  A    between atoms: C_4  and  O_5 
REMARK    2  A    between atoms: O_5  and  C_6 
REMARK    3  A    between atoms: C_6  and  C_7 
REMARK       I    between atoms: C_7  and  N_8 
REMARK    4  A    between atoms: N_8  and  N_9 
REMARK    5  A    between atoms: C_10  and  C_11 
ROOT
HETATM    1  C   UNL     1      25.527  46.638  52.655  1.00  0.00     0.261 C 
HETATM    2  N   UNL     1      26.157  45.522  53.198  1.00  0.00    -0.246 N 
HETATM    3  O   UNL     1      25.477  47.760  53.155  1.00  0.00    -0.269 OA
HETATM    4  H   UNL     1      25.916  44.619  52.793  1.00  0.00     0.192 HD
ENDROOT
BRANCH   2   5
HETATM    5  N   UNL     1      26.804  45.442  54.408  1.00  0.00    -0.184 NA
HETATM    6  C   UNL     1      28.038  45.827  54.490  1.00  0.00     0.152 C 
BRANCH   6   7
HETATM    7  C   UNL     1      28.729  45.770  55.764  1.00  0.00     0.011 A 
HETATM    8  C   UNL     1      29.814  44.898  56.105  1.00  0.00     0.004 A 
HETATM    9  C   UNL     1      30.161  45.161  57.431  1.00  0.00     0.043 A 
HETATM   10  C   UNL     1      30.543  43.913  55.404  1.00  0.00     0.014 A 
HETATM   11  C   UNL     1      31.193  44.484  58.094  1.00  0.00     0.030 A 
HETATM   12  N   UNL     1      29.322  46.156  57.878  1.00  0.00    -0.364 N 
HETATM   13  C   UNL     1      31.897  43.513  57.375  1.00  0.00     0.002 A 
HETATM   14  C   UNL     1      31.580  43.231  56.049  1.00  0.00     0.001 A 
HETATM   15  H   UNL     1      29.345  46.549  58.809  1.00  0.00     0.165 HD
HETATM   16  C   UNL     1      28.462  46.534  56.884  1.00  0.00     0.102 A 
ENDBRANCH   6   7
ENDBRANCH   2   5
BRANCH   1  17
HETATM   17  C   UNL     1      24.957  46.373  51.266  1.00  0.00     0.280 C 
BRANCH  17  18
HETATM   18  O   UNL     1      25.959  46.484  50.261  1.00  0.00    -0.342 OA
BRANCH  18  19
HETATM   19  C   UNL     1      25.993  47.700  49.626  1.00  0.00     0.069 A 
HETATM   20  C   UNL     1      24.865  48.401  49.189  1.00  0.00     0.043 A 
HETATM   21  C   UNL     1      25.001  49.634  48.535  1.00  0.00    -0.059 A 
HETATM   22  C   UNL     1      23.789  50.396  48.085  1.00  0.00     0.048 C 
HETATM   23  C   UNL     1      26.279  50.175  48.356  1.00  0.00     0.007 A 
HETATM   24  C   UNL     1      27.405  49.487  48.812  1.00  0.00     0.003 A 
HETATM   25  C   UNL     1      27.259  48.256  49.451  1.00  0.00     0.037 A 
ENDBRANCH  18  19
ENDBRANCH  17  18
ENDBRANCH   1  17
TORSDOF 5
ENDMDL
MODEL 2
REMARK VINA RESULT:      -8.8      2.327      9.077
REMARK  5 active torsions:
REMARK  status: ('A' for Active; 'I' for Inactive)
REMARK    1  A    between atoms: C_4  and  O_5 
REMARK    2  A    between atoms: O_5  and  C_6 
REMARK    3  A    between atoms: C_6  and  C_7 
REMARK       I    between atoms: C_7  and  N_8 
REMARK    4  A    between atoms: N_8  and  N_9 
REMARK    5  A    between atoms: C_10  and  C_11 
ROOT
HETATM    1  C   UNL     1      25.265  45.170  52.524  1.00  0.00     0.261 C 
HETATM    2  N   UNL     1      25.999  46.342  52.365  1.00  0.00    -0.246 N 
HETATM    3  O   UNL     1      24.241  44.865  51.916  1.00  0.00    -0.269 OA
HETATM    4  H   UNL     1      26.677  46.559  53.093  1.00  0.00     0.192 HD
ENDROOT
BRANCH   2   5
HETATM    5  N   UNL     1      25.704  47.399  51.536  1.00  0.00    -0.184 NA
HETATM    6  C   UNL     1      26.088  47.356  50.300  1.00  0.00     0.152 C 
BRANCH   6   7
HETATM    7  C   UNL     1      25.766  48.453  49.407  1.00  0.00     0.011 A 
HETATM    8  C   UNL     1      24.454  48.862  48.998  1.00  0.00     0.004 A 
HETATM    9  C   UNL     1      24.606  49.939  48.123  1.00  0.00     0.043 A 
HETATM   10  C   UNL     1      23.148  48.421  49.299  1.00  0.00     0.014 A 
HETATM   11  C   UNL     1      23.519  50.591  47.528  1.00  0.00     0.030 A 
HETATM   12  N   UNL     1      25.957  50.178  48.007  1.00  0.00    -0.364 N 
HETATM   13  C   UNL     1      22.236  50.133  47.844  1.00  0.00     0.002 A 
HETATM   14  C   UNL     1      22.050  49.064  48.718  1.00  0.00     0.001 A 
HETATM   15  H   UNL     1      26.361  50.905  47.434  1.00  0.00     0.165 HD
HETATM   16  C   UNL     1      26.663  49.296  48.778  1.00  0.00     0.102 A 
ENDBRANCH   6   7
ENDBRANCH   2   5
BRANCH   1  17
HETATM   17  C   UNL     1      25.920  44.194  53.494  1.00  0.00     0.280 C 
BRANCH  17  18
HETATM   18  O   UNL     1      26.945  44.824  54.256  1.00  0.00    -0.342 OA
BRANCH  18  19
HETATM   19  C   UNL     1      28.164  44.197  54.194  1.00  0.00     0.069 A 
HETATM   20  C   UNL     1      29.118  44.206  55.216  1.00  0.00     0.043 A 
HETATM   21  C   UNL     1      30.344  43.546  55.053  1.00  0.00    -0.059 A 
HETATM   22  C   UNL     1      31.359  43.538  56.158  1.00  0.00     0.048 C 
HETATM   23  C   UNL     1      30.590  42.846  53.866  1.00  0.00     0.007 A 
HETATM   24  C   UNL     1      29.630  42.817  52.853  1.00  0.00     0.003 A 
HETATM   25  C   UNL     1      28.418  43.486  53.022  1.00  0.00     0.037 A 
ENDBRANCH  18  19
ENDBRANCH  17  18
ENDBRANCH   1  17
TORSDOF 5
ENDMDL
MODEL 3
REMARK VINA RESULT:      -8.7      2.239      9.392
REMARK  5 active torsions:
REMARK  status: ('A' for Active; 'I' for Inactive)
REMARK    1  A    between atoms: C_4  and  O_5 
REMARK    2  A    between atoms: O_5  and  C_6 
REMARK    3  A    between atoms: C_6  and  C_7 
REMARK       I    between atoms: C_7  and  N_8 
REMARK    4  A    between atoms: N_8  and  N_9 
REMARK    5  A    between atoms: C_10  and  C_11 
ROOT
HETATM    1  C   UNL     1      26.490  47.690  53.977  1.00  0.00     0.261 C 
HETATM    2  N   UNL     1      26.365  47.194  52.683  1.00  0.00    -0.246 N 
HETATM    3  O   UNL     1      25.603  48.226  54.639  1.00  0.00    -0.269 OA
HETATM    4  H   UNL     1      27.231  46.997  52.183  1.00  0.00     0.192 HD
ENDROOT
BRANCH   2   5
HETATM    5  N   UNL     1      25.250  47.242  51.880  1.00  0.00    -0.184 NA
HETATM    6  C   UNL     1      25.399  47.346  50.599  1.00  0.00     0.152 C 
BRANCH   6   7
HETATM    7  C   UNL     1      24.233  47.376  49.736  1.00  0.00     0.011 A 
HETATM    8  C   UNL     1      23.663  48.536  49.116  1.00  0.00     0.004 A 
HETATM    9  C   UNL     1      22.545  48.116  48.393  1.00  0.00     0.043 A 
HETATM   10  C   UNL     1      23.999  49.906  49.096  1.00  0.00     0.014 A 
HETATM   11  C   UNL     1      21.743  48.998  47.658  1.00  0.00     0.030 A 
HETATM   12  N   UNL     1      22.442  46.754  48.563  1.00  0.00    -0.364 N 
HETATM   13  C   UNL     1      22.100  50.350  47.656  1.00  0.00     0.002 A 
HETATM   14  C   UNL     1      23.212  50.800  48.362  1.00  0.00     0.001 A 
HETATM   15  H   UNL     1      21.720  46.179  48.151  1.00  0.00     0.165 HD
HETATM   16  C   UNL     1      23.454  46.298  49.363  1.00  0.00     0.102 A 
ENDBRANCH   6   7
ENDBRANCH   2   5
BRANCH   1  17
HETATM   17  C   UNL     1      27.862  47.414  54.582  1.00  0.00     0.280 C 
BRANCH  17  18
HETATM   18  O   UNL     1      27.800  46.387  55.568  1.00  0.00    -0.342 OA
BRANCH  18  19
HETATM   19  C   UNL     1      28.700  45.369  55.381  1.00  0.00     0.069 A 
HETATM   20  C   UNL     1      29.748  45.062  56.255  1.00  0.00     0.043 A 
HETATM   21  C   UNL     1      30.628  44.008  55.970  1.00  0.00    -0.059 A 
HETATM   22  C   UNL     1      31.739  43.666  56.918  1.00  0.00     0.048 C 
HETATM   23  C   UNL     1      30.426  43.242  54.817  1.00  0.00     0.007 A 
HETATM   24  C   UNL     1      29.367  43.533  53.955  1.00  0.00     0.003 A 
HETATM   25  C   UNL     1      28.504  44.590  54.242  1.00  0.00     0.037 A 
ENDBRANCH  18  19
ENDBRANCH  17  18
ENDBRANCH   1  17
TORSDOF 5
ENDMDL
MODEL 4
REMARK VINA RESULT:      -8.5      2.875      4.399
REMARK  5 active torsions:
REMARK  status: ('A' for Active; 'I' for Inactive)
REMARK    1  A    between atoms: C_4  and  O_5 
REMARK    2  A    between atoms: O_5  and  C_6 
REMARK    3  A    between atoms: C_6  and  C_7 
REMARK       I    between atoms: C_7  and  N_8 
REMARK    4  A    between atoms: N_8  and  N_9 
REMARK    5  A    between atoms: C_10  and  C_11 
ROOT
HETATM    1  C   UNL     1      24.177  48.094  49.621  1.00  0.00     0.261 C 
HETATM    2  N   UNL     1      24.352  47.275  50.732  1.00  0.00    -0.246 N 
HETATM    3  O   UNL     1      24.839  49.092  49.341  1.00  0.00    -0.269 OA
HETATM    4  H   UNL     1      23.590  46.636  50.954  1.00  0.00     0.192 HD
ENDROOT
BRANCH   2   5
HETATM    5  N   UNL     1      25.260  47.443  51.751  1.00  0.00    -0.184 NA
HETATM    6  C   UNL     1      25.301  46.572  52.708  1.00  0.00     0.152 C 
BRANCH   6   7
HETATM    7  C   UNL     1      26.268  46.722  53.779  1.00  0.00     0.011 A 
HETATM    8  C   UNL     1      27.327  45.811  54.104  1.00  0.00     0.004 A 
HETATM    9  C   UNL     1      28.000  46.331  55.211  1.00  0.00     0.043 A 
HETATM   10  C   UNL     1      27.782  44.595  53.552  1.00  0.00     0.014 A 
HETATM   11  C   UNL     1      29.099  45.691  55.798  1.00  0.00     0.030 A 
HETATM   12  N   UNL     1      27.378  47.513  55.544  1.00  0.00    -0.364 N 
HETATM   13  C   UNL     1      29.528  44.487  55.231  1.00  0.00     0.002 A 
HETATM   14  C   UNL     1      28.881  43.945  54.123  1.00  0.00     0.001 A 
HETATM   15  H   UNL     1      27.655  48.108  56.312  1.00  0.00     0.165 HD
HETATM   16  C   UNL     1      26.341  47.761  54.687  1.00  0.00     0.102 A 
ENDBRANCH   6   7
ENDBRANCH   2   5
BRANCH   1  17
HETATM   17  C   UNL     1      23.106  47.572  48.669  1.00  0.00     0.280 C 
BRANCH  17  18
HETATM   18  O   UNL     1      22.592  48.611  47.841  1.00  0.00    -0.342 OA
BRANCH  18  19
HETATM   19  C   UNL     1      21.592  49.351  48.419  1.00  0.00     0.069 A 
HETATM   20  C   UNL     1      20.669  48.857  49.346  1.00  0.00     0.043 A 
HETATM   21  C   UNL     1      19.671  49.690  49.870  1.00  0.00    -0.059 A 
HETATM   22  C   UNL     1      18.693  49.166  50.881  1.00  0.00     0.048 C 
HETATM   23  C   UNL     1      19.629  51.035  49.483  1.00  0.00     0.007 A 
HETATM   24  C   UNL     1      20.563  51.535  48.575  1.00  0.00     0.003 A 
HETATM   25  C   UNL     1      21.546  50.695  48.050  1.00  0.00     0.037 A 
ENDBRANCH  18  19
ENDBRANCH  17  18
ENDBRANCH   1  17
TORSDOF 5
ENDMDL
MODEL 5
REMARK VINA RESULT:      -8.5      2.556      8.317
REMARK  5 active torsions:
REMARK  status: ('A' for Active; 'I' for Inactive)
REMARK    1  A    between atoms: C_4  and  O_5 
REMARK    2  A    between atoms: O_5  and  C_6 
REMARK    3  A    between atoms: C_6  and  C_7 
REMARK       I    between atoms: C_7  and  N_8 
REMARK    4  A    between atoms: N_8  and  N_9 
REMARK    5  A    between atoms: C_10  and  C_11 
ROOT
HETATM    1  C   UNL     1      27.805  42.781  51.797  1.00  0.00     0.261 C 
HETATM    2  N   UNL     1      28.070  44.070  51.344  1.00  0.00    -0.246 N 
HETATM    3  O   UNL     1      26.786  42.128  51.579  1.00  0.00    -0.269 OA
HETATM    4  H   UNL     1      28.838  44.565  51.794  1.00  0.00     0.192 HD
ENDROOT
BRANCH   2   5
HETATM    5  N   UNL     1      27.236  44.877  50.607  1.00  0.00    -0.184 NA
HETATM    6  C   UNL     1      26.458  45.709  51.223  1.00  0.00     0.152 C 
BRANCH   6   7
HETATM    7  C   UNL     1      25.587  46.583  50.460  1.00  0.00     0.011 A 
HETATM    8  C   UNL     1      25.977  47.769  49.754  1.00  0.00     0.004 A 
HETATM    9  C   UNL     1      24.826  48.310  49.179  1.00  0.00     0.043 A 
HETATM   10  C   UNL     1      27.206  48.428  49.543  1.00  0.00     0.014 A 
HETATM   11  C   UNL     1      24.842  49.482  48.412  1.00  0.00     0.030 A 
HETATM   12  N   UNL     1      23.778  47.485  49.519  1.00  0.00    -0.364 N 
HETATM   13  C   UNL     1      26.074  50.114  48.219  1.00  0.00     0.002 A 
HETATM   14  C   UNL     1      27.241  49.596  48.774  1.00  0.00     0.001 A 
HETATM   15  H   UNL     1      22.818  47.634  49.238  1.00  0.00     0.165 HD
HETATM   16  C   UNL     1      24.224  46.441  50.282  1.00  0.00     0.102 A 
ENDBRANCH   6   7
ENDBRANCH   2   5
BRANCH   1  17
HETATM   17  C   UNL     1      28.985  42.167  52.543  1.00  0.00     0.280 C 
BRANCH  17  18
HETATM   18  O   UNL     1      28.746  42.119  53.947  1.00  0.00    -0.342 OA
BRANCH  18  19
HETATM   19  C   UNL     1      29.192  43.219  54.634  1.00  0.00     0.069 A 
HETATM   20  C   UNL     1      28.464  44.401  54.804  1.00  0.00     0.043 A 
HETATM   21  C   UNL     1      29.012  45.480  55.513  1.00  0.00    -0.059 A 
HETATM   22  C   UNL     1      28.223  46.740  55.713  1.00  0.00     0.048 C 
HETATM   23  C   UNL     1      30.285  45.349  56.081  1.00  0.00     0.007 A 
HETATM   24  C   UNL     1      31.004  44.161  55.931  1.00  0.00     0.003 A 
HETATM   25  C   UNL     1      30.454  43.098  55.215  1.00  0.00     0.037 A 
ENDBRANCH  18  19
ENDBRANCH  17  18
ENDBRANCH   1  17
TORSDOF 5
ENDMDL
MODEL 6
REMARK VINA RESULT:      -8.4      2.948      9.940
REMARK  5 active torsions:
REMARK  status: ('A' for Active; 'I' for Inactive)
REMARK    1  A    between atoms: C_4  and  O_5 
REMARK    2  A    between atoms: O_5  and  C_6 
REMARK    3  A    between atoms: C_6  and  C_7 
REMARK       I    between atoms: C_7  and  N_8 
REMARK    4  A    between atoms: N_8  and  N_9 
REMARK    5  A    between atoms: C_10  and  C_11 
ROOT
HETATM    1  C   UNL     1      25.818  46.721  52.402  1.00  0.00     0.261 C 
HETATM    2  N   UNL     1      25.581  46.783  51.032  1.00  0.00    -0.246 N 
HETATM    3  O   UNL     1      25.545  47.590  53.228  1.00  0.00    -0.269 OA
HETATM    4  H   UNL     1      26.068  46.101  50.452  1.00  0.00     0.192 HD
ENDROOT
BRANCH   2   5
HETATM    5  N   UNL     1      25.041  47.835  50.331  1.00  0.00    -0.184 NA
HETATM    6  C   UNL     1      23.950  47.651  49.659  1.00  0.00     0.152 C 
BRANCH   6   7
HETATM    7  C   UNL     1      23.356  48.756  48.931  1.00  0.00     0.011 A 
HETATM    8  C   UNL     1      21.962  48.938  48.648  1.00  0.00     0.004 A 
HETATM    9  C   UNL     1      21.835  50.116  47.911  1.00  0.00     0.043 A 
HETATM   10  C   UNL     1      20.793  48.212  48.959  1.00  0.00     0.014 A 
HETATM   11  C   UNL     1      20.600  50.600  47.462  1.00  0.00     0.030 A 
HETATM   12  N   UNL     1      23.101  50.633  47.754  1.00  0.00    -0.364 N 
HETATM   13  C   UNL     1      19.458  49.861  47.785  1.00  0.00     0.002 A 
HETATM   14  C   UNL     1      19.549  48.684  48.524  1.00  0.00     0.001 A 
HETATM   15  H   UNL     1      23.313  51.487  47.257  1.00  0.00     0.165 HD
HETATM   16  C   UNL     1      24.022  49.828  48.368  1.00  0.00     0.102 A 
ENDBRANCH   6   7
ENDBRANCH   2   5
BRANCH   1  17
HETATM   17  C   UNL     1      26.381  45.374  52.840  1.00  0.00     0.280 C 
BRANCH  17  18
HETATM   18  O   UNL     1      27.202  45.503  53.998  1.00  0.00    -0.342 OA
BRANCH  18  19
HETATM   19  C   UNL     1      28.284  44.660  54.020  1.00  0.00     0.069 A 
HETATM   20  C   UNL     1      29.135  44.487  55.117  1.00  0.00     0.043 A 
HETATM   21  C   UNL     1      30.228  43.611  55.039  1.00  0.00    -0.059 A 
HETATM   22  C   UNL     1      31.128  43.409  56.222  1.00  0.00     0.048 C 
HETATM   23  C   UNL     1      30.438  42.883  53.862  1.00  0.00     0.007 A 
HETATM   24  C   UNL     1      29.576  43.038  52.775  1.00  0.00     0.003 A 
HETATM   25  C   UNL     1      28.499  43.920  52.859  1.00  0.00     0.037 A 
ENDBRANCH  18  19
ENDBRANCH  17  18
ENDBRANCH   1  17
TORSDOF 5
ENDMDL
MODEL 7
REMARK VINA RESULT:      -8.3      5.208      6.620
REMARK  5 active torsions:
REMARK  status: ('A' for Active; 'I' for Inactive)
REMARK    1  A    between atoms: C_4  and  O_5 
REMARK    2  A    between atoms: O_5  and  C_6 
REMARK    3  A    between atoms: C_6  and  C_7 
REMARK       I    between atoms: C_7  and  N_8 
REMARK    4  A    between atoms: N_8  and  N_9 
REMARK    5  A    between atoms: C_10  and  C_11 
ROOT
HETATM    1  C   UNL     1      27.054  43.297  49.888  1.00  0.00     0.261 C 
HETATM    2  N   UNL     1      27.685  42.848  51.044  1.00  0.00    -0.246 N 
HETATM    3  O   UNL     1      26.914  44.469  49.543  1.00  0.00    -0.269 OA
HETATM    4  H   UNL     1      27.518  41.879  51.310  1.00  0.00     0.192 HD
ENDROOT
BRANCH   2   5
HETATM    5  N   UNL     1      28.234  43.619  52.042  1.00  0.00    -0.184 NA
HETATM    6  C   UNL     1      27.492  43.979  53.040  1.00  0.00     0.152 C 
BRANCH   6   7
HETATM    7  C   UNL     1      28.060  44.774  54.111  1.00  0.00     0.011 A 
HETATM    8  C   UNL     1      29.159  44.405  54.955  1.00  0.00     0.004 A 
HETATM    9  C   UNL     1      29.361  45.449  55.859  1.00  0.00     0.043 A 
HETATM   10  C   UNL     1      30.008  43.281  55.028  1.00  0.00     0.014 A 
HETATM   11  C   UNL     1      30.363  45.421  56.837  1.00  0.00     0.030 A 
HETATM   12  N   UNL     1      28.424  46.417  55.574  1.00  0.00    -0.364 N 
HETATM   13  C   UNL     1      31.190  44.295  56.887  1.00  0.00     0.002 A 
HETATM   14  C   UNL     1      31.018  43.239  55.996  1.00  0.00     0.001 A 
HETATM   15  H   UNL     1      28.335  47.291  56.074  1.00  0.00     0.165 HD
HETATM   16  C   UNL     1      27.642  46.025  54.523  1.00  0.00     0.102 A 
ENDBRANCH   6   7
ENDBRANCH   2   5
BRANCH   1  17
HETATM   17  C   UNL     1      26.612  42.155  48.979  1.00  0.00     0.280 C 
BRANCH  17  18
HETATM   18  O   UNL     1      27.618  41.828  48.025  1.00  0.00    -0.342 OA
BRANCH  18  19
HETATM   19  C   UNL     1      28.015  40.514  48.050  1.00  0.00     0.069 A 
HETATM   20  C   UNL     1      28.793  39.936  49.058  1.00  0.00     0.043 A 
HETATM   21  C   UNL     1      29.161  38.585  48.987  1.00  0.00    -0.059 A 
HETATM   22  C   UNL     1      29.978  37.959  50.079  1.00  0.00     0.048 C 
HETATM   23  C   UNL     1      28.711  37.809  47.913  1.00  0.00     0.007 A 
HETATM   24  C   UNL     1      27.915  38.379  46.917  1.00  0.00     0.003 A 
HETATM   25  C   UNL     1      27.564  39.727  46.991  1.00  0.00     0.037 A 
ENDBRANCH  18  19
ENDBRANCH  17  18
ENDBRANCH   1  17
TORSDOF 5
ENDMDL
MODEL 8
REMARK VINA RESULT:      -8.2      2.611      4.081
REMARK  5 active torsions:
REMARK  status: ('A' for Active; 'I' for Inactive)
REMARK    1  A    between atoms: C_4  and  O_5 
REMARK    2  A    between atoms: O_5  and  C_6 
REMARK    3  A    between atoms: C_6  and  C_7 
REMARK       I    between atoms: C_7  and  N_8 
REMARK    4  A    between atoms: N_8  and  N_9 
REMARK    5  A    between atoms: C_10  and  C_11 
ROOT
HETATM    1  C   UNL     1      25.583  47.195  50.135  1.00  0.00     0.261 C 
HETATM    2  N   UNL     1      25.678  45.937  50.722  1.00  0.00    -0.246 N 
HETATM    3  O   UNL     1      26.509  47.982  49.947  1.00  0.00    -0.269 OA
HETATM    4  H   UNL     1      24.805  45.506  51.023  1.00  0.00     0.192 HD
ENDROOT
BRANCH   2   5
HETATM    5  N   UNL     1      26.806  45.348  51.244  1.00  0.00    -0.184 NA
HETATM    6  C   UNL     1      26.691  44.239  51.900  1.00  0.00     0.152 C 
BRANCH   6   7
HETATM    7  C   UNL     1      27.874  43.593  52.438  1.00  0.00     0.011 A 
HETATM    8  C   UNL     1      28.609  43.995  53.601  1.00  0.00     0.004 A 
HETATM    9  C   UNL     1      29.680  43.113  53.745  1.00  0.00     0.043 A 
HETATM   10  C   UNL     1      28.456  45.026  54.554  1.00  0.00     0.014 A 
HETATM   11  C   UNL     1      30.611  43.214  54.786  1.00  0.00     0.030 A 
HETATM   12  N   UNL     1      29.598  42.207  52.711  1.00  0.00    -0.364 N 
HETATM   13  C   UNL     1      30.435  44.244  55.715  1.00  0.00     0.002 A 
HETATM   14  C   UNL     1      29.373  45.138  55.604  1.00  0.00     0.001 A 
HETATM   15  H   UNL     1      30.249  41.448  52.563  1.00  0.00     0.165 HD
HETATM   16  C   UNL     1      28.514  42.482  51.924  1.00  0.00     0.102 A 
ENDBRANCH   6   7
ENDBRANCH   2   5
BRANCH   1  17
HETATM   17  C   UNL     1      24.180  47.499  49.621  1.00  0.00     0.280 C 
BRANCH  17  18
HETATM   18  O   UNL     1      23.758  48.806  50.000  1.00  0.00    -0.342 OA
BRANCH  18  19
HETATM   19  C   UNL     1      22.703  49.293  49.270  1.00  0.00     0.069 A 
HETATM   20  C   UNL     1      21.794  48.503  48.559  1.00  0.00     0.043 A 
HETATM   21  C   UNL     1      20.754  49.095  47.829  1.00  0.00    -0.059 A 
HETATM   22  C   UNL     1      19.767  48.246  47.083  1.00  0.00     0.048 C 
HETATM   23  C   UNL     1      20.612  50.487  47.848  1.00  0.00     0.007 A 
HETATM   24  C   UNL     1      21.505  51.276  48.575  1.00  0.00     0.003 A 
HETATM   25  C   UNL     1      22.543  50.678  49.290  1.00  0.00     0.037 A 
ENDBRANCH  18  19
ENDBRANCH  17  18
ENDBRANCH   1  17
TORSDOF 5
ENDMDL
MODEL 9
REMARK VINA RESULT:      -8.1      1.969      2.851
REMARK  5 active torsions:
REMARK  status: ('A' for Active; 'I' for Inactive)
REMARK    1  A    between atoms: C_4  and  O_5 
REMARK    2  A    between atoms: O_5  and  C_6 
REMARK    3  A    between atoms: C_6  and  C_7 
REMARK       I    between atoms: C_7  and  N_8 
REMARK    4  A    between atoms: N_8  and  N_9 
REMARK    5  A    between atoms: C_10  and  C_11 
ROOT
HETATM    1  C   UNL     1      25.524  44.705  49.913  1.00  0.00     0.261 C 
HETATM    2  N   UNL     1      26.211  45.130  51.046  1.00  0.00    -0.246 N 
HETATM    3  O   UNL     1      25.778  43.708  49.239  1.00  0.00    -0.269 OA
HETATM    4  H   UNL     1      26.038  46.085  51.354  1.00  0.00     0.192 HD
ENDROOT
BRANCH   2   5
HETATM    5  N   UNL     1      27.325  44.551  51.606  1.00  0.00    -0.184 NA
HETATM    6  C   UNL     1      27.428  44.500  52.895  1.00  0.00     0.152 C 
BRANCH   6   7
HETATM    7  C   UNL     1      28.587  43.873  53.503  1.00  0.00     0.011 A 
HETATM    8  C   UNL     1      29.243  44.284  54.709  1.00  0.00     0.004 A 
HETATM    9  C   UNL     1      30.319  43.420  54.915  1.00  0.00     0.043 A 
HETATM   10  C   UNL     1      29.014  45.308  55.653  1.00  0.00     0.014 A 
HETATM   11  C   UNL     1      31.183  43.533  56.012  1.00  0.00     0.030 A 
HETATM   12  N   UNL     1      30.316  42.516  53.877  1.00  0.00    -0.364 N 
HETATM   13  C   UNL     1      30.933  44.557  56.931  1.00  0.00     0.002 A 
HETATM   14  C   UNL     1      29.864  45.433  56.757  1.00  0.00     0.001 A 
HETATM   15  H   UNL     1      30.988  41.769  53.767  1.00  0.00     0.165 HD
HETATM   16  C   UNL     1      29.276  42.775  53.026  1.00  0.00     0.102 A 
ENDBRANCH   6   7
ENDBRANCH   2   5
BRANCH   1  17
HETATM   17  C   UNL     1      24.300  45.563  49.611  1.00  0.00     0.280 C 
BRANCH  17  18
HETATM   18  O   UNL     1      24.326  46.784  50.344  1.00  0.00    -0.342 OA
BRANCH  18  19
HETATM   19  C   UNL     1      24.384  47.911  49.563  1.00  0.00     0.069 A 
HETATM   20  C   UNL     1      23.272  48.565  49.024  1.00  0.00     0.043 A 
HETATM   21  C   UNL     1      23.434  49.704  48.223  1.00  0.00    -0.059 A 
HETATM   22  C   UNL     1      22.239  50.418  47.662  1.00  0.00     0.048 C 
HETATM   23  C   UNL     1      24.722  50.204  47.998  1.00  0.00     0.007 A 
HETATM   24  C   UNL     1      25.832  49.566  48.554  1.00  0.00     0.003 A 
HETATM   25  C   UNL     1      25.661  48.426  49.340  1.00  0.00     0.037 A 
ENDBRANCH  18  19
ENDBRANCH  17  18
ENDBRANCH   1  17
TORSDOF 5
ENDMDL
MODEL 10
REMARK VINA RESULT:      -8.0      3.267      4.190
REMARK  5 active torsions:
REMARK  status: ('A' for Active; 'I' for Inactive)
REMARK    1  A    between atoms: C_4  and  O_5 
REMARK    2  A    between atoms: O_5  and  C_6 
REMARK    3  A    between atoms: C_6  and  C_7 
REMARK       I    between atoms: C_7  and  N_8 
REMARK    4  A    between atoms: N_8  and  N_9 
REMARK    5  A    between atoms: C_10  and  C_11 
ROOT
HETATM    1  C   UNL     1      27.823  41.339  51.989  1.00  0.00     0.261 C 
HETATM    2  N   UNL     1      27.180  42.379  52.654  1.00  0.00    -0.246 N 
HETATM    3  O   UNL     1      28.873  40.796  52.330  1.00  0.00    -0.269 OA
HETATM    4  H   UNL     1      26.460  42.878  52.135  1.00  0.00     0.192 HD
ENDROOT
BRANCH   2   5
HETATM    5  N   UNL     1      27.608  43.027  53.789  1.00  0.00    -0.184 NA
HETATM    6  C   UNL     1      28.200  44.173  53.675  1.00  0.00     0.152 C 
BRANCH   6   7
HETATM    7  C   UNL     1      28.639  44.880  54.863  1.00  0.00     0.011 A 
HETATM    8  C   UNL     1      29.697  44.487  55.746  1.00  0.00     0.004 A 
HETATM    9  C   UNL     1      29.766  45.438  56.765  1.00  0.00     0.043 A 
HETATM   10  C   UNL     1      30.612  43.413  55.768  1.00  0.00     0.014 A 
HETATM   11  C   UNL     1      30.697  45.365  57.809  1.00  0.00     0.030 A 
HETATM   12  N   UNL     1      28.790  46.375  56.510  1.00  0.00    -0.364 N 
HETATM   13  C   UNL     1      31.591  44.290  57.806  1.00  0.00     0.002 A 
HETATM   14  C   UNL     1      31.553  43.327  56.800  1.00  0.00     0.001 A 
HETATM   15  H   UNL     1      28.608  47.183  57.089  1.00  0.00     0.165 HD
HETATM   16  C   UNL     1      28.111  46.053  55.367  1.00  0.00     0.102 A 
ENDBRANCH   6   7
ENDBRANCH   2   5
BRANCH   1  17
HETATM   17  C   UNL     1      27.030  40.829  50.791  1.00  0.00     0.280 C 
BRANCH  17  18
HETATM   18  O   UNL     1      27.309  41.589  49.619  1.00  0.00    -0.342 OA
BRANCH  18  19
HETATM   19  C   UNL     1      26.473  42.659  49.426  1.00  0.00     0.069 A 
HETATM   20  C   UNL     1      26.796  43.986  49.728  1.00  0.00     0.043 A 
HETATM   21  C   UNL     1      25.866  45.013  49.509  1.00  0.00    -0.059 A 
HETATM   22  C   UNL     1      26.220  46.439  49.813  1.00  0.00     0.048 C 
HETATM   23  C   UNL     1      24.621  44.700  48.951  1.00  0.00     0.007 A 
HETATM   24  C   UNL     1      24.306  43.379  48.628  1.00  0.00     0.003 A 
HETATM   25  C   UNL     1      25.234  42.364  48.860  1.00  0.00     0.037 A 
ENDBRANCH  18  19
ENDBRANCH  17  18
ENDBRANCH   1  17
TORSDOF 5
ENDMDL
