MODEL 1
REMARK VINA RESULT:      -9.4      0.000      0.000
REMARK  10 active torsions:
REMARK  status: ('A' for Active; 'I' for Inactive)
REMARK    1  A    between atoms: O_2  and  C_3 
REMARK    2  A    between atoms: C_6  and  C_7 
REMARK    3  A    between atoms: C_7  and  C_8 
REMARK    4  A    between atoms: C_8  and  N_9 
REMARK    5  A    between atoms: N_12  and  C_13 
REMARK    6  A    between atoms: C_16  and  O_17 
REMARK    7  A    between atoms: C_23  and  C_24 
REMARK    8  A    between atoms: C_24  and  C_25 
REMARK       I    between atoms: C_25  and  N_26 
REMARK    9  A    between atoms: N_26  and  C_27 
REMARK   10  A    between atoms: C_30  and  O_31 
ROOT
HETATM    1  N   UNL     1      26.466  45.587  53.068  1.00  0.00    -0.319 N 
HETATM    2  C   UNL     1      25.943  46.733  52.455  1.00  0.00     0.332 C 
HETATM    3  O   UNL     1      25.805  47.791  53.051  1.00  0.00    -0.246 OA
HETATM    4  N   UNL     1      25.577  46.411  51.164  1.00  0.00    -0.232 N 
HETATM    5  C   UNL     1      25.622  45.046  51.034  1.00  0.00     0.256 C 
HETATM    6  O   UNL     1      25.187  44.335  50.132  1.00  0.00    -0.270 OA
HETATM    7  C   UNL     1      26.406  44.435  52.190  1.00  0.00     0.190 C 
ENDROOT
BRANCH   7   8
HETATM    8  C   UNL     1      27.777  44.039  51.645  1.00  0.00     0.138 C 
BRANCH   8   9
HETATM    9  C   UNL     1      27.955  42.552  51.382  1.00  0.00     0.224 C 
HETATM   10  N   UNL     1      27.286  42.068  50.277  1.00  0.00    -0.327 N 
HETATM   11  H   UNL     1      26.566  42.649  49.847  1.00  0.00     0.169 HD
HETATM   12  O   UNL     1      28.705  41.898  52.103  1.00  0.00    -0.273 OA
BRANCH  10  13
HETATM   13  C   UNL     1      27.474  40.828  49.635  1.00  0.00     0.034 A 
HETATM   14  C   UNL     1      26.714  39.750  50.104  1.00  0.00     0.032 A 
HETATM   15  C   UNL     1      26.792  38.503  49.480  1.00  0.00     0.039 A 
HETATM   16  C   UNL     1      27.594  38.329  48.355  1.00  0.00     0.068 A 
HETATM   17  C   UNL     1      28.369  39.393  47.895  1.00  0.00     0.039 A 
HETATM   18  C   UNL     1      28.315  40.637  48.538  1.00  0.00     0.032 A 
BRANCH  16  19
HETATM   19  O   UNL     1      27.568  37.078  47.805  1.00  0.00    -0.356 OA
HETATM   20  C   UNL     1      26.423  36.297  48.136  1.00  0.00     0.210 C 
ENDBRANCH  16  19
ENDBRANCH  10  13
ENDBRANCH   8   9
ENDBRANCH   7   8
BRANCH   1  21
HETATM   21  C   UNL     1      26.517  45.478  54.526  1.00  0.00     0.133 C 
BRANCH  21  22
HETATM   22  C   UNL     1      27.379  46.531  55.225  1.00  0.00     0.058 C 
BRANCH  22  23
HETATM   23  C   UNL     1      28.523  45.905  55.984  1.00  0.00    -0.057 A 
HETATM   24  C   UNL     1      28.772  46.250  57.319  1.00  0.00     0.010 A 
HETATM   25  C   UNL     1      29.845  45.678  58.016  1.00  0.00     0.037 A 
HETATM   26  C   UNL     1      30.679  44.755  57.386  1.00  0.00     0.068 A 
HETATM   27  C   UNL     1      30.436  44.417  56.054  1.00  0.00     0.037 A 
HETATM   28  C   UNL     1      29.367  44.986  55.356  1.00  0.00     0.010 A 
BRANCH  26  29
HETATM   29  O   UNL     1      31.753  44.123  57.949  1.00  0.00    -0.356 OA
HETATM   30  C   UNL     1      32.271  42.993  57.259  1.00  0.00     0.210 C 
ENDBRANCH  26  29
ENDBRANCH  22  23
ENDBRANCH  21  22
ENDBRANCH   1  21
BRANCH   4  31
HETATM   31  C   UNL     1      25.161  47.328  50.150  1.00  0.00     0.047 A 
HETATM   32  C   UNL     1      23.834  47.389  49.701  1.00  0.00     0.033 A 
HETATM   33  C   UNL     1      23.420  48.352  48.767  1.00  0.00     0.039 A 
HETATM   34  C   UNL     1      24.312  49.294  48.267  1.00  0.00     0.068 A 
HETATM   35  C   UNL     1      25.637  49.239  48.677  1.00  0.00     0.039 A 
HETATM   36  C   UNL     1      26.051  48.271  49.606  1.00  0.00     0.033 A 
BRANCH  34  37
HETATM   37  O   UNL     1      23.780  50.199  47.393  1.00  0.00    -0.356 OA
HETATM   38  C   UNL     1      22.457  50.644  47.671  1.00  0.00     0.210 C 
ENDBRANCH  34  37
ENDBRANCH   4  31
TORSDOF 10
ENDMDL
MODEL 2
REMARK VINA RESULT:      -9.4      1.963      6.593
REMARK  10 active torsions:
REMARK  status: ('A' for Active; 'I' for Inactive)
REMARK    1  A    between atoms: O_2  and  C_3 
REMARK    2  A    between atoms: C_6  and  C_7 
REMARK    3  A    between atoms: C_7  and  C_8 
REMARK    4  A    between atoms: C_8  and  N_9 
REMARK    5  A    between atoms: N_12  and  C_13 
REMARK    6  A    between atoms: C_16  and  O_17 
REMARK    7  A    between atoms: C_23  and  C_24 
REMARK    8  A    between atoms: C_24  and  C_25 
REMARK       I    between atoms: C_25  and  N_26 
REMARK    9  A    between atoms: N_26  and  C_27 
REMARK   10  A    between atoms: C_30  and  O_31 
ROOT
HETATM    1  N   UNL     1      24.529  44.813  49.759  1.00  0.00    -0.319 N 
HETATM    2  C   UNL     1      23.778  45.714  48.994  1.00  0.00     0.332 C 
HETATM    3  O   UNL     1      23.164  45.374  47.993  1.00  0.00    -0.246 OA
HETATM    4  N   UNL     1      23.932  46.978  49.526  1.00  0.00    -0.232 N 
HETATM    5  C   UNL     1      24.952  46.934  50.443  1.00  0.00     0.256 C 
HETATM    6  O   UNL     1      25.545  47.858  50.993  1.00  0.00    -0.270 OA
HETATM    7  C   UNL     1      25.262  45.488  50.812  1.00  0.00     0.190 C 
ENDROOT
BRANCH   7   8
HETATM    8  C   UNL     1      24.665  45.239  52.196  1.00  0.00     0.138 C 
BRANCH   8   9
HETATM    9  C   UNL     1      25.636  44.666  53.218  1.00  0.00     0.224 C 
HETATM   10  N   UNL     1      26.968  44.919  52.965  1.00  0.00    -0.327 N 
HETATM   11  H   UNL     1      27.235  45.261  52.042  1.00  0.00     0.169 HD
HETATM   12  O   UNL     1      25.197  44.085  54.208  1.00  0.00    -0.273 OA
BRANCH  10  13
HETATM   13  C   UNL     1      28.054  44.761  53.849  1.00  0.00     0.034 A 
HETATM   14  C   UNL     1      28.275  45.788  54.772  1.00  0.00     0.032 A 
HETATM   15  C   UNL     1      29.290  45.678  55.725  1.00  0.00     0.039 A 
HETATM   16  C   UNL     1      30.065  44.523  55.798  1.00  0.00     0.068 A 
HETATM   17  C   UNL     1      29.862  43.503  54.868  1.00  0.00     0.039 A 
HETATM   18  C   UNL     1      28.865  43.625  53.891  1.00  0.00     0.032 A 
BRANCH  16  19
HETATM   19  O   UNL     1      31.004  44.509  56.791  1.00  0.00    -0.356 OA
HETATM   20  C   UNL     1      31.664  43.261  56.979  1.00  0.00     0.210 C 
ENDBRANCH  16  19
ENDBRANCH  10  13
ENDBRANCH   8   9
ENDBRANCH   7   8
BRANCH   1  21
HETATM   21  C   UNL     1      24.931  43.520  49.208  1.00  0.00     0.133 C 
BRANCH  21  22
HETATM   22  C   UNL     1      24.676  42.318  50.119  1.00  0.00     0.058 C 
BRANCH  22  23
HETATM   23  C   UNL     1      25.893  41.432  50.232  1.00  0.00    -0.057 A 
HETATM   24  C   UNL     1      26.956  41.778  51.075  1.00  0.00     0.010 A 
HETATM   25  C   UNL     1      28.091  40.961  51.165  1.00  0.00     0.037 A 
HETATM   26  C   UNL     1      28.174  39.789  50.415  1.00  0.00     0.068 A 
HETATM   27  C   UNL     1      27.118  39.447  49.569  1.00  0.00     0.037 A 
HETATM   28  C   UNL     1      25.984  40.261  49.476  1.00  0.00     0.010 A 
BRANCH  26  29
HETATM   29  O   UNL     1      29.217  38.905  50.412  1.00  0.00    -0.356 OA
HETATM   30  C   UNL     1      29.647  38.419  49.147  1.00  0.00     0.210 C 
ENDBRANCH  26  29
ENDBRANCH  22  23
ENDBRANCH  21  22
ENDBRANCH   1  21
BRANCH   4  31
HETATM   31  C   UNL     1      23.206  48.149  49.148  1.00  0.00     0.047 A 
HETATM   32  C   UNL     1      21.805  48.191  49.155  1.00  0.00     0.033 A 
HETATM   33  C   UNL     1      21.106  49.373  48.864  1.00  0.00     0.039 A 
HETATM   34  C   UNL     1      21.783  50.554  48.578  1.00  0.00     0.068 A 
HETATM   35  C   UNL     1      23.170  50.532  48.540  1.00  0.00     0.039 A 
HETATM   36  C   UNL     1      23.868  49.347  48.823  1.00  0.00     0.033 A 
BRANCH  34  37
HETATM   37  O   UNL     1      20.991  51.642  48.348  1.00  0.00    -0.356 OA
HETATM   38  C   UNL     1      19.598  51.392  48.205  1.00  0.00     0.210 C 
ENDBRANCH  34  37
ENDBRANCH   4  31
TORSDOF 10
ENDMDL
MODEL 3
REMARK VINA RESULT:      -9.1      1.865      7.349
REMARK  10 active torsions:
REMARK  status: ('A' for Active; 'I' for Inactive)
REMARK    1  A    between atoms: O_2  and  C_3 
REMARK    2  A    between atoms: C_6  and  C_7 
REMARK    3  A    between atoms: C_7  and  C_8 
REMARK    4  A    between atoms: C_8  and  N_9 
REMARK    5  A    between atoms: N_12  and  C_13 
REMARK    6  A    between atoms: C_16  and  O_17 
REMARK    7  A    between atoms: C_23  and  C_24 
REMARK    8  A    between atoms: C_24  and  C_25 
REMARK       I    between atoms: C_25  and  N_26 
REMARK    9  A    between atoms: N_26  and  C_27 
REMARK   10  A    between atoms: C_30  and  O_31 
ROOT
HETATM    1  N   UNL     1      27.754  41.819  51.831  1.00  0.00    -0.319 N 
HETATM    2  C   UNL     1      27.832  40.949  50.736  1.00  0.00     0.332 C 
HETATM    3  O   UNL     1      28.367  39.852  50.806  1.00  0.00    -0.246 OA
HETATM    4  N   UNL     1      27.290  41.579  49.635  1.00  0.00    -0.232 N 
HETATM    5  C   UNL     1      27.105  42.902  49.947  1.00  0.00     0.256 C 
HETATM    6  O   UNL     1      26.841  43.847  49.208  1.00  0.00    -0.270 OA
HETATM    7  C   UNL     1      27.191  43.101  51.455  1.00  0.00     0.190 C 
ENDROOT
BRANCH   7   8
HETATM    8  C   UNL     1      25.764  43.289  51.967  1.00  0.00     0.138 C 
BRANCH   8   9
HETATM    9  C   UNL     1      25.023  44.478  51.373  1.00  0.00     0.224 C 
HETATM   10  N   UNL     1      25.766  45.634  51.262  1.00  0.00    -0.327 N 
HETATM   11  H   UNL     1      26.653  45.697  51.762  1.00  0.00     0.169 HD
HETATM   12  O   UNL     1      23.867  44.334  50.983  1.00  0.00    -0.273 OA
BRANCH  10  13
HETATM   13  C   UNL     1      25.450  46.789  50.518  1.00  0.00     0.034 A 
HETATM   14  C   UNL     1      26.523  47.554  50.048  1.00  0.00     0.032 A 
HETATM   15  C   UNL     1      26.296  48.676  49.248  1.00  0.00     0.039 A 
HETATM   16  C   UNL     1      25.000  49.021  48.871  1.00  0.00     0.068 A 
HETATM   17  C   UNL     1      23.925  48.274  49.353  1.00  0.00     0.039 A 
HETATM   18  C   UNL     1      24.149  47.165  50.181  1.00  0.00     0.032 A 
BRANCH  16  19
HETATM   19  O   UNL     1      24.898  50.115  48.058  1.00  0.00    -0.356 OA
HETATM   20  C   UNL     1      23.618  50.741  48.047  1.00  0.00     0.210 C 
ENDBRANCH  16  19
ENDBRANCH  10  13
ENDBRANCH   8   9
ENDBRANCH   7   8
BRANCH   1  21
HETATM   21  C   UNL     1      28.623  41.637  52.992  1.00  0.00     0.133 C 
BRANCH  21  22
HETATM   22  C   UNL     1      29.861  42.535  53.023  1.00  0.00     0.058 C 
BRANCH  22  23
HETATM   23  C   UNL     1      29.824  43.503  54.180  1.00  0.00    -0.057 A 
HETATM   24  C   UNL     1      28.842  44.499  54.251  1.00  0.00     0.010 A 
HETATM   25  C   UNL     1      28.819  45.405  55.320  1.00  0.00     0.037 A 
HETATM   26  C   UNL     1      29.778  45.324  56.329  1.00  0.00     0.068 A 
HETATM   27  C   UNL     1      30.761  44.337  56.255  1.00  0.00     0.037 A 
HETATM   28  C   UNL     1      30.786  43.431  55.190  1.00  0.00     0.010 A 
BRANCH  26  29
HETATM   29  O   UNL     1      29.867  46.139  57.423  1.00  0.00    -0.356 OA
HETATM   30  C   UNL     1      30.711  45.706  58.482  1.00  0.00     0.210 C 
ENDBRANCH  26  29
ENDBRANCH  22  23
ENDBRANCH  21  22
ENDBRANCH   1  21
BRANCH   4  31
HETATM   31  C   UNL     1      27.023  40.981  48.365  1.00  0.00     0.047 A 
HETATM   32  C   UNL     1      28.006  40.875  47.370  1.00  0.00     0.033 A 
HETATM   33  C   UNL     1      27.755  40.209  46.160  1.00  0.00     0.039 A 
HETATM   34  C   UNL     1      26.523  39.613  45.913  1.00  0.00     0.068 A 
HETATM   35  C   UNL     1      25.525  39.725  46.871  1.00  0.00     0.039 A 
HETATM   36  C   UNL     1      25.775  40.398  48.078  1.00  0.00     0.033 A 
BRANCH  34  37
HETATM   37  O   UNL     1      26.416  38.966  44.715  1.00  0.00    -0.356 OA
HETATM   38  C   UNL     1      25.099  38.630  44.294  1.00  0.00     0.210 C 
ENDBRANCH  34  37
ENDBRANCH   4  31
TORSDOF 10
ENDMDL
MODEL 4
REMARK VINA RESULT:      -9.1      1.811      2.396
REMARK  10 active torsions:
REMARK  status: ('A' for Active; 'I' for Inactive)
REMARK    1  A    between atoms: O_2  and  C_3 
REMARK    2  A    between atoms: C_6  and  C_7 
REMARK    3  A    between atoms: C_7  and  C_8 
REMARK    4  A    between atoms: C_8  and  N_9 
REMARK    5  A    between atoms: N_12  and  C_13 
REMARK    6  A    between atoms: C_16  and  O_17 
REMARK    7  A    between atoms: C_23  and  C_24 
REMARK    8  A    between atoms: C_24  and  C_25 
REMARK       I    between atoms: C_25  and  N_26 
REMARK    9  A    between atoms: N_26  and  C_27 
REMARK   10  A    between atoms: C_30  and  O_31 
ROOT
HETATM    1  N   UNL     1      25.592  45.157  51.258  1.00  0.00    -0.319 N 
HETATM    2  C   UNL     1      25.151  46.472  51.059  1.00  0.00     0.332 C 
HETATM    3  O   UNL     1      25.521  47.402  51.761  1.00  0.00    -0.246 OA
HETATM    4  N   UNL     1      24.226  46.476  50.035  1.00  0.00    -0.232 N 
HETATM    5  C   UNL     1      23.890  45.175  49.758  1.00  0.00     0.256 C 
HETATM    6  O   UNL     1      22.971  44.737  49.071  1.00  0.00    -0.270 OA
HETATM    7  C   UNL     1      24.908  44.227  50.381  1.00  0.00     0.190 C 
ENDROOT
BRANCH   7   8
HETATM    8  C   UNL     1      25.802  43.720  49.250  1.00  0.00     0.138 C 
BRANCH   8   9
HETATM    9  C   UNL     1      26.143  42.239  49.320  1.00  0.00     0.224 C 
HETATM   10  N   UNL     1      27.453  41.926  49.022  1.00  0.00    -0.327 N 
HETATM   11  H   UNL     1      28.036  42.633  48.575  1.00  0.00     0.169 HD
HETATM   12  O   UNL     1      25.285  41.439  49.684  1.00  0.00    -0.273 OA
BRANCH  10  13
HETATM   13  C   UNL     1      28.119  40.707  49.262  1.00  0.00     0.034 A 
HETATM   14  C   UNL     1      28.431  40.407  50.592  1.00  0.00     0.032 A 
HETATM   15  C   UNL     1      29.032  39.190  50.922  1.00  0.00     0.039 A 
HETATM   16  C   UNL     1      29.287  38.241  49.934  1.00  0.00     0.068 A 
HETATM   17  C   UNL     1      28.996  38.543  48.604  1.00  0.00     0.039 A 
HETATM   18  C   UNL     1      28.421  39.776  48.268  1.00  0.00     0.032 A 
BRANCH  16  19
HETATM   19  O   UNL     1      29.844  37.073  50.374  1.00  0.00    -0.356 OA
HETATM   20  C   UNL     1      30.018  36.981  51.785  1.00  0.00     0.210 C 
ENDBRANCH  16  19
ENDBRANCH  10  13
ENDBRANCH   8   9
ENDBRANCH   7   8
BRANCH   1  21
HETATM   21  C   UNL     1      26.205  44.759  52.524  1.00  0.00     0.133 C 
BRANCH  21  22
HETATM   22  C   UNL     1      27.426  43.847  52.395  1.00  0.00     0.058 C 
BRANCH  22  23
HETATM   23  C   UNL     1      28.386  44.029  53.546  1.00  0.00    -0.057 A 
HETATM   24  C   UNL     1      28.263  45.119  54.417  1.00  0.00     0.010 A 
HETATM   25  C   UNL     1      29.165  45.293  55.475  1.00  0.00     0.037 A 
HETATM   26  C   UNL     1      30.199  44.379  55.674  1.00  0.00     0.068 A 
HETATM   27  C   UNL     1      30.326  43.297  54.802  1.00  0.00     0.037 A 
HETATM   28  C   UNL     1      29.428  43.121  53.745  1.00  0.00     0.010 A 
BRANCH  26  29
HETATM   29  O   UNL     1      31.140  44.429  56.664  1.00  0.00    -0.356 OA
HETATM   30  C   UNL     1      31.644  43.186  57.138  1.00  0.00     0.210 C 
ENDBRANCH  26  29
ENDBRANCH  22  23
ENDBRANCH  21  22
ENDBRANCH   1  21
BRANCH   4  31
HETATM   31  C   UNL     1      23.662  47.630  49.409  1.00  0.00     0.047 A 
HETATM   32  C   UNL     1      22.280  47.779  49.231  1.00  0.00     0.033 A 
HETATM   33  C   UNL     1      21.733  48.954  48.692  1.00  0.00     0.039 A 
HETATM   34  C   UNL     1      22.546  50.024  48.334  1.00  0.00     0.068 A 
HETATM   35  C   UNL     1      23.920  49.892  48.478  1.00  0.00     0.039 A 
HETATM   36  C   UNL     1      24.466  48.712  49.009  1.00  0.00     0.033 A 
BRANCH  34  37
HETATM   37  O   UNL     1      21.892  51.123  47.856  1.00  0.00    -0.356 OA
HETATM   38  C   UNL     1      20.637  51.422  48.456  1.00  0.00     0.210 C 
ENDBRANCH  34  37
ENDBRANCH   4  31
TORSDOF 10
ENDMDL
MODEL 5
REMARK VINA RESULT:      -8.9      3.329     10.775
REMARK  10 active torsions:
REMARK  status: ('A' for Active; 'I' for Inactive)
REMARK    1  A    between atoms: O_2  and  C_3 
REMARK    2  A    between atoms: C_6  and  C_7 
REMARK    3  A    between atoms: C_7  and  C_8 
REMARK    4  A    between atoms: C_8  and  N_9 
REMARK    5  A    between atoms: N_12  and  C_13 
REMARK    6  A    between atoms: C_16  and  O_17 
REMARK    7  A    between atoms: C_23  and  C_24 
REMARK    8  A    between atoms: C_24  and  C_25 
REMARK       I    between atoms: C_25  and  N_26 
REMARK    9  A    between atoms: N_26  and  C_27 
REMARK   10  A    between atoms: C_30  and  O_31 
ROOT
HETATM    1  N   UNL     1      24.632  45.258  50.509  1.00  0.00    -0.319 N 
HETATM    2  C   UNL     1      25.492  44.402  51.210  1.00  0.00     0.332 C 
HETATM    3  O   UNL     1      25.441  43.186  51.102  1.00  0.00    -0.246 OA
HETATM    4  N   UNL     1      26.290  45.165  52.038  1.00  0.00    -0.232 N 
HETATM    5  C   UNL     1      25.786  46.440  52.063  1.00  0.00     0.256 C 
HETATM    6  O   UNL     1      26.062  47.372  52.814  1.00  0.00    -0.270 OA
HETATM    7  C   UNL     1      24.810  46.640  50.910  1.00  0.00     0.190 C 
ENDROOT
BRANCH   7   8
HETATM    8  C   UNL     1      25.529  47.471  49.849  1.00  0.00     0.138 C 
BRANCH   8   9
HETATM    9  C   UNL     1      24.666  48.521  49.166  1.00  0.00     0.224 C 
HETATM   10  N   UNL     1      23.306  48.320  49.272  1.00  0.00    -0.327 N 
HETATM   11  H   UNL     1      22.968  47.411  49.589  1.00  0.00     0.169 HD
HETATM   12  O   UNL     1      25.203  49.488  48.629  1.00  0.00    -0.273 OA
BRANCH  10  13
HETATM   13  C   UNL     1      22.278  49.241  48.989  1.00  0.00     0.034 A 
HETATM   14  C   UNL     1      21.989  50.192  49.974  1.00  0.00     0.032 A 
HETATM   15  C   UNL     1      21.030  51.181  49.745  1.00  0.00     0.039 A 
HETATM   16  C   UNL     1      20.381  51.260  48.515  1.00  0.00     0.068 A 
HETATM   17  C   UNL     1      20.650  50.304  47.536  1.00  0.00     0.039 A 
HETATM   18  C   UNL     1      21.590  49.292  47.775  1.00  0.00     0.032 A 
BRANCH  16  19
HETATM   19  O   UNL     1      19.489  52.287  48.388  1.00  0.00    -0.356 OA
HETATM   20  C   UNL     1      18.442  52.300  49.354  1.00  0.00     0.210 C 
ENDBRANCH  16  19
ENDBRANCH  10  13
ENDBRANCH   8   9
ENDBRANCH   7   8
BRANCH   1  21
HETATM   21  C   UNL     1      23.397  44.750  49.915  1.00  0.00     0.133 C 
BRANCH  21  22
HETATM   22  C   UNL     1      23.349  44.785  48.387  1.00  0.00     0.058 C 
BRANCH  22  23
HETATM   23  C   UNL     1      22.017  45.283  47.879  1.00  0.00    -0.057 A 
HETATM   24  C   UNL     1      21.870  45.716  46.555  1.00  0.00     0.010 A 
HETATM   25  C   UNL     1      20.636  46.192  46.092  1.00  0.00     0.037 A 
HETATM   26  C   UNL     1      19.536  46.239  46.947  1.00  0.00     0.068 A 
HETATM   27  C   UNL     1      19.684  45.814  48.268  1.00  0.00     0.037 A 
HETATM   28  C   UNL     1      20.914  45.340  48.734  1.00  0.00     0.010 A 
BRANCH  26  29
HETATM   29  O   UNL     1      18.281  46.675  46.624  1.00  0.00    -0.356 OA
HETATM   30  C   UNL     1      17.309  46.666  47.660  1.00  0.00     0.210 C 
ENDBRANCH  26  29
ENDBRANCH  22  23
ENDBRANCH  21  22
ENDBRANCH   1  21
BRANCH   4  31
HETATM   31  C   UNL     1      27.411  44.701  52.794  1.00  0.00     0.047 A 
HETATM   32  C   UNL     1      27.604  45.059  54.136  1.00  0.00     0.033 A 
HETATM   33  C   UNL     1      28.661  44.529  54.892  1.00  0.00     0.039 A 
HETATM   34  C   UNL     1      29.546  43.610  54.338  1.00  0.00     0.068 A 
HETATM   35  C   UNL     1      29.392  43.258  53.004  1.00  0.00     0.039 A 
HETATM   36  C   UNL     1      28.339  43.796  52.248  1.00  0.00     0.033 A 
BRANCH  34  37
HETATM   37  O   UNL     1      30.510  43.141  55.185  1.00  0.00    -0.356 OA
HETATM   38  C   UNL     1      30.973  44.047  56.179  1.00  0.00     0.210 C 
ENDBRANCH  34  37
ENDBRANCH   4  31
TORSDOF 10
ENDMDL
MODEL 6
REMARK VINA RESULT:      -8.9      2.508      7.096
REMARK  10 active torsions:
REMARK  status: ('A' for Active; 'I' for Inactive)
REMARK    1  A    between atoms: O_2  and  C_3 
REMARK    2  A    between atoms: C_6  and  C_7 
REMARK    3  A    between atoms: C_7  and  C_8 
REMARK    4  A    between atoms: C_8  and  N_9 
REMARK    5  A    between atoms: N_12  and  C_13 
REMARK    6  A    between atoms: C_16  and  O_17 
REMARK    7  A    between atoms: C_23  and  C_24 
REMARK    8  A    between atoms: C_24  and  C_25 
REMARK       I    between atoms: C_25  and  N_26 
REMARK    9  A    between atoms: N_26  and  C_27 
REMARK   10  A    between atoms: C_30  and  O_31 
ROOT
HETATM    1  N   UNL     1      23.282  46.128  49.080  1.00  0.00    -0.319 N 
HETATM    2  C   UNL     1      22.179  46.880  48.658  1.00  0.00     0.332 C 
HETATM    3  O   UNL     1      21.215  46.377  48.100  1.00  0.00    -0.246 OA
HETATM    4  N   UNL     1      22.430  48.212  48.917  1.00  0.00    -0.232 N 
HETATM    5  C   UNL     1      23.754  48.339  49.255  1.00  0.00     0.256 C 
HETATM    6  O   UNL     1      24.436  49.355  49.363  1.00  0.00    -0.270 OA
HETATM    7  C   UNL     1      24.341  46.974  49.593  1.00  0.00     0.190 C 
ENDROOT
BRANCH   7   8
HETATM    8  C   UNL     1      24.468  46.902  51.113  1.00  0.00     0.138 C 
BRANCH   8   9
HETATM    9  C   UNL     1      25.878  46.650  51.627  1.00  0.00     0.224 C 
HETATM   10  N   UNL     1      25.991  46.542  52.997  1.00  0.00    -0.327 N 
HETATM   11  H   UNL     1      25.210  46.844  53.578  1.00  0.00     0.169 HD
HETATM   12  O   UNL     1      26.795  46.500  50.822  1.00  0.00    -0.273 OA
BRANCH  10  13
HETATM   13  C   UNL     1      27.089  46.050  53.730  1.00  0.00     0.034 A 
HETATM   14  C   UNL     1      27.705  46.935  54.621  1.00  0.00     0.032 A 
HETATM   15  C   UNL     1      28.757  46.506  55.433  1.00  0.00     0.039 A 
HETATM   16  C   UNL     1      29.176  45.178  55.398  1.00  0.00     0.068 A 
HETATM   17  C   UNL     1      28.579  44.295  54.498  1.00  0.00     0.039 A 
HETATM   18  C   UNL     1      27.544  44.732  53.661  1.00  0.00     0.032 A 
BRANCH  16  19
HETATM   19  O   UNL     1      30.188  44.860  56.260  1.00  0.00    -0.356 OA
HETATM   20  C   UNL     1      30.889  43.659  55.950  1.00  0.00     0.210 C 
ENDBRANCH  16  19
ENDBRANCH  10  13
ENDBRANCH   8   9
ENDBRANCH   7   8
BRANCH   1  21
HETATM   21  C   UNL     1      23.517  44.786  48.549  1.00  0.00     0.133 C 
BRANCH  21  22
HETATM   22  C   UNL     1      23.150  43.640  49.494  1.00  0.00     0.058 C 
BRANCH  22  23
HETATM   23  C   UNL     1      24.347  42.786  49.831  1.00  0.00    -0.057 A 
HETATM   24  C   UNL     1      24.548  41.550  49.202  1.00  0.00     0.010 A 
HETATM   25  C   UNL     1      25.653  40.753  49.529  1.00  0.00     0.037 A 
HETATM   26  C   UNL     1      26.570  41.183  50.488  1.00  0.00     0.068 A 
HETATM   27  C   UNL     1      26.367  42.411  51.120  1.00  0.00     0.037 A 
HETATM   28  C   UNL     1      25.265  43.208  50.797  1.00  0.00     0.010 A 
BRANCH  26  29
HETATM   29  O   UNL     1      27.686  40.508  50.896  1.00  0.00    -0.356 OA
HETATM   30  C   UNL     1      28.379  41.029  52.023  1.00  0.00     0.210 C 
ENDBRANCH  26  29
ENDBRANCH  22  23
ENDBRANCH  21  22
ENDBRANCH   1  21
BRANCH   4  31
HETATM   31  C   UNL     1      21.498  49.288  48.795  1.00  0.00     0.047 A 
HETATM   32  C   UNL     1      21.098  50.056  49.898  1.00  0.00     0.033 A 
HETATM   33  C   UNL     1      20.249  51.163  49.750  1.00  0.00     0.039 A 
HETATM   34  C   UNL     1      19.789  51.551  48.497  1.00  0.00     0.068 A 
HETATM   35  C   UNL     1      20.150  50.793  47.392  1.00  0.00     0.039 A 
HETATM   36  C   UNL     1      20.993  49.680  47.542  1.00  0.00     0.033 A 
BRANCH  34  37
HETATM   37  O   UNL     1      18.999  52.665  48.481  1.00  0.00    -0.356 OA
HETATM   38  C   UNL     1      17.857  52.643  49.330  1.00  0.00     0.210 C 
ENDBRANCH  34  37
ENDBRANCH   4  31
TORSDOF 10
ENDMDL
MODEL 7
REMARK VINA RESULT:      -8.8     12.375     15.119
REMARK  10 active torsions:
REMARK  status: ('A' for Active; 'I' for Inactive)
REMARK    1  A    between atoms: O_2  and  C_3 
REMARK    2  A    between atoms: C_6  and  C_7 
REMARK    3  A    between atoms: C_7  and  C_8 
REMARK    4  A    between atoms: C_8  and  N_9 
REMARK    5  A    between atoms: N_12  and  C_13 
REMARK    6  A    between atoms: C_16  and  O_17 
REMARK    7  A    between atoms: C_23  and  C_24 
REMARK    8  A    between atoms: C_24  and  C_25 
REMARK       I    between atoms: C_25  and  N_26 
REMARK    9  A    between atoms: N_26  and  C_27 
REMARK   10  A    between atoms: C_30  and  O_31 
ROOT
HETATM    1  N   UNL     1      33.242  51.016  42.779  1.00  0.00    -0.319 N 
HETATM    2  C   UNL     1      34.130  51.679  43.636  1.00  0.00     0.332 C 
HETATM    3  O   UNL     1      33.789  52.119  44.724  1.00  0.00    -0.246 OA
HETATM    4  N   UNL     1      35.352  51.785  43.004  1.00  0.00    -0.232 N 
HETATM    5  C   UNL     1      35.185  51.436  41.688  1.00  0.00     0.256 C 
HETATM    6  O   UNL     1      35.953  51.581  40.740  1.00  0.00    -0.270 OA
HETATM    7  C   UNL     1      33.858  50.710  41.504  1.00  0.00     0.190 C 
ENDROOT
BRANCH   7   8
HETATM    8  C   UNL     1      34.176  49.224  41.347  1.00  0.00     0.138 C 
BRANCH   8   9
HETATM    9  C   UNL     1      32.960  48.323  41.185  1.00  0.00     0.224 C 
HETATM   10  N   UNL     1      31.832  48.946  40.695  1.00  0.00    -0.327 N 
HETATM   11  H   UNL     1      31.802  49.966  40.681  1.00  0.00     0.169 HD
HETATM   12  O   UNL     1      33.062  47.123  41.430  1.00  0.00    -0.273 OA
BRANCH  10  13
HETATM   13  C   UNL     1      30.666  48.336  40.191  1.00  0.00     0.034 A 
HETATM   14  C   UNL     1      29.617  48.128  41.094  1.00  0.00     0.032 A 
HETATM   15  C   UNL     1      28.405  47.589  40.659  1.00  0.00     0.039 A 
HETATM   16  C   UNL     1      28.208  47.295  39.312  1.00  0.00     0.068 A 
HETATM   17  C   UNL     1      29.255  47.482  38.410  1.00  0.00     0.039 A 
HETATM   18  C   UNL     1      30.484  47.994  38.850  1.00  0.00     0.032 A 
BRANCH  16  19
HETATM   19  O   UNL     1      26.972  46.806  38.994  1.00  0.00    -0.356 OA
HETATM   20  C   UNL     1      26.392  45.947  39.971  1.00  0.00     0.210 C 
ENDBRANCH  16  19
ENDBRANCH  10  13
ENDBRANCH   8   9
ENDBRANCH   7   8
BRANCH   1  21
HETATM   21  C   UNL     1      31.797  51.147  42.958  1.00  0.00     0.133 C 
BRANCH  21  22
HETATM   22  C   UNL     1      31.180  52.412  42.358  1.00  0.00     0.058 C 
BRANCH  22  23
HETATM   23  C   UNL     1      30.247  52.092  41.216  1.00  0.00    -0.057 A 
HETATM   24  C   UNL     1      28.908  51.755  41.455  1.00  0.00     0.010 A 
HETATM   25  C   UNL     1      28.049  51.444  40.393  1.00  0.00     0.037 A 
HETATM   26  C   UNL     1      28.518  51.468  39.080  1.00  0.00     0.068 A 
HETATM   27  C   UNL     1      29.854  51.797  38.841  1.00  0.00     0.037 A 
HETATM   28  C   UNL     1      30.714  52.107  39.899  1.00  0.00     0.010 A 
BRANCH  26  29
HETATM   29  O   UNL     1      27.789  51.190  37.958  1.00  0.00    -0.356 OA
HETATM   30  C   UNL     1      26.660  50.341  38.116  1.00  0.00     0.210 C 
ENDBRANCH  26  29
ENDBRANCH  22  23
ENDBRANCH  21  22
ENDBRANCH   1  21
BRANCH   4  31
HETATM   31  C   UNL     1      36.572  52.240  43.593  1.00  0.00     0.047 A 
HETATM   32  C   UNL     1      36.713  53.538  44.105  1.00  0.00     0.033 A 
HETATM   33  C   UNL     1      37.888  53.945  44.757  1.00  0.00     0.039 A 
HETATM   34  C   UNL     1      38.949  53.065  44.936  1.00  0.00     0.068 A 
HETATM   35  C   UNL     1      38.845  51.782  44.416  1.00  0.00     0.039 A 
HETATM   36  C   UNL     1      37.672  51.379  43.757  1.00  0.00     0.033 A 
BRANCH  34  37
HETATM   37  O   UNL     1      40.020  53.569  45.617  1.00  0.00    -0.356 OA
HETATM   38  C   UNL     1      39.729  54.493  46.659  1.00  0.00     0.210 C 
ENDBRANCH  34  37
ENDBRANCH   4  31
TORSDOF 10
ENDMDL
MODEL 8
REMARK VINA RESULT:      -8.7      3.610     10.531
REMARK  10 active torsions:
REMARK  status: ('A' for Active; 'I' for Inactive)
REMARK    1  A    between atoms: O_2  and  C_3 
REMARK    2  A    between atoms: C_6  and  C_7 
REMARK    3  A    between atoms: C_7  and  C_8 
REMARK    4  A    between atoms: C_8  and  N_9 
REMARK    5  A    between atoms: N_12  and  C_13 
REMARK    6  A    between atoms: C_16  and  O_17 
REMARK    7  A    between atoms: C_23  and  C_24 
REMARK    8  A    between atoms: C_24  and  C_25 
REMARK       I    between atoms: C_25  and  N_26 
REMARK    9  A    between atoms: N_26  and  C_27 
REMARK   10  A    between atoms: C_30  and  O_31 
ROOT
HETATM    1  N   UNL     1      24.166  46.832  50.133  1.00  0.00    -0.319 N 
HETATM    2  C   UNL     1      25.122  46.536  51.113  1.00  0.00     0.332 C 
HETATM    3  O   UNL     1      25.501  47.360  51.932  1.00  0.00    -0.246 OA
HETATM    4  N   UNL     1      25.564  45.243  50.918  1.00  0.00    -0.232 N 
HETATM    5  C   UNL     1      25.100  44.812  49.701  1.00  0.00     0.256 C 
HETATM    6  O   UNL     1      25.418  43.817  49.054  1.00  0.00    -0.270 OA
HETATM    7  C   UNL     1      23.988  45.730  49.209  1.00  0.00     0.190 C 
ENDROOT
BRANCH   7   8
HETATM    8  C   UNL     1      22.667  44.992  49.422  1.00  0.00     0.138 C 
BRANCH   8   9
HETATM    9  C   UNL     1      21.514  45.483  48.559  1.00  0.00     0.224 C 
HETATM   10  N   UNL     1      20.321  45.664  49.226  1.00  0.00    -0.327 N 
HETATM   11  H   UNL     1      20.216  45.267  50.160  1.00  0.00     0.169 HD
HETATM   12  O   UNL     1      21.715  45.742  47.375  1.00  0.00    -0.273 OA
BRANCH  10  13
HETATM   13  C   UNL     1      19.179  46.353  48.770  1.00  0.00     0.034 A 
HETATM   14  C   UNL     1      18.949  47.625  49.306  1.00  0.00     0.032 A 
HETATM   15  C   UNL     1      17.877  48.399  48.858  1.00  0.00     0.039 A 
HETATM   16  C   UNL     1      17.050  47.933  47.839  1.00  0.00     0.068 A 
HETATM   17  C   UNL     1      17.262  46.658  47.314  1.00  0.00     0.039 A 
HETATM   18  C   UNL     1      18.319  45.867  47.784  1.00  0.00     0.032 A 
BRANCH  16  19
HETATM   19  O   UNL     1      16.055  48.788  47.455  1.00  0.00    -0.356 OA
HETATM   20  C   UNL     1      16.484  50.105  47.126  1.00  0.00     0.210 C 
ENDBRANCH  16  19
ENDBRANCH  10  13
ENDBRANCH   8   9
ENDBRANCH   7   8
BRANCH   1  21
HETATM   21  C   UNL     1      23.852  48.219  49.794  1.00  0.00     0.133 C 
BRANCH  21  22
HETATM   22  C   UNL     1      23.157  48.416  48.445  1.00  0.00     0.058 C 
BRANCH  22  23
HETATM   23  C   UNL     1      22.078  49.468  48.518  1.00  0.00    -0.057 A 
HETATM   24  C   UNL     1      21.841  50.172  49.706  1.00  0.00     0.010 A 
HETATM   25  C   UNL     1      20.827  51.137  49.775  1.00  0.00     0.037 A 
HETATM   26  C   UNL     1      20.040  51.409  48.656  1.00  0.00     0.068 A 
HETATM   27  C   UNL     1      20.271  50.703  47.474  1.00  0.00     0.037 A 
HETATM   28  C   UNL     1      21.281  49.740  47.403  1.00  0.00     0.010 A 
BRANCH  26  29
HETATM   29  O   UNL     1      19.026  52.324  48.587  1.00  0.00    -0.356 OA
HETATM   30  C   UNL     1      18.111  52.355  49.674  1.00  0.00     0.210 C 
ENDBRANCH  26  29
ENDBRANCH  22  23
ENDBRANCH  21  22
ENDBRANCH   1  21
BRANCH   4  31
HETATM   31  C   UNL     1      26.411  44.498  51.794  1.00  0.00     0.047 A 
HETATM   32  C   UNL     1      27.723  44.149  51.444  1.00  0.00     0.033 A 
HETATM   33  C   UNL     1      28.573  43.491  52.347  1.00  0.00     0.039 A 
HETATM   34  C   UNL     1      28.146  43.178  53.634  1.00  0.00     0.068 A 
HETATM   35  C   UNL     1      26.843  43.490  53.997  1.00  0.00     0.039 A 
HETATM   36  C   UNL     1      25.992  44.141  53.089  1.00  0.00     0.033 A 
BRANCH  34  37
HETATM   37  O   UNL     1      29.077  42.572  54.428  1.00  0.00    -0.356 OA
HETATM   38  C   UNL     1      30.203  43.359  54.797  1.00  0.00     0.210 C 
ENDBRANCH  34  37
ENDBRANCH   4  31
TORSDOF 10
ENDMDL
MODEL 9
REMARK VINA RESULT:      -8.7      2.272      8.530
REMARK  10 active torsions:
REMARK  status: ('A' for Active; 'I' for Inactive)
REMARK    1  A    between atoms: O_2  and  C_3 
REMARK    2  A    between atoms: C_6  and  C_7 
REMARK    3  A    between atoms: C_7  and  C_8 
REMARK    4  A    between atoms: C_8  and  N_9 
REMARK    5  A    between atoms: N_12  and  C_13 
REMARK    6  A    between atoms: C_16  and  O_17 
REMARK    7  A    between atoms: C_23  and  C_24 
REMARK    8  A    between atoms: C_24  and  C_25 
REMARK       I    between atoms: C_25  and  N_26 
REMARK    9  A    between atoms: N_26  and  C_27 
REMARK   10  A    between atoms: C_30  and  O_31 
ROOT
HETATM    1  N   UNL     1      26.451  44.760  50.974  1.00  0.00    -0.319 N 
HETATM    2  C   UNL     1      27.577  44.416  51.733  1.00  0.00     0.332 C 
HETATM    3  O   UNL     1      28.561  43.881  51.243  1.00  0.00    -0.246 OA
HETATM    4  N   UNL     1      27.324  44.716  53.055  1.00  0.00    -0.232 N 
HETATM    5  C   UNL     1      25.988  45.001  53.180  1.00  0.00     0.256 C 
HETATM    6  O   UNL     1      25.308  45.120  54.197  1.00  0.00    -0.270 OA
HETATM    7  C   UNL     1      25.376  45.259  51.808  1.00  0.00     0.190 C 
ENDROOT
BRANCH   7   8
HETATM    8  C   UNL     1      25.183  46.769  51.678  1.00  0.00     0.138 C 
BRANCH   8   9
HETATM    9  C   UNL     1      24.571  47.224  50.361  1.00  0.00     0.224 C 
HETATM   10  N   UNL     1      23.630  46.368  49.827  1.00  0.00    -0.327 N 
HETATM   11  H   UNL     1      23.561  45.422  50.200  1.00  0.00     0.169 HD
HETATM   12  O   UNL     1      24.888  48.315  49.894  1.00  0.00    -0.273 OA
BRANCH  10  13
HETATM   13  C   UNL     1      22.715  46.640  48.791  1.00  0.00     0.034 A 
HETATM   14  C   UNL     1      22.527  45.639  47.832  1.00  0.00     0.032 A 
HETATM   15  C   UNL     1      21.589  45.803  46.810  1.00  0.00     0.039 A 
HETATM   16  C   UNL     1      20.797  46.947  46.760  1.00  0.00     0.068 A 
HETATM   17  C   UNL     1      20.992  47.958  47.701  1.00  0.00     0.039 A 
HETATM   18  C   UNL     1      21.954  47.807  48.710  1.00  0.00     0.032 A 
BRANCH  16  19
HETATM   19  O   UNL     1      19.888  46.987  45.739  1.00  0.00    -0.356 OA
HETATM   20  C   UNL     1      20.257  46.255  44.574  1.00  0.00     0.210 C 
ENDBRANCH  16  19
ENDBRANCH  10  13
ENDBRANCH   8   9
ENDBRANCH   7   8
BRANCH   1  21
HETATM   21  C   UNL     1      26.230  44.166  49.656  1.00  0.00     0.133 C 
BRANCH  21  22
HETATM   22  C   UNL     1      25.596  42.774  49.669  1.00  0.00     0.058 C 
BRANCH  22  23
HETATM   23  C   UNL     1      26.627  41.687  49.492  1.00  0.00    -0.057 A 
HETATM   24  C   UNL     1      26.974  40.846  50.557  1.00  0.00     0.010 A 
HETATM   25  C   UNL     1      27.943  39.847  50.392  1.00  0.00     0.037 A 
HETATM   26  C   UNL     1      28.575  39.678  49.160  1.00  0.00     0.068 A 
HETATM   27  C   UNL     1      28.235  40.521  48.101  1.00  0.00     0.037 A 
HETATM   28  C   UNL     1      27.269  41.518  48.262  1.00  0.00     0.010 A 
BRANCH  26  29
HETATM   29  O   UNL     1      29.530  38.745  48.865  1.00  0.00    -0.356 OA
HETATM   30  C   UNL     1      29.940  37.886  49.921  1.00  0.00     0.210 C 
ENDBRANCH  26  29
ENDBRANCH  22  23
ENDBRANCH  21  22
ENDBRANCH   1  21
BRANCH   4  31
HETATM   31  C   UNL     1      28.268  44.677  54.127  1.00  0.00     0.047 A 
HETATM   32  C   UNL     1      29.043  43.540  54.396  1.00  0.00     0.033 A 
HETATM   33  C   UNL     1      30.026  43.543  55.397  1.00  0.00     0.039 A 
HETATM   34  C   UNL     1      30.281  44.686  56.147  1.00  0.00     0.068 A 
HETATM   35  C   UNL     1      29.510  45.817  55.918  1.00  0.00     0.039 A 
HETATM   36  C   UNL     1      28.521  45.810  54.921  1.00  0.00     0.033 A 
BRANCH  34  37
HETATM   37  O   UNL     1      31.286  44.574  57.065  1.00  0.00    -0.356 OA
HETATM   38  C   UNL     1      31.884  43.289  57.193  1.00  0.00     0.210 C 
ENDBRANCH  34  37
ENDBRANCH   4  31
TORSDOF 10
ENDMDL
MODEL 10
REMARK VINA RESULT:      -8.6      1.931      7.371
REMARK  10 active torsions:
REMARK  status: ('A' for Active; 'I' for Inactive)
REMARK    1  A    between atoms: O_2  and  C_3 
REMARK    2  A    between atoms: C_6  and  C_7 
REMARK    3  A    between atoms: C_7  and  C_8 
REMARK    4  A    between atoms: C_8  and  N_9 
REMARK    5  A    between atoms: N_12  and  C_13 
REMARK    6  A    between atoms: C_16  and  O_17 
REMARK    7  A    between atoms: C_23  and  C_24 
REMARK    8  A    between atoms: C_24  and  C_25 
REMARK       I    between atoms: C_25  and  N_26 
REMARK    9  A    between atoms: N_26  and  C_27 
REMARK   10  A    between atoms: C_30  and  O_31 
ROOT
HETATM    1  N   UNL     1      26.729  43.199  52.558  1.00  0.00    -0.319 N 
HETATM    2  C   UNL     1      27.192  43.778  53.746  1.00  0.00     0.332 C 
HETATM    3  O   UNL     1      26.449  44.347  54.533  1.00  0.00    -0.246 OA
HETATM    4  N   UNL     1      28.564  43.645  53.794  1.00  0.00    -0.232 N 
HETATM    5  C   UNL     1      28.996  43.227  52.560  1.00  0.00     0.256 C 
HETATM    6  O   UNL     1      30.138  43.179  52.110  1.00  0.00    -0.270 OA
HETATM    7  C   UNL     1      27.821  42.705  51.743  1.00  0.00     0.190 C 
ENDROOT
BRANCH   7   8
HETATM    8  C   UNL     1      27.913  41.180  51.746  1.00  0.00     0.138 C 
BRANCH   8   9
HETATM    9  C   UNL     1      27.919  40.537  50.367  1.00  0.00     0.224 C 
HETATM   10  N   UNL     1      28.204  39.188  50.352  1.00  0.00    -0.327 N 
HETATM   11  H   UNL     1      28.598  38.761  51.191  1.00  0.00     0.169 HD
HETATM   12  O   UNL     1      27.619  41.213  49.385  1.00  0.00    -0.273 OA
BRANCH  10  13
HETATM   13  C   UNL     1      28.018  38.284  49.287  1.00  0.00     0.034 A 
HETATM   14  C   UNL     1      26.873  37.481  49.330  1.00  0.00     0.032 A 
HETATM   15  C   UNL     1      26.581  36.607  48.281  1.00  0.00     0.039 A 
HETATM   16  C   UNL     1      27.403  36.556  47.158  1.00  0.00     0.068 A 
HETATM   17  C   UNL     1      28.557  37.338  47.118  1.00  0.00     0.039 A 
HETATM   18  C   UNL     1      28.867  38.195  48.184  1.00  0.00     0.032 A 
BRANCH  16  19
HETATM   19  O   UNL     1      27.003  35.691  46.178  1.00  0.00    -0.356 OA
HETATM   20  C   UNL     1      28.060  35.083  45.441  1.00  0.00     0.210 C 
ENDBRANCH  16  19
ENDBRANCH  10  13
ENDBRANCH   8   9
ENDBRANCH   7   8
BRANCH   1  21
HETATM   21  C   UNL     1      25.424  43.566  52.009  1.00  0.00     0.133 C 
BRANCH  21  22
HETATM   22  C   UNL     1      25.398  43.797  50.497  1.00  0.00     0.058 C 
BRANCH  22  23
HETATM   23  C   UNL     1      25.312  45.264  50.154  1.00  0.00    -0.057 A 
HETATM   24  C   UNL     1      24.076  45.868  49.890  1.00  0.00     0.010 A 
HETATM   25  C   UNL     1      24.002  47.227  49.558  1.00  0.00     0.037 A 
HETATM   26  C   UNL     1      25.162  47.997  49.486  1.00  0.00     0.068 A 
HETATM   27  C   UNL     1      26.395  47.394  49.742  1.00  0.00     0.037 A 
HETATM   28  C   UNL     1      26.472  46.038  50.074  1.00  0.00     0.010 A 
BRANCH  26  29
HETATM   29  O   UNL     1      25.230  49.327  49.178  1.00  0.00    -0.356 OA
HETATM   30  C   UNL     1      26.280  49.736  48.311  1.00  0.00     0.210 C 
ENDBRANCH  26  29
ENDBRANCH  22  23
ENDBRANCH  21  22
ENDBRANCH   1  21
BRANCH   4  31
HETATM   31  C   UNL     1      29.406  43.948  54.908  1.00  0.00     0.047 A 
HETATM   32  C   UNL     1      29.318  45.165  55.598  1.00  0.00     0.033 A 
HETATM   33  C   UNL     1      30.090  45.416  56.743  1.00  0.00     0.039 A 
HETATM   34  C   UNL     1      30.958  44.453  57.246  1.00  0.00     0.068 A 
HETATM   35  C   UNL     1      31.082  43.249  56.567  1.00  0.00     0.039 A 
HETATM   36  C   UNL     1      30.315  43.003  55.417  1.00  0.00     0.033 A 
BRANCH  34  37
HETATM   37  O   UNL     1      31.626  44.804  58.385  1.00  0.00    -0.356 OA
HETATM   38  C   UNL     1      31.310  46.076  58.937  1.00  0.00     0.210 C 
ENDBRANCH  34  37
ENDBRANCH   4  31
TORSDOF 10
ENDMDL
