MODEL 1
REMARK VINA RESULT:      -9.1      0.000      0.000
REMARK  9 active torsions:
REMARK  status: ('A' for Active; 'I' for Inactive)
REMARK    1  A    between atoms: C_4  and  C_5 
REMARK    2  A    between atoms: C_6  and  N_7 
REMARK    3  A    between atoms: N_7  and  S_8 
REMARK    4  A    between atoms: C_17  and  C_18 
REMARK    5  A    between atoms: C_18  and  N_19 
REMARK    6  A    between atoms: N_19  and  C_21 
REMARK    7  A    between atoms: C_21  and  C_22 
REMARK    8  A    between atoms: C_24  and  C_25 
REMARK    9  A    between atoms: C_25  and  N_26 
ROOT
HETATM    1  C   UNL     1      25.764  49.461  48.582  1.00  0.00     0.079 C 
HETATM    2  C   UNL     1      24.399  48.961  48.829  1.00  0.00     0.078 A 
HETATM    3  O   UNL     1      23.373  49.861  48.705  1.00  0.00    -0.294 OA
HETATM    4  C   UNL     1      22.239  49.149  49.015  1.00  0.00     0.182 A 
HETATM    5  N   UNL     1      22.484  47.880  49.268  1.00  0.00    -0.224 NA
HETATM    6  C   UNL     1      23.851  47.758  49.207  1.00  0.00     0.092 A 
ENDROOT
BRANCH   6   7
HETATM    7  C   UNL     1      24.468  46.465  49.596  1.00  0.00     0.296 C 
BRANCH   7   8
HETATM    8  N   UNL     1      24.507  46.298  51.104  1.00  0.00    -0.065 N 
HETATM    9  H   UNL     1      23.557  46.611  51.386  1.00  0.00     0.280 HD
HETATM   10  C   UNL     1      25.478  47.204  51.774  1.00  0.00     0.270 C 
BRANCH   8  11
HETATM   11  C   UNL     1      24.536  44.876  51.611  1.00  0.00     0.280 C 
BRANCH  11  12
HETATM   12  C   UNL     1      25.626  44.531  52.589  1.00  0.00     0.009 A 
HETATM   13  S   UNL     1      27.228  44.225  52.061  1.00  0.00    -0.096 SA
HETATM   14  C   UNL     1      27.822  44.111  53.668  1.00  0.00     0.009 A 
HETATM   15  C   UNL     1      26.800  44.236  54.587  1.00  0.00     0.017 A 
HETATM   16  C   UNL     1      25.542  44.495  53.969  1.00  0.00     0.017 A 
BRANCH  14  17
HETATM   17  C   UNL     1      29.286  43.912  53.933  1.00  0.00     0.280 C 
BRANCH  17  18
HETATM   18  N   UNL     1      29.655  44.050  55.397  1.00  0.00    -0.067 N 
HETATM   19  H   UNL     1      28.873  43.636  55.921  1.00  0.00     0.280 HD
HETATM   20  C   UNL     1      30.906  43.286  55.770  1.00  0.00     0.235 C 
HETATM   21  C   UNL     1      31.107  43.358  57.278  1.00  0.00     0.028 C 
HETATM   22  C   UNL     1      31.170  44.800  57.769  1.00  0.00     0.003 C 
HETATM   23  C   UNL     1      29.951  45.593  57.311  1.00  0.00     0.028 C 
HETATM   24  C   UNL     1      29.750  45.504  55.805  1.00  0.00     0.235 C 
ENDBRANCH  17  18
ENDBRANCH  14  17
ENDBRANCH  11  12
ENDBRANCH   8  11
ENDBRANCH   7   8
ENDBRANCH   6   7
BRANCH   4  25
HETATM   25  C   UNL     1      20.972  49.878  49.044  1.00  0.00     0.044 A 
HETATM   26  C   UNL     1      19.743  49.253  49.351  1.00  0.00     0.057 A 
HETATM   27  C   UNL     1      18.552  49.995  49.344  1.00  0.00     0.031 A 
HETATM   28  C   UNL     1      18.568  51.356  49.044  1.00  0.00     0.002 A 
HETATM   29  C   UNL     1      19.770  51.985  48.744  1.00  0.00     0.001 A 
HETATM   30  C   UNL     1      20.960  51.253  48.743  1.00  0.00     0.018 A 
BRANCH  26  31
HETATM   31  N   UNL     1      19.632  47.850  49.641  1.00  0.00    -0.284 N 
HETATM   32  H   UNL     1      20.369  47.483  50.246  1.00  0.00     0.178 HD
BRANCH  31  33
HETATM   33  S   UNL     1      19.218  46.778  48.408  1.00  0.00     0.227 S 
HETATM   34  C   UNL     1      17.441  46.693  48.524  1.00  0.00     0.186 C 
HETATM   35  O   UNL     1      19.560  47.473  47.180  1.00  0.00    -0.206 OA
HETATM   36  O   UNL     1      19.783  45.468  48.643  1.00  0.00    -0.206 OA
ENDBRANCH  31  33
ENDBRANCH  26  31
ENDBRANCH   4  25
TORSDOF 9
ENDMDL
MODEL 2
REMARK VINA RESULT:      -9.0      3.595     10.715
REMARK  9 active torsions:
REMARK  status: ('A' for Active; 'I' for Inactive)
REMARK    1  A    between atoms: C_4  and  C_5 
REMARK    2  A    between atoms: C_6  and  N_7 
REMARK    3  A    between atoms: N_7  and  S_8 
REMARK    4  A    between atoms: C_17  and  C_18 
REMARK    5  A    between atoms: C_18  and  N_19 
REMARK    6  A    between atoms: N_19  and  C_21 
REMARK    7  A    between atoms: C_21  and  C_22 
REMARK    8  A    between atoms: C_24  and  C_25 
REMARK    9  A    between atoms: C_25  and  N_26 
ROOT
HETATM    1  C   UNL     1      28.878  40.504  52.218  1.00  0.00     0.079 C 
HETATM    2  C   UNL     1      28.956  41.872  52.763  1.00  0.00     0.078 A 
HETATM    3  O   UNL     1      29.678  42.046  53.913  1.00  0.00    -0.294 OA
HETATM    4  C   UNL     1      29.557  43.383  54.208  1.00  0.00     0.182 A 
HETATM    5  N   UNL     1      28.865  44.046  53.306  1.00  0.00    -0.224 NA
HETATM    6  C   UNL     1      28.431  43.094  52.415  1.00  0.00     0.092 A 
ENDROOT
BRANCH   6   7
HETATM    7  C   UNL     1      27.487  43.501  51.343  1.00  0.00     0.296 C 
BRANCH   7   8
HETATM    8  N   UNL     1      26.104  42.917  51.569  1.00  0.00    -0.065 N 
HETATM    9  H   UNL     1      26.260  42.289  52.383  1.00  0.00     0.280 HD
HETATM   10  C   UNL     1      25.632  42.063  50.447  1.00  0.00     0.270 C 
BRANCH   8  11
HETATM   11  C   UNL     1      25.062  43.872  52.101  1.00  0.00     0.280 C 
BRANCH  11  12
HETATM   12  C   UNL     1      24.943  45.198  51.399  1.00  0.00     0.009 A 
HETATM   13  S   UNL     1      23.937  45.386  50.024  1.00  0.00    -0.096 SA
HETATM   14  C   UNL     1      24.201  47.081  49.963  1.00  0.00     0.009 A 
HETATM   15  C   UNL     1      25.096  47.482  50.934  1.00  0.00     0.017 A 
HETATM   16  C   UNL     1      25.508  46.404  51.771  1.00  0.00     0.017 A 
BRANCH  14  17
HETATM   17  C   UNL     1      23.491  47.933  48.951  1.00  0.00     0.280 C 
BRANCH  17  18
HETATM   18  N   UNL     1      22.302  48.680  49.523  1.00  0.00    -0.067 N 
HETATM   19  H   UNL     1      22.271  48.430  50.520  1.00  0.00     0.280 HD
HETATM   20  C   UNL     1      22.447  50.184  49.438  1.00  0.00     0.235 C 
HETATM   21  C   UNL     1      21.287  50.842  50.171  1.00  0.00     0.028 C 
HETATM   22  C   UNL     1      19.941  50.382  49.623  1.00  0.00     0.003 C 
HETATM   23  C   UNL     1      19.834  48.861  49.624  1.00  0.00     0.028 C 
HETATM   24  C   UNL     1      21.005  48.212  48.901  1.00  0.00     0.235 C 
ENDBRANCH  17  18
ENDBRANCH  14  17
ENDBRANCH  11  12
ENDBRANCH   8  11
ENDBRANCH   7   8
ENDBRANCH   6   7
BRANCH   4  25
HETATM   25  C   UNL     1      30.171  43.858  55.447  1.00  0.00     0.044 A 
HETATM   26  C   UNL     1      30.036  45.191  55.899  1.00  0.00     0.057 A 
HETATM   27  C   UNL     1      30.664  45.600  57.086  1.00  0.00     0.031 A 
HETATM   28  C   UNL     1      31.419  44.700  57.835  1.00  0.00     0.002 A 
HETATM   29  C   UNL     1      31.556  43.385  57.405  1.00  0.00     0.001 A 
HETATM   30  C   UNL     1      30.940  42.970  56.223  1.00  0.00     0.018 A 
BRANCH  26  31
HETATM   31  N   UNL     1      29.303  46.190  55.173  1.00  0.00    -0.284 N 
HETATM   32  H   UNL     1      29.859  46.994  54.880  1.00  0.00     0.178 HD
BRANCH  31  33
HETATM   33  S   UNL     1      27.761  46.629  55.693  1.00  0.00     0.227 S 
HETATM   34  C   UNL     1      27.430  48.118  54.770  1.00  0.00     0.186 C 
HETATM   35  O   UNL     1      26.888  45.581  55.194  1.00  0.00    -0.206 OA
HETATM   36  O   UNL     1      27.750  46.923  57.108  1.00  0.00    -0.206 OA
ENDBRANCH  31  33
ENDBRANCH  26  31
ENDBRANCH   4  25
TORSDOF 9
ENDMDL
MODEL 3
REMARK VINA RESULT:      -8.6      3.010     10.932
REMARK  9 active torsions:
REMARK  status: ('A' for Active; 'I' for Inactive)
REMARK    1  A    between atoms: C_4  and  C_5 
REMARK    2  A    between atoms: C_6  and  N_7 
REMARK    3  A    between atoms: N_7  and  S_8 
REMARK    4  A    between atoms: C_17  and  C_18 
REMARK    5  A    between atoms: C_18  and  N_19 
REMARK    6  A    between atoms: N_19  and  C_21 
REMARK    7  A    between atoms: C_21  and  C_22 
REMARK    8  A    between atoms: C_24  and  C_25 
REMARK    9  A    between atoms: C_25  and  N_26 
ROOT
HETATM    1  C   UNL     1      26.543  49.667  48.405  1.00  0.00     0.079 C 
HETATM    2  C   UNL     1      25.828  48.776  49.338  1.00  0.00     0.078 A 
HETATM    3  O   UNL     1      26.560  48.220  50.353  1.00  0.00    -0.294 OA
HETATM    4  C   UNL     1      25.670  47.426  51.037  1.00  0.00     0.182 A 
HETATM    5  N   UNL     1      24.448  47.492  50.552  1.00  0.00    -0.224 NA
HETATM    6  C   UNL     1      24.543  48.299  49.444  1.00  0.00     0.092 A 
ENDROOT
BRANCH   6   7
HETATM    7  C   UNL     1      23.350  48.457  48.575  1.00  0.00     0.296 C 
BRANCH   7   8
HETATM    8  N   UNL     1      22.079  48.591  49.394  1.00  0.00    -0.065 N 
HETATM    9  H   UNL     1      22.305  48.038  50.245  1.00  0.00     0.280 HD
HETATM   10  C   UNL     1      20.897  47.947  48.761  1.00  0.00     0.270 C 
BRANCH   8  11
HETATM   11  C   UNL     1      21.805  49.960  49.970  1.00  0.00     0.280 C 
BRANCH  11  12
HETATM   12  C   UNL     1      20.558  50.654  49.493  1.00  0.00     0.009 A 
HETATM   13  S   UNL     1      19.038  50.345  50.222  1.00  0.00    -0.096 SA
HETATM   14  C   UNL     1      18.259  51.568  49.302  1.00  0.00     0.009 A 
HETATM   15  C   UNL     1      19.132  52.151  48.406  1.00  0.00     0.017 A 
HETATM   16  C   UNL     1      20.457  51.639  48.528  1.00  0.00     0.017 A 
BRANCH  14  17
HETATM   17  C   UNL     1      16.810  51.893  49.527  1.00  0.00     0.280 C 
BRANCH  17  18
HETATM   18  N   UNL     1      15.903  51.383  48.425  1.00  0.00    -0.067 N 
HETATM   19  H   UNL     1      14.947  51.448  48.799  1.00  0.00     0.280 HD
HETATM   20  C   UNL     1      15.957  52.228  47.171  1.00  0.00     0.235 C 
HETATM   21  C   UNL     1      14.906  51.732  46.186  1.00  0.00     0.028 C 
HETATM   22  C   UNL     1      15.087  50.253  45.867  1.00  0.00     0.003 C 
HETATM   23  C   UNL     1      15.126  49.413  47.139  1.00  0.00     0.028 C 
HETATM   24  C   UNL     1      16.169  49.925  48.123  1.00  0.00     0.235 C 
ENDBRANCH  17  18
ENDBRANCH  14  17
ENDBRANCH  11  12
ENDBRANCH   8  11
ENDBRANCH   7   8
ENDBRANCH   6   7
BRANCH   4  25
HETATM   25  C   UNL     1      26.191  46.631  52.148  1.00  0.00     0.044 A 
HETATM   26  C   UNL     1      26.484  45.254  52.026  1.00  0.00     0.057 A 
HETATM   27  C   UNL     1      26.962  44.533  53.131  1.00  0.00     0.031 A 
HETATM   28  C   UNL     1      27.161  45.165  54.356  1.00  0.00     0.002 A 
HETATM   29  C   UNL     1      26.882  46.521  54.490  1.00  0.00     0.001 A 
HETATM   30  C   UNL     1      26.401  47.245  53.398  1.00  0.00     0.018 A 
BRANCH  26  31
HETATM   31  N   UNL     1      26.278  44.518  50.809  1.00  0.00    -0.284 N 
HETATM   32  H   UNL     1      26.601  44.995  49.966  1.00  0.00     0.178 HD
BRANCH  31  33
HETATM   33  S   UNL     1      24.823  43.701  50.570  1.00  0.00     0.227 S 
HETATM   34  C   UNL     1      24.410  44.095  48.880  1.00  0.00     0.186 C 
HETATM   35  O   UNL     1      25.172  42.293  50.635  1.00  0.00    -0.206 OA
HETATM   36  O   UNL     1      23.792  44.201  51.450  1.00  0.00    -0.206 OA
ENDBRANCH  31  33
ENDBRANCH  26  31
ENDBRANCH   4  25
TORSDOF 9
ENDMDL
MODEL 4
REMARK VINA RESULT:      -8.6      3.509      4.723
REMARK  9 active torsions:
REMARK  status: ('A' for Active; 'I' for Inactive)
REMARK    1  A    between atoms: C_4  and  C_5 
REMARK    2  A    between atoms: C_6  and  N_7 
REMARK    3  A    between atoms: N_7  and  S_8 
REMARK    4  A    between atoms: C_17  and  C_18 
REMARK    5  A    between atoms: C_18  and  N_19 
REMARK    6  A    between atoms: N_19  and  C_21 
REMARK    7  A    between atoms: C_21  and  C_22 
REMARK    8  A    between atoms: C_24  and  C_25 
REMARK    9  A    between atoms: C_25  and  N_26 
ROOT
HETATM    1  C   UNL     1      27.273  49.257  48.854  1.00  0.00     0.079 C 
HETATM    2  C   UNL     1      25.929  48.747  49.184  1.00  0.00     0.078 A 
HETATM    3  O   UNL     1      24.858  49.480  48.744  1.00  0.00    -0.294 OA
HETATM    4  C   UNL     1      23.754  48.807  49.209  1.00  0.00     0.182 A 
HETATM    5  N   UNL     1      24.062  47.700  49.852  1.00  0.00    -0.224 NA
HETATM    6  C   UNL     1      25.435  47.677  49.892  1.00  0.00     0.092 A 
ENDROOT
BRANCH   6   7
HETATM    7  C   UNL     1      26.105  46.618  50.687  1.00  0.00     0.296 C 
BRANCH   7   8
HETATM    8  N   UNL     1      25.457  46.452  52.050  1.00  0.00    -0.065 N 
HETATM    9  H   UNL     1      24.600  47.033  51.960  1.00  0.00     0.280 HD
HETATM   10  C   UNL     1      26.258  47.032  53.161  1.00  0.00     0.270 C 
BRANCH   8  11
HETATM   11  C   UNL     1      24.884  45.086  52.347  1.00  0.00     0.280 C 
BRANCH  11  12
HETATM   12  C   UNL     1      25.553  43.915  51.679  1.00  0.00     0.009 A 
HETATM   13  S   UNL     1      27.173  43.492  52.047  1.00  0.00    -0.096 SA
HETATM   14  C   UNL     1      27.103  42.069  51.089  1.00  0.00     0.009 A 
HETATM   15  C   UNL     1      25.886  41.959  50.447  1.00  0.00     0.017 A 
HETATM   16  C   UNL     1      24.989  43.010  50.800  1.00  0.00     0.017 A 
BRANCH  14  17
HETATM   17  C   UNL     1      28.268  41.123  51.033  1.00  0.00     0.280 C 
BRANCH  17  18
HETATM   18  N   UNL     1      28.103  40.030  49.996  1.00  0.00    -0.067 N 
HETATM   19  H   UNL     1      27.104  39.786  50.004  1.00  0.00     0.280 HD
HETATM   20  C   UNL     1      28.447  40.483  48.594  1.00  0.00     0.235 C 
HETATM   21  C   UNL     1      28.106  39.372  47.610  1.00  0.00     0.028 C 
HETATM   22  C   UNL     1      28.815  38.071  47.961  1.00  0.00     0.003 C 
HETATM   23  C   UNL     1      28.542  37.665  49.405  1.00  0.00     0.028 C 
HETATM   24  C   UNL     1      28.873  38.785  50.381  1.00  0.00     0.235 C 
ENDBRANCH  17  18
ENDBRANCH  14  17
ENDBRANCH  11  12
ENDBRANCH   8  11
ENDBRANCH   7   8
ENDBRANCH   6   7
BRANCH   4  25
HETATM   25  C   UNL     1      22.444  49.405  48.956  1.00  0.00     0.044 A 
HETATM   26  C   UNL     1      21.255  48.643  48.921  1.00  0.00     0.057 A 
HETATM   27  C   UNL     1      20.025  49.264  48.652  1.00  0.00     0.031 A 
HETATM   28  C   UNL     1      19.961  50.638  48.426  1.00  0.00     0.002 A 
HETATM   29  C   UNL     1      21.122  51.401  48.462  1.00  0.00     0.001 A 
HETATM   30  C   UNL     1      22.350  50.791  48.723  1.00  0.00     0.018 A 
BRANCH  26  31
HETATM   31  N   UNL     1      21.235  47.219  49.112  1.00  0.00    -0.284 N 
HETATM   32  H   UNL     1      21.815  46.887  49.884  1.00  0.00     0.178 HD
BRANCH  31  33
HETATM   33  S   UNL     1      21.305  46.201  47.770  1.00  0.00     0.227 S 
HETATM   34  C   UNL     1      22.236  44.804  48.370  1.00  0.00     0.186 C 
HETATM   35  O   UNL     1      19.934  45.774  47.555  1.00  0.00    -0.206 OA
HETATM   36  O   UNL     1      22.016  46.825  46.677  1.00  0.00    -0.206 OA
ENDBRANCH  31  33
ENDBRANCH  26  31
ENDBRANCH   4  25
TORSDOF 9
ENDMDL
MODEL 5
REMARK VINA RESULT:      -8.6      1.786      2.890
REMARK  9 active torsions:
REMARK  status: ('A' for Active; 'I' for Inactive)
REMARK    1  A    between atoms: C_4  and  C_5 
REMARK    2  A    between atoms: C_6  and  N_7 
REMARK    3  A    between atoms: N_7  and  S_8 
REMARK    4  A    between atoms: C_17  and  C_18 
REMARK    5  A    between atoms: C_18  and  N_19 
REMARK    6  A    between atoms: N_19  and  C_21 
REMARK    7  A    between atoms: C_21  and  C_22 
REMARK    8  A    between atoms: C_24  and  C_25 
REMARK    9  A    between atoms: C_25  and  N_26 
ROOT
HETATM    1  C   UNL     1      22.992  43.810  49.286  1.00  0.00     0.079 C 
HETATM    2  C   UNL     1      23.615  45.145  49.369  1.00  0.00     0.078 A 
HETATM    3  O   UNL     1      22.813  46.225  49.112  1.00  0.00    -0.294 OA
HETATM    4  C   UNL     1      23.641  47.315  49.226  1.00  0.00     0.182 A 
HETATM    5  N   UNL     1      24.867  46.992  49.580  1.00  0.00    -0.224 NA
HETATM    6  C   UNL     1      24.880  45.619  49.621  1.00  0.00     0.092 A 
ENDROOT
BRANCH   6   7
HETATM    7  C   UNL     1      26.174  44.927  49.848  1.00  0.00     0.296 C 
BRANCH   7   8
HETATM    8  N   UNL     1      26.189  44.199  51.180  1.00  0.00    -0.065 N 
HETATM    9  H   UNL     1      27.158  44.371  51.515  1.00  0.00     0.280 HD
HETATM   10  C   UNL     1      26.032  42.726  51.051  1.00  0.00     0.270 C 
BRANCH   8  11
HETATM   11  C   UNL     1      25.359  44.817  52.280  1.00  0.00     0.280 C 
BRANCH  11  12
HETATM   12  C   UNL     1      26.095  45.654  53.290  1.00  0.00     0.009 A 
HETATM   13  S   UNL     1      26.757  44.954  54.708  1.00  0.00    -0.096 SA
HETATM   14  C   UNL     1      27.518  46.422  55.173  1.00  0.00     0.009 A 
HETATM   15  C   UNL     1      27.213  47.442  54.295  1.00  0.00     0.017 A 
HETATM   16  C   UNL     1      26.410  46.997  53.204  1.00  0.00     0.017 A 
BRANCH  14  17
HETATM   17  C   UNL     1      28.394  46.480  56.391  1.00  0.00     0.280 C 
BRANCH  17  18
HETATM   18  N   UNL     1      29.284  45.262  56.549  1.00  0.00    -0.067 N 
HETATM   19  H   UNL     1      28.674  44.518  56.913  1.00  0.00     0.280 HD
HETATM   20  C   UNL     1      29.862  44.773  55.239  1.00  0.00     0.235 C 
HETATM   21  C   UNL     1      30.608  43.467  55.476  1.00  0.00     0.028 C 
HETATM   22  C   UNL     1      31.691  43.622  56.536  1.00  0.00     0.003 C 
HETATM   23  C   UNL     1      31.123  44.203  57.826  1.00  0.00     0.028 C 
HETATM   24  C   UNL     1      30.366  45.501  57.578  1.00  0.00     0.235 C 
ENDBRANCH  17  18
ENDBRANCH  14  17
ENDBRANCH  11  12
ENDBRANCH   8  11
ENDBRANCH   7   8
ENDBRANCH   6   7
BRANCH   4  25
HETATM   25  C   UNL     1      23.072  48.628  48.925  1.00  0.00     0.044 A 
HETATM   26  C   UNL     1      21.694  48.909  49.063  1.00  0.00     0.057 A 
HETATM   27  C   UNL     1      21.198  50.182  48.741  1.00  0.00     0.031 A 
HETATM   28  C   UNL     1      22.055  51.183  48.290  1.00  0.00     0.002 A 
HETATM   29  C   UNL     1      23.414  50.923  48.154  1.00  0.00     0.001 A 
HETATM   30  C   UNL     1      23.916  49.658  48.467  1.00  0.00     0.018 A 
BRANCH  26  31
HETATM   31  N   UNL     1      20.737  47.927  49.491  1.00  0.00    -0.284 N 
HETATM   32  H   UNL     1      21.126  47.179  50.066  1.00  0.00     0.178 HD
BRANCH  31  33
HETATM   33  S   UNL     1      19.581  47.366  48.401  1.00  0.00     0.227 S 
HETATM   34  C   UNL     1      20.436  47.420  46.837  1.00  0.00     0.186 C 
HETATM   35  O   UNL     1      19.376  45.974  48.759  1.00  0.00    -0.206 OA
HETATM   36  O   UNL     1      18.434  48.245  48.356  1.00  0.00    -0.206 OA
ENDBRANCH  31  33
ENDBRANCH  26  31
ENDBRANCH   4  25
TORSDOF 9
ENDMDL
MODEL 6
REMARK VINA RESULT:      -8.6      3.158     10.366
REMARK  9 active torsions:
REMARK  status: ('A' for Active; 'I' for Inactive)
REMARK    1  A    between atoms: C_4  and  C_5 
REMARK    2  A    between atoms: C_6  and  N_7 
REMARK    3  A    between atoms: N_7  and  S_8 
REMARK    4  A    between atoms: C_17  and  C_18 
REMARK    5  A    between atoms: C_18  and  N_19 
REMARK    6  A    between atoms: N_19  and  C_21 
REMARK    7  A    between atoms: C_21  and  C_22 
REMARK    8  A    between atoms: C_24  and  C_25 
REMARK    9  A    between atoms: C_25  and  N_26 
ROOT
HETATM    1  C   UNL     1      27.122  41.164  50.601  1.00  0.00     0.079 C 
HETATM    2  C   UNL     1      27.026  42.287  51.551  1.00  0.00     0.078 A 
HETATM    3  O   UNL     1      28.094  42.495  52.383  1.00  0.00    -0.294 OA
HETATM    4  C   UNL     1      27.730  43.562  53.168  1.00  0.00     0.182 A 
HETATM    5  N   UNL     1      26.550  44.053  52.850  1.00  0.00    -0.224 NA
HETATM    6  C   UNL     1      26.069  43.223  51.866  1.00  0.00     0.092 A 
ENDROOT
BRANCH   6   7
HETATM    7  C   UNL     1      24.677  43.419  51.389  1.00  0.00     0.296 C 
BRANCH   7   8
HETATM    8  N   UNL     1      24.635  44.268  50.131  1.00  0.00    -0.065 N 
HETATM    9  H   UNL     1      23.654  44.613  50.130  1.00  0.00     0.280 HD
HETATM   10  C   UNL     1      24.819  43.484  48.881  1.00  0.00     0.270 C 
BRANCH   8  11
HETATM   11  C   UNL     1      25.423  45.556  50.176  1.00  0.00     0.280 C 
BRANCH  11  12
HETATM   12  C   UNL     1      24.769  46.767  49.567  1.00  0.00     0.009 A 
HETATM   13  S   UNL     1      23.241  46.658  48.799  1.00  0.00    -0.096 SA
HETATM   14  C   UNL     1      23.144  48.357  48.573  1.00  0.00     0.009 A 
HETATM   15  C   UNL     1      24.291  48.985  49.014  1.00  0.00     0.017 A 
HETATM   16  C   UNL     1      25.217  48.074  49.601  1.00  0.00     0.017 A 
BRANCH  14  17
HETATM   17  C   UNL     1      21.918  48.984  47.973  1.00  0.00     0.280 C 
BRANCH  17  18
HETATM   18  N   UNL     1      20.984  49.584  49.005  1.00  0.00    -0.067 N 
HETATM   19  H   UNL     1      21.541  49.672  49.866  1.00  0.00     0.280 HD
HETATM   20  C   UNL     1      20.499  50.968  48.635  1.00  0.00     0.235 C 
HETATM   21  C   UNL     1      19.699  51.546  49.795  1.00  0.00     0.028 C 
HETATM   22  C   UNL     1      18.539  50.638  50.186  1.00  0.00     0.003 C 
HETATM   23  C   UNL     1      19.019  49.218  50.467  1.00  0.00     0.028 C 
HETATM   24  C   UNL     1      19.830  48.654  49.309  1.00  0.00     0.235 C 
ENDBRANCH  17  18
ENDBRANCH  14  17
ENDBRANCH  11  12
ENDBRANCH   8  11
ENDBRANCH   7   8
ENDBRANCH   6   7
BRANCH   4  25
HETATM   25  C   UNL     1      28.656  43.972  54.222  1.00  0.00     0.044 A 
HETATM   26  C   UNL     1      28.370  45.027  55.118  1.00  0.00     0.057 A 
HETATM   27  C   UNL     1      29.304  45.394  56.099  1.00  0.00     0.031 A 
HETATM   28  C   UNL     1      30.519  44.719  56.207  1.00  0.00     0.002 A 
HETATM   29  C   UNL     1      30.812  43.676  55.336  1.00  0.00     0.001 A 
HETATM   30  C   UNL     1      29.891  43.308  54.353  1.00  0.00     0.018 A 
BRANCH  26  31
HETATM   31  N   UNL     1      27.157  45.794  55.056  1.00  0.00    -0.284 N 
HETATM   32  H   UNL     1      26.339  45.269  54.744  1.00  0.00     0.178 HD
BRANCH  31  33
HETATM   33  S   UNL     1      27.196  47.358  54.429  1.00  0.00     0.227 S 
HETATM   34  C   UNL     1      26.396  48.324  55.697  1.00  0.00     0.186 C 
HETATM   35  O   UNL     1      28.604  47.715  54.407  1.00  0.00    -0.206 OA
HETATM   36  O   UNL     1      26.439  47.448  53.201  1.00  0.00    -0.206 OA
ENDBRANCH  31  33
ENDBRANCH  26  31
ENDBRANCH   4  25
TORSDOF 9
ENDMDL
MODEL 7
REMARK VINA RESULT:      -8.5      3.229     10.844
REMARK  9 active torsions:
REMARK  status: ('A' for Active; 'I' for Inactive)
REMARK    1  A    between atoms: C_4  and  C_5 
REMARK    2  A    between atoms: C_6  and  N_7 
REMARK    3  A    between atoms: N_7  and  S_8 
REMARK    4  A    between atoms: C_17  and  C_18 
REMARK    5  A    between atoms: C_18  and  N_19 
REMARK    6  A    between atoms: N_19  and  C_21 
REMARK    7  A    between atoms: C_21  and  C_22 
REMARK    8  A    between atoms: C_24  and  C_25 
REMARK    9  A    between atoms: C_25  and  N_26 
ROOT
HETATM    1  C   UNL     1      25.271  47.150  50.926  1.00  0.00     0.079 C 
HETATM    2  C   UNL     1      25.917  45.833  51.075  1.00  0.00     0.078 A 
HETATM    3  O   UNL     1      26.808  45.686  52.104  1.00  0.00    -0.294 OA
HETATM    4  C   UNL     1      27.273  44.399  51.990  1.00  0.00     0.182 A 
HETATM    5  N   UNL     1      26.703  43.733  51.007  1.00  0.00    -0.224 NA
HETATM    6  C   UNL     1      25.883  44.644  50.385  1.00  0.00     0.092 A 
ENDROOT
BRANCH   6   7
HETATM    7  C   UNL     1      25.200  44.243  49.129  1.00  0.00     0.296 C 
BRANCH   7   8
HETATM    8  N   UNL     1      23.697  44.433  49.229  1.00  0.00    -0.065 N 
HETATM    9  H   UNL     1      23.621  45.326  49.757  1.00  0.00     0.280 HD
HETATM   10  C   UNL     1      23.020  43.389  50.044  1.00  0.00     0.270 C 
BRANCH   8  11
HETATM   11  C   UNL     1      22.987  44.769  47.939  1.00  0.00     0.280 C 
BRANCH  11  12
HETATM   12  C   UNL     1      22.299  46.106  47.876  1.00  0.00     0.009 A 
HETATM   13  S   UNL     1      20.845  46.315  46.993  1.00  0.00    -0.096 SA
HETATM   14  C   UNL     1      20.648  47.929  47.545  1.00  0.00     0.009 A 
HETATM   15  C   UNL     1      21.712  48.320  48.333  1.00  0.00     0.017 A 
HETATM   16  C   UNL     1      22.651  47.268  48.538  1.00  0.00     0.017 A 
BRANCH  14  17
HETATM   17  C   UNL     1      19.431  48.725  47.171  1.00  0.00     0.280 C 
BRANCH  17  18
HETATM   18  N   UNL     1      19.279  50.001  47.976  1.00  0.00    -0.067 N 
HETATM   19  H   UNL     1      20.232  50.277  48.243  1.00  0.00     0.280 HD
HETATM   20  C   UNL     1      18.684  51.141  47.177  1.00  0.00     0.235 C 
HETATM   21  C   UNL     1      18.714  52.411  48.018  1.00  0.00     0.028 C 
HETATM   22  C   UNL     1      17.988  52.225  49.344  1.00  0.00     0.003 C 
HETATM   23  C   UNL     1      18.527  51.018  50.105  1.00  0.00     0.028 C 
HETATM   24  C   UNL     1      18.507  49.757  49.254  1.00  0.00     0.235 C 
ENDBRANCH  17  18
ENDBRANCH  14  17
ENDBRANCH  11  12
ENDBRANCH   8  11
ENDBRANCH   7   8
ENDBRANCH   6   7
BRANCH   4  25
HETATM   25  C   UNL     1      28.314  43.972  52.923  1.00  0.00     0.044 A 
HETATM   26  C   UNL     1      28.338  44.384  54.275  1.00  0.00     0.057 A 
HETATM   27  C   UNL     1      29.374  43.961  55.124  1.00  0.00     0.031 A 
HETATM   28  C   UNL     1      30.383  43.127  54.648  1.00  0.00     0.002 A 
HETATM   29  C   UNL     1      30.370  42.710  53.322  1.00  0.00     0.001 A 
HETATM   30  C   UNL     1      29.347  43.130  52.468  1.00  0.00     0.018 A 
BRANCH  26  31
HETATM   31  N   UNL     1      27.356  45.267  54.838  1.00  0.00    -0.284 N 
HETATM   32  H   UNL     1      26.450  45.249  54.368  1.00  0.00     0.178 HD
BRANCH  31  33
HETATM   33  S   UNL     1      27.808  46.823  55.303  1.00  0.00     0.227 S 
HETATM   34  C   UNL     1      26.300  47.756  55.122  1.00  0.00     0.186 C 
HETATM   35  O   UNL     1      28.108  46.715  56.720  1.00  0.00    -0.206 OA
HETATM   36  O   UNL     1      28.820  47.359  54.421  1.00  0.00    -0.206 OA
ENDBRANCH  31  33
ENDBRANCH  26  31
ENDBRANCH   4  25
TORSDOF 9
ENDMDL
MODEL 8
REMARK VINA RESULT:      -8.5      1.635      2.610
REMARK  9 active torsions:
REMARK  status: ('A' for Active; 'I' for Inactive)
REMARK    1  A    between atoms: C_4  and  C_5 
REMARK    2  A    between atoms: C_6  and  N_7 
REMARK    3  A    between atoms: N_7  and  S_8 
REMARK    4  A    between atoms: C_17  and  C_18 
REMARK    5  A    between atoms: C_18  and  N_19 
REMARK    6  A    between atoms: N_19  and  C_21 
REMARK    7  A    between atoms: C_21  and  C_22 
REMARK    8  A    between atoms: C_24  and  C_25 
REMARK    9  A    between atoms: C_25  and  N_26 
ROOT
HETATM    1  C   UNL     1      24.221  49.369  48.791  1.00  0.00     0.079 C 
HETATM    2  C   UNL     1      23.357  48.174  48.822  1.00  0.00     0.078 A 
HETATM    3  O   UNL     1      22.041  48.347  48.485  1.00  0.00    -0.294 OA
HETATM    4  C   UNL     1      21.473  47.104  48.627  1.00  0.00     0.182 A 
HETATM    5  N   UNL     1      22.344  46.179  48.973  1.00  0.00    -0.224 NA
HETATM    6  C   UNL     1      23.529  46.851  49.153  1.00  0.00     0.092 A 
ENDROOT
BRANCH   6   7
HETATM    7  C   UNL     1      24.692  46.107  49.698  1.00  0.00     0.296 C 
BRANCH   7   8
HETATM    8  N   UNL     1      24.562  45.888  51.195  1.00  0.00    -0.065 N 
HETATM    9  H   UNL     1      23.545  46.042  51.353  1.00  0.00     0.280 HD
HETATM   10  C   UNL     1      25.285  46.904  52.006  1.00  0.00     0.270 C 
BRANCH   8  11
HETATM   11  C   UNL     1      24.745  44.468  51.673  1.00  0.00     0.280 C 
BRANCH  11  12
HETATM   12  C   UNL     1      25.844  44.231  52.675  1.00  0.00     0.009 A 
HETATM   13  S   UNL     1      27.478  44.089  52.180  1.00  0.00    -0.096 SA
HETATM   14  C   UNL     1      28.047  44.030  53.799  1.00  0.00     0.009 A 
HETATM   15  C   UNL     1      26.998  44.049  54.696  1.00  0.00     0.017 A 
HETATM   16  C   UNL     1      25.734  44.182  54.052  1.00  0.00     0.017 A 
BRANCH  14  17
HETATM   17  C   UNL     1      29.518  43.977  54.095  1.00  0.00     0.280 C 
BRANCH  17  18
HETATM   18  N   UNL     1      29.838  44.101  55.571  1.00  0.00    -0.067 N 
HETATM   19  H   UNL     1      29.073  43.620  56.063  1.00  0.00     0.280 HD
HETATM   20  C   UNL     1      31.129  43.416  55.961  1.00  0.00     0.235 C 
HETATM   21  C   UNL     1      31.284  43.462  57.475  1.00  0.00     0.028 C 
HETATM   22  C   UNL     1      31.233  44.890  58.003  1.00  0.00     0.003 C 
HETATM   23  C   UNL     1      29.975  45.609  57.531  1.00  0.00     0.028 C 
HETATM   24  C   UNL     1      29.820  45.547  56.018  1.00  0.00     0.235 C 
ENDBRANCH  17  18
ENDBRANCH  14  17
ENDBRANCH  11  12
ENDBRANCH   8  11
ENDBRANCH   7   8
ENDBRANCH   6   7
BRANCH   4  25
HETATM   25  C   UNL     1      20.032  46.991  48.406  1.00  0.00     0.044 A 
HETATM   26  C   UNL     1      19.087  47.716  49.168  1.00  0.00     0.057 A 
HETATM   27  C   UNL     1      17.714  47.555  48.928  1.00  0.00     0.031 A 
HETATM   28  C   UNL     1      17.266  46.687  47.935  1.00  0.00     0.002 A 
HETATM   29  C   UNL     1      18.183  45.970  47.175  1.00  0.00     0.001 A 
HETATM   30  C   UNL     1      19.551  46.120  47.409  1.00  0.00     0.018 A 
BRANCH  26  31
HETATM   31  N   UNL     1      19.461  48.607  50.230  1.00  0.00    -0.284 N 
HETATM   32  H   UNL     1      19.121  48.333  51.153  1.00  0.00     0.178 HD
BRANCH  31  33
HETATM   33  S   UNL     1      19.381  50.272  49.984  1.00  0.00     0.227 S 
HETATM   34  C   UNL     1      19.367  50.419  48.207  1.00  0.00     0.186 C 
HETATM   35  O   UNL     1      18.073  50.660  50.482  1.00  0.00    -0.206 OA
HETATM   36  O   UNL     1      20.549  50.937  50.516  1.00  0.00    -0.206 OA
ENDBRANCH  31  33
ENDBRANCH  26  31
ENDBRANCH   4  25
TORSDOF 9
ENDMDL
MODEL 9
REMARK VINA RESULT:      -8.5      2.979     10.058
REMARK  9 active torsions:
REMARK  status: ('A' for Active; 'I' for Inactive)
REMARK    1  A    between atoms: C_4  and  C_5 
REMARK    2  A    between atoms: C_6  and  N_7 
REMARK    3  A    between atoms: N_7  and  S_8 
REMARK    4  A    between atoms: C_17  and  C_18 
REMARK    5  A    between atoms: C_18  and  N_19 
REMARK    6  A    between atoms: N_19  and  C_21 
REMARK    7  A    between atoms: C_21  and  C_22 
REMARK    8  A    between atoms: C_24  and  C_25 
REMARK    9  A    between atoms: C_25  and  N_26 
ROOT
HETATM    1  C   UNL     1      23.984  48.330  49.593  1.00  0.00     0.079 C 
HETATM    2  C   UNL     1      24.532  47.183  50.341  1.00  0.00     0.078 A 
HETATM    3  O   UNL     1      25.188  47.457  51.512  1.00  0.00    -0.294 OA
HETATM    4  C   UNL     1      25.614  46.235  51.974  1.00  0.00     0.182 A 
HETATM    5  N   UNL     1      25.228  45.236  51.208  1.00  0.00    -0.224 NA
HETATM    6  C   UNL     1      24.591  45.824  50.143  1.00  0.00     0.092 A 
ENDROOT
BRANCH   6   7
HETATM    7  C   UNL     1      24.162  44.967  49.009  1.00  0.00     0.296 C 
BRANCH   7   8
HETATM    8  N   UNL     1      22.715  44.532  49.158  1.00  0.00    -0.065 N 
HETATM    9  H   UNL     1      22.318  45.283  49.757  1.00  0.00     0.280 HD
HETATM   10  C   UNL     1      22.554  43.254  49.902  1.00  0.00     0.270 C 
BRANCH   8  11
HETATM   11  C   UNL     1      21.863  44.635  47.915  1.00  0.00     0.280 C 
BRANCH  11  12
HETATM   12  C   UNL     1      20.519  45.293  48.072  1.00  0.00     0.009 A 
HETATM   13  S   UNL     1      20.343  46.750  48.958  1.00  0.00    -0.096 SA
HETATM   14  C   UNL     1      18.688  46.907  48.526  1.00  0.00     0.009 A 
HETATM   15  C   UNL     1      18.265  45.828  47.777  1.00  0.00     0.017 A 
HETATM   16  C   UNL     1      19.320  44.910  47.501  1.00  0.00     0.017 A 
BRANCH  14  17
HETATM   17  C   UNL     1      17.894  48.109  48.950  1.00  0.00     0.280 C 
BRANCH  17  18
HETATM   18  N   UNL     1      18.700  49.393  48.940  1.00  0.00    -0.067 N 
HETATM   19  H   UNL     1      19.608  49.155  49.359  1.00  0.00     0.280 HD
HETATM   20  C   UNL     1      18.966  49.918  47.546  1.00  0.00     0.235 C 
HETATM   21  C   UNL     1      19.905  51.114  47.632  1.00  0.00     0.028 C 
HETATM   22  C   UNL     1      19.345  52.205  48.537  1.00  0.00     0.003 C 
HETATM   23  C   UNL     1      18.990  51.652  49.913  1.00  0.00     0.028 C 
HETATM   24  C   UNL     1      18.063  50.449  49.818  1.00  0.00     0.235 C 
ENDBRANCH  17  18
ENDBRANCH  14  17
ENDBRANCH  11  12
ENDBRANCH   8  11
ENDBRANCH   7   8
ENDBRANCH   6   7
BRANCH   4  25
HETATM   25  C   UNL     1      26.425  46.219  53.191  1.00  0.00     0.044 A 
HETATM   26  C   UNL     1      26.873  45.020  53.789  1.00  0.00     0.057 A 
HETATM   27  C   UNL     1      27.632  45.060  54.969  1.00  0.00     0.031 A 
HETATM   28  C   UNL     1      27.957  46.279  55.560  1.00  0.00     0.002 A 
HETATM   29  C   UNL     1      27.527  47.467  54.980  1.00  0.00     0.001 A 
HETATM   30  C   UNL     1      26.767  47.437  53.809  1.00  0.00     0.018 A 
BRANCH  26  31
HETATM   31  N   UNL     1      26.556  43.721  53.264  1.00  0.00    -0.284 N 
HETATM   32  H   UNL     1      26.031  43.122  53.903  1.00  0.00     0.178 HD
BRANCH  31  33
HETATM   33  S   UNL     1      27.724  42.869  52.397  1.00  0.00     0.227 S 
HETATM   34  C   UNL     1      28.222  41.589  53.534  1.00  0.00     0.186 C 
HETATM   35  O   UNL     1      26.997  42.247  51.304  1.00  0.00    -0.206 OA
HETATM   36  O   UNL     1      28.859  43.708  52.084  1.00  0.00    -0.206 OA
ENDBRANCH  31  33
ENDBRANCH  26  31
ENDBRANCH   4  25
TORSDOF 9
ENDMDL
MODEL 10
REMARK VINA RESULT:      -8.4      3.169      5.204
REMARK  9 active torsions:
REMARK  status: ('A' for Active; 'I' for Inactive)
REMARK    1  A    between atoms: C_4  and  C_5 
REMARK    2  A    between atoms: C_6  and  N_7 
REMARK    3  A    between atoms: N_7  and  S_8 
REMARK    4  A    between atoms: C_17  and  C_18 
REMARK    5  A    between atoms: C_18  and  N_19 
REMARK    6  A    between atoms: N_19  and  C_21 
REMARK    7  A    between atoms: C_21  and  C_22 
REMARK    8  A    between atoms: C_24  and  C_25 
REMARK    9  A    between atoms: C_25  and  N_26 
ROOT
HETATM    1  C   UNL     1      23.733  40.770  48.038  1.00  0.00     0.079 C 
HETATM    2  C   UNL     1      24.532  41.692  48.866  1.00  0.00     0.078 A 
HETATM    3  O   UNL     1      24.240  43.027  48.773  1.00  0.00    -0.294 OA
HETATM    4  C   UNL     1      25.139  43.645  49.609  1.00  0.00     0.182 A 
HETATM    5  N   UNL     1      25.919  42.793  50.241  1.00  0.00    -0.224 NA
HETATM    6  C   UNL     1      25.585  41.558  49.740  1.00  0.00     0.092 A 
ENDROOT
BRANCH   6   7
HETATM    7  C   UNL     1      26.397  40.383  50.145  1.00  0.00     0.296 C 
BRANCH   7   8
HETATM    8  N   UNL     1      27.883  40.688  50.089  1.00  0.00    -0.065 N 
HETATM    9  H   UNL     1      27.894  41.726  50.030  1.00  0.00     0.280 HD
HETATM   10  C   UNL     1      28.546  40.177  48.860  1.00  0.00     0.270 C 
BRANCH   8  11
HETATM   11  C   UNL     1      28.657  40.436  51.361  1.00  0.00     0.280 C 
BRANCH  11  12
HETATM   12  C   UNL     1      28.480  41.441  52.468  1.00  0.00     0.009 A 
HETATM   13  S   UNL     1      29.600  42.718  52.693  1.00  0.00    -0.096 SA
HETATM   14  C   UNL     1      28.648  43.443  53.924  1.00  0.00     0.009 A 
HETATM   15  C   UNL     1      27.531  42.683  54.203  1.00  0.00     0.017 A 
HETATM   16  C   UNL     1      27.424  41.542  53.354  1.00  0.00     0.017 A 
BRANCH  14  17
HETATM   17  C   UNL     1      29.060  44.746  54.547  1.00  0.00     0.280 C 
BRANCH  17  18
HETATM   18  N   UNL     1      29.625  44.590  55.945  1.00  0.00    -0.067 N 
HETATM   19  H   UNL     1      28.963  43.984  56.447  1.00  0.00     0.280 HD
HETATM   20  C   UNL     1      30.974  43.905  55.970  1.00  0.00     0.235 C 
HETATM   21  C   UNL     1      31.384  43.657  57.415  1.00  0.00     0.028 C 
HETATM   22  C   UNL     1      31.403  44.948  58.225  1.00  0.00     0.003 C 
HETATM   23  C   UNL     1      30.071  45.684  58.122  1.00  0.00     0.028 C 
HETATM   24  C   UNL     1      29.662  45.915  56.675  1.00  0.00     0.235 C 
ENDBRANCH  17  18
ENDBRANCH  14  17
ENDBRANCH  11  12
ENDBRANCH   8  11
ENDBRANCH   7   8
ENDBRANCH   6   7
BRANCH   4  25
HETATM   25  C   UNL     1      25.119  45.106  49.659  1.00  0.00     0.044 A 
HETATM   26  C   UNL     1      23.917  45.849  49.679  1.00  0.00     0.057 A 
HETATM   27  C   UNL     1      23.956  47.252  49.706  1.00  0.00     0.031 A 
HETATM   28  C   UNL     1      25.174  47.927  49.720  1.00  0.00     0.002 A 
HETATM   29  C   UNL     1      26.365  47.209  49.704  1.00  0.00     0.001 A 
HETATM   30  C   UNL     1      26.337  45.813  49.672  1.00  0.00     0.018 A 
BRANCH  26  31
HETATM   31  N   UNL     1      22.620  45.235  49.635  1.00  0.00    -0.284 N 
HETATM   32  H   UNL     1      22.610  44.246  49.889  1.00  0.00     0.178 HD
BRANCH  31  33
HETATM   33  S   UNL     1      21.581  45.582  48.354  1.00  0.00     0.227 S 
HETATM   34  C   UNL     1      22.593  45.280  46.918  1.00  0.00     0.186 C 
HETATM   35  O   UNL     1      20.559  44.551  48.414  1.00  0.00    -0.206 OA
HETATM   36  O   UNL     1      21.169  46.967  48.375  1.00  0.00    -0.206 OA
ENDBRANCH  31  33
ENDBRANCH  26  31
ENDBRANCH   4  25
TORSDOF 9
ENDMDL
