MODEL 1
REMARK VINA RESULT:      -8.3      0.000      0.000
REMARK  5 active torsions:
REMARK  status: ('A' for Active; 'I' for Inactive)
REMARK    1  A    between atoms: C_3  and  N_4 
REMARK       I    between atoms: N_4  and  C_5 
REMARK       I    between atoms: C_5  and  N_6 
REMARK    2  A    between atoms: N_6  and  C_7 
REMARK    3  A    between atoms: C_7  and  C_8 
REMARK    4  A    between atoms: C_8  and  O_9 
REMARK    5  A    between atoms: O_9  and  C_10 
ROOT
HETATM    1  N   UNL     1      27.574  44.931  54.067  1.00  0.00    -0.307 N 
HETATM    2  C   UNL     1      26.308  44.468  54.285  1.00  0.00     0.320 C 
HETATM    3  N   UNL     1      25.338  45.052  53.521  1.00  0.00    -0.340 N 
HETATM    4  O   UNL     1      25.975  43.580  55.059  1.00  0.00    -0.247 OA
HETATM    5  H   UNL     1      27.720  45.241  53.120  1.00  0.00     0.170 HD
HETATM    6  H   UNL     1      24.412  44.758  53.818  1.00  0.00     0.164 HD
ENDROOT
BRANCH   3   7
HETATM    7  C   UNL     1      25.403  46.278  52.735  1.00  0.00     0.156 C 
BRANCH   7   8
HETATM    8  C   UNL     1      25.350  46.019  51.220  1.00  0.00     0.142 C 
HETATM    9  C   UNL     1      24.658  44.694  50.897  1.00  0.00     0.042 C 
BRANCH   8  10
HETATM   10  O   UNL     1      24.591  47.060  50.588  1.00  0.00    -0.343 OA
BRANCH  10  11
HETATM   11  C   UNL     1      25.260  47.963  49.807  1.00  0.00     0.086 A 
HETATM   12  C   UNL     1      24.490  48.855  49.047  1.00  0.00     0.044 A 
HETATM   13 BR   UNL     1      22.590  48.783  49.060  1.00  0.00    -0.048 Br
HETATM   14  C   UNL     1      25.101  49.821  48.243  1.00  0.00     0.022 A 
HETATM   15  C   UNL     1      26.490  49.912  48.200  1.00  0.00     0.002 A 
HETATM   16  C   UNL     1      27.265  49.046  48.969  1.00  0.00     0.003 A 
HETATM   17  C   UNL     1      26.655  48.082  49.776  1.00  0.00     0.038 A 
ENDBRANCH  10  11
ENDBRANCH   8  10
ENDBRANCH   7   8
ENDBRANCH   3   7
BRANCH   1  18
HETATM   18  C   UNL     1      28.755  44.604  54.779  1.00  0.00     0.059 A 
HETATM   19  C   UNL     1      29.537  43.449  54.634  1.00  0.00    -0.032 A 
HETATM   20  C   UNL     1      29.222  42.300  53.720  1.00  0.00     0.050 C 
HETATM   21  C   UNL     1      30.702  43.334  55.416  1.00  0.00     0.028 A 
HETATM   22  C   UNL     1      31.012  44.316  56.342  1.00  0.00     0.117 A 
HETATM   23  N   UNL     1      30.249  45.402  56.553  1.00  0.00    -0.271 NA
HETATM   24  C   UNL     1      29.150  45.514  55.770  1.00  0.00     0.146 A 
ENDBRANCH   1  18
TORSDOF 5
ENDMDL
MODEL 2
REMARK VINA RESULT:      -8.0      3.062      7.972
REMARK  5 active torsions:
REMARK  status: ('A' for Active; 'I' for Inactive)
REMARK    1  A    between atoms: C_3  and  N_4 
REMARK       I    between atoms: N_4  and  C_5 
REMARK       I    between atoms: C_5  and  N_6 
REMARK    2  A    between atoms: N_6  and  C_7 
REMARK    3  A    between atoms: C_7  and  C_8 
REMARK    4  A    between atoms: C_8  and  O_9 
REMARK    5  A    between atoms: O_9  and  C_10 
ROOT
HETATM    1  N   UNL     1      25.466  45.105  51.103  1.00  0.00    -0.307 N 
HETATM    2  C   UNL     1      26.690  44.598  50.768  1.00  0.00     0.320 C 
HETATM    3  N   UNL     1      27.295  43.854  51.741  1.00  0.00    -0.340 N 
HETATM    4  O   UNL     1      27.264  44.719  49.693  1.00  0.00    -0.247 OA
HETATM    5  H   UNL     1      24.966  44.521  51.753  1.00  0.00     0.170 HD
HETATM    6  H   UNL     1      28.247  43.615  51.478  1.00  0.00     0.164 HD
ENDROOT
BRANCH   3   7
HETATM    7  C   UNL     1      26.976  43.767  53.160  1.00  0.00     0.156 C 
BRANCH   7   8
HETATM    8  C   UNL     1      28.096  43.108  53.984  1.00  0.00     0.142 C 
HETATM    9  C   UNL     1      28.549  41.785  53.365  1.00  0.00     0.042 C 
BRANCH   8  10
HETATM   10  O   UNL     1      29.237  43.977  54.011  1.00  0.00    -0.343 OA
BRANCH  10  11
HETATM   11  C   UNL     1      29.896  44.140  55.199  1.00  0.00     0.086 A 
HETATM   12  C   UNL     1      29.605  45.290  55.947  1.00  0.00     0.044 A 
HETATM   13 BR   UNL     1      28.379  46.599  55.315  1.00  0.00    -0.048 Br
HETATM   14  C   UNL     1      30.220  45.515  57.182  1.00  0.00     0.022 A 
HETATM   15  C   UNL     1      31.126  44.584  57.686  1.00  0.00     0.002 A 
HETATM   16  C   UNL     1      31.405  43.427  56.963  1.00  0.00     0.003 A 
HETATM   17  C   UNL     1      30.787  43.200  55.730  1.00  0.00     0.038 A 
ENDBRANCH  10  11
ENDBRANCH   8  10
ENDBRANCH   7   8
ENDBRANCH   3   7
BRANCH   1  18
HETATM   18  C   UNL     1      24.659  45.997  50.354  1.00  0.00     0.059 A 
HETATM   19  C   UNL     1      23.674  45.661  49.415  1.00  0.00    -0.032 A 
HETATM   20  C   UNL     1      23.332  44.264  48.982  1.00  0.00     0.050 C 
HETATM   21  C   UNL     1      22.953  46.705  48.806  1.00  0.00     0.028 A 
HETATM   22  C   UNL     1      23.271  48.023  49.093  1.00  0.00     0.117 A 
HETATM   23  N   UNL     1      24.253  48.380  49.938  1.00  0.00    -0.271 NA
HETATM   24  C   UNL     1      24.915  47.363  50.540  1.00  0.00     0.146 A 
ENDBRANCH   1  18
TORSDOF 5
ENDMDL
MODEL 3
REMARK VINA RESULT:      -7.9      2.719      7.635
REMARK  5 active torsions:
REMARK  status: ('A' for Active; 'I' for Inactive)
REMARK    1  A    between atoms: C_3  and  N_4 
REMARK       I    between atoms: N_4  and  C_5 
REMARK       I    between atoms: C_5  and  N_6 
REMARK    2  A    between atoms: N_6  and  C_7 
REMARK    3  A    between atoms: C_7  and  C_8 
REMARK    4  A    between atoms: C_8  and  O_9 
REMARK    5  A    between atoms: O_9  and  C_10 
ROOT
HETATM    1  N   UNL     1      26.184  46.905  50.707  1.00  0.00    -0.307 N 
HETATM    2  C   UNL     1      25.728  46.805  51.991  1.00  0.00     0.320 C 
HETATM    3  N   UNL     1      25.948  45.598  52.591  1.00  0.00    -0.340 N 
HETATM    4  O   UNL     1      25.185  47.684  52.647  1.00  0.00    -0.247 OA
HETATM    5  H   UNL     1      26.995  46.334  50.534  1.00  0.00     0.170 HD
HETATM    6  H   UNL     1      25.478  45.546  53.491  1.00  0.00     0.164 HD
ENDROOT
BRANCH   3   7
HETATM    7  C   UNL     1      26.321  44.326  51.985  1.00  0.00     0.156 C 
BRANCH   7   8
HETATM    8  C   UNL     1      27.386  43.568  52.796  1.00  0.00     0.142 C 
HETATM    9  C   UNL     1      28.774  43.699  52.169  1.00  0.00     0.042 C 
BRANCH   8  10
HETATM   10  O   UNL     1      27.461  44.126  54.116  1.00  0.00    -0.343 OA
BRANCH  10  11
HETATM   11  C   UNL     1      28.679  44.149  54.739  1.00  0.00     0.086 A 
HETATM   12  C   UNL     1      29.078  45.355  55.334  1.00  0.00     0.044 A 
HETATM   13 BR   UNL     1      27.992  46.913  55.238  1.00  0.00    -0.048 Br
HETATM   14  C   UNL     1      30.298  45.450  56.009  1.00  0.00     0.022 A 
HETATM   15  C   UNL     1      31.127  44.335  56.105  1.00  0.00     0.002 A 
HETATM   16  C   UNL     1      30.731  43.125  55.538  1.00  0.00     0.003 A 
HETATM   17  C   UNL     1      29.509  43.029  54.866  1.00  0.00     0.038 A 
ENDBRANCH  10  11
ENDBRANCH   8  10
ENDBRANCH   7   8
ENDBRANCH   3   7
BRANCH   1  18
HETATM   18  C   UNL     1      26.002  47.979  49.800  1.00  0.00     0.059 A 
HETATM   19  C   UNL     1      24.793  48.416  49.240  1.00  0.00    -0.032 A 
HETATM   20  C   UNL     1      23.454  47.773  49.460  1.00  0.00     0.050 C 
HETATM   21  C   UNL     1      24.824  49.535  48.385  1.00  0.00     0.028 A 
HETATM   22  C   UNL     1      26.035  50.129  48.069  1.00  0.00     0.117 A 
HETATM   23  N   UNL     1      27.217  49.693  48.536  1.00  0.00    -0.271 NA
HETATM   24  C   UNL     1      27.166  48.637  49.383  1.00  0.00     0.146 A 
ENDBRANCH   1  18
TORSDOF 5
ENDMDL
MODEL 4
REMARK VINA RESULT:      -7.9      1.518      2.418
REMARK  5 active torsions:
REMARK  status: ('A' for Active; 'I' for Inactive)
REMARK    1  A    between atoms: C_3  and  N_4 
REMARK       I    between atoms: N_4  and  C_5 
REMARK       I    between atoms: C_5  and  N_6 
REMARK    2  A    between atoms: N_6  and  C_7 
REMARK    3  A    between atoms: C_7  and  C_8 
REMARK    4  A    between atoms: C_8  and  O_9 
REMARK    5  A    between atoms: O_9  and  C_10 
ROOT
HETATM    1  N   UNL     1      27.753  44.246  53.629  1.00  0.00    -0.307 N 
HETATM    2  C   UNL     1      26.440  43.962  53.881  1.00  0.00     0.320 C 
HETATM    3  N   UNL     1      25.618  44.011  52.791  1.00  0.00    -0.340 N 
HETATM    4  O   UNL     1      25.952  43.646  54.958  1.00  0.00    -0.247 OA
HETATM    5  H   UNL     1      28.039  43.982  52.700  1.00  0.00     0.170 HD
HETATM    6  H   UNL     1      24.644  43.917  53.064  1.00  0.00     0.164 HD
ENDROOT
BRANCH   3   7
HETATM    7  C   UNL     1      25.866  44.598  51.480  1.00  0.00     0.156 C 
BRANCH   7   8
HETATM    8  C   UNL     1      25.238  45.994  51.324  1.00  0.00     0.142 C 
HETATM    9  C   UNL     1      25.750  46.967  52.385  1.00  0.00     0.042 C 
BRANCH   8  10
HETATM   10  O   UNL     1      25.596  46.533  50.044  1.00  0.00    -0.343 OA
BRANCH  10  11
HETATM   11  C   UNL     1      24.898  47.614  49.579  1.00  0.00     0.086 A 
HETATM   12  C   UNL     1      25.638  48.707  49.106  1.00  0.00     0.044 A 
HETATM   13 BR   UNL     1      27.538  48.711  49.152  1.00  0.00    -0.048 Br
HETATM   14  C   UNL     1      24.995  49.838  48.595  1.00  0.00     0.022 A 
HETATM   15  C   UNL     1      23.604  49.882  48.541  1.00  0.00     0.002 A 
HETATM   16  C   UNL     1      22.859  48.793  48.987  1.00  0.00     0.003 A 
HETATM   17  C   UNL     1      23.501  47.660  49.495  1.00  0.00     0.038 A 
ENDBRANCH  10  11
ENDBRANCH   8  10
ENDBRANCH   7   8
ENDBRANCH   3   7
BRANCH   1  18
HETATM   18  C   UNL     1      28.808  44.385  54.565  1.00  0.00     0.059 A 
HETATM   19  C   UNL     1      29.084  45.501  55.367  1.00  0.00    -0.032 A 
HETATM   20  C   UNL     1      28.330  46.799  55.334  1.00  0.00     0.050 C 
HETATM   21  C   UNL     1      30.164  45.421  56.267  1.00  0.00     0.028 A 
HETATM   22  C   UNL     1      30.958  44.285  56.293  1.00  0.00     0.117 A 
HETATM   23  N   UNL     1      30.761  43.226  55.491  1.00  0.00    -0.271 NA
HETATM   24  C   UNL     1      29.698  43.306  54.656  1.00  0.00     0.146 A 
ENDBRANCH   1  18
TORSDOF 5
ENDMDL
MODEL 5
REMARK VINA RESULT:      -7.8     12.268     13.948
REMARK  5 active torsions:
REMARK  status: ('A' for Active; 'I' for Inactive)
REMARK    1  A    between atoms: C_3  and  N_4 
REMARK       I    between atoms: N_4  and  C_5 
REMARK       I    between atoms: C_5  and  N_6 
REMARK    2  A    between atoms: N_6  and  C_7 
REMARK    3  A    between atoms: C_7  and  C_8 
REMARK    4  A    between atoms: C_8  and  O_9 
REMARK    5  A    between atoms: O_9  and  C_10 
ROOT
HETATM    1  N   UNL     1      31.767  48.885  40.942  1.00  0.00    -0.307 N 
HETATM    2  C   UNL     1      32.882  48.193  41.322  1.00  0.00     0.320 C 
HETATM    3  N   UNL     1      33.897  48.959  41.822  1.00  0.00    -0.340 N 
HETATM    4  O   UNL     1      33.040  46.979  41.287  1.00  0.00    -0.247 OA
HETATM    5  H   UNL     1      31.622  49.721  41.485  1.00  0.00     0.170 HD
HETATM    6  H   UNL     1      34.736  48.404  41.966  1.00  0.00     0.164 HD
ENDROOT
BRANCH   3   7
HETATM    7  C   UNL     1      34.084  50.402  41.738  1.00  0.00     0.156 C 
BRANCH   7   8
HETATM    8  C   UNL     1      33.012  51.188  42.513  1.00  0.00     0.142 C 
HETATM    9  C   UNL     1      33.562  51.757  43.821  1.00  0.00     0.042 C 
BRANCH   8  10
HETATM   10  O   UNL     1      32.572  52.298  41.717  1.00  0.00    -0.343 OA
BRANCH  10  11
HETATM   11  C   UNL     1      31.271  52.315  41.296  1.00  0.00     0.086 A 
HETATM   12  C   UNL     1      31.028  52.062  39.937  1.00  0.00     0.044 A 
HETATM   13 BR   UNL     1      32.453  51.757  38.717  1.00  0.00    -0.048 Br
HETATM   14  C   UNL     1      29.723  52.039  39.436  1.00  0.00     0.022 A 
HETATM   15  C   UNL     1      28.647  52.258  40.293  1.00  0.00     0.002 A 
HETATM   16  C   UNL     1      28.874  52.487  41.648  1.00  0.00     0.003 A 
HETATM   17  C   UNL     1      30.178  52.506  42.150  1.00  0.00     0.038 A 
ENDBRANCH  10  11
ENDBRANCH   8  10
ENDBRANCH   7   8
ENDBRANCH   3   7
BRANCH   1  18
HETATM   18  C   UNL     1      30.613  48.384  40.290  1.00  0.00     0.059 A 
HETATM   19  C   UNL     1      29.303  48.361  40.790  1.00  0.00    -0.032 A 
HETATM   20  C   UNL     1      28.891  48.818  42.160  1.00  0.00     0.050 C 
HETATM   21  C   UNL     1      28.285  47.852  39.961  1.00  0.00     0.028 A 
HETATM   22  C   UNL     1      28.603  47.335  38.716  1.00  0.00     0.117 A 
HETATM   23  N   UNL     1      29.856  47.282  38.234  1.00  0.00    -0.271 NA
HETATM   24  C   UNL     1      30.819  47.805  39.031  1.00  0.00     0.146 A 
ENDBRANCH   1  18
TORSDOF 5
ENDMDL
MODEL 6
REMARK VINA RESULT:      -7.7      3.280      8.233
REMARK  5 active torsions:
REMARK  status: ('A' for Active; 'I' for Inactive)
REMARK    1  A    between atoms: C_3  and  N_4 
REMARK       I    between atoms: N_4  and  C_5 
REMARK       I    between atoms: C_5  and  N_6 
REMARK    2  A    between atoms: N_6  and  C_7 
REMARK    3  A    between atoms: C_7  and  C_8 
REMARK    4  A    between atoms: C_8  and  O_9 
REMARK    5  A    between atoms: O_9  and  C_10 
ROOT
HETATM    1  N   UNL     1      25.498  43.857  51.084  1.00  0.00    -0.307 N 
HETATM    2  C   UNL     1      26.818  43.944  50.744  1.00  0.00     0.320 C 
HETATM    3  N   UNL     1      27.697  43.719  51.765  1.00  0.00    -0.340 N 
HETATM    4  O   UNL     1      27.275  44.168  49.630  1.00  0.00    -0.247 OA
HETATM    5  H   UNL     1      25.330  43.204  51.833  1.00  0.00     0.170 HD
HETATM    6  H   UNL     1      28.650  43.921  51.479  1.00  0.00     0.164 HD
ENDROOT
BRANCH   3   7
HETATM    7  C   UNL     1      27.446  43.693  53.201  1.00  0.00     0.156 C 
BRANCH   7   8
HETATM    8  C   UNL     1      28.599  43.054  53.996  1.00  0.00     0.142 C 
HETATM    9  C   UNL     1      29.195  41.853  53.261  1.00  0.00     0.042 C 
BRANCH   8  10
HETATM   10  O   UNL     1      29.649  44.016  54.161  1.00  0.00    -0.343 OA
BRANCH  10  11
HETATM   11  C   UNL     1      30.167  44.197  55.415  1.00  0.00     0.086 A 
HETATM   12  C   UNL     1      29.757  45.336  56.125  1.00  0.00     0.044 A 
HETATM   13 BR   UNL     1      28.567  46.605  55.359  1.00  0.00    -0.048 Br
HETATM   14  C   UNL     1      30.224  45.578  57.420  1.00  0.00     0.022 A 
HETATM   15  C   UNL     1      31.098  44.676  58.022  1.00  0.00     0.002 A 
HETATM   16  C   UNL     1      31.494  43.530  57.336  1.00  0.00     0.003 A 
HETATM   17  C   UNL     1      31.024  43.286  56.042  1.00  0.00     0.038 A 
ENDBRANCH  10  11
ENDBRANCH   8  10
ENDBRANCH   7   8
ENDBRANCH   3   7
BRANCH   1  18
HETATM   18  C   UNL     1      24.370  44.149  50.278  1.00  0.00     0.059 A 
HETATM   19  C   UNL     1      23.959  45.410  49.825  1.00  0.00    -0.032 A 
HETATM   20  C   UNL     1      24.622  46.713  50.171  1.00  0.00     0.050 C 
HETATM   21  C   UNL     1      22.824  45.480  48.995  1.00  0.00     0.028 A 
HETATM   22  C   UNL     1      22.111  44.328  48.702  1.00  0.00     0.117 A 
HETATM   23  N   UNL     1      22.440  43.114  49.174  1.00  0.00    -0.271 NA
HETATM   24  C   UNL     1      23.553  43.060  49.943  1.00  0.00     0.146 A 
ENDBRANCH   1  18
TORSDOF 5
ENDMDL
MODEL 7
REMARK VINA RESULT:      -7.5      3.102      7.932
REMARK  5 active torsions:
REMARK  status: ('A' for Active; 'I' for Inactive)
REMARK    1  A    between atoms: C_3  and  N_4 
REMARK       I    between atoms: N_4  and  C_5 
REMARK       I    between atoms: C_5  and  N_6 
REMARK    2  A    between atoms: N_6  and  C_7 
REMARK    3  A    between atoms: C_7  and  C_8 
REMARK    4  A    between atoms: C_8  and  O_9 
REMARK    5  A    between atoms: O_9  and  C_10 
ROOT
HETATM    1  N   UNL     1      24.014  47.006  50.130  1.00  0.00    -0.307 N 
HETATM    2  C   UNL     1      23.933  45.711  49.702  1.00  0.00     0.320 C 
HETATM    3  N   UNL     1      24.224  44.769  50.648  1.00  0.00    -0.340 N 
HETATM    4  O   UNL     1      23.602  45.326  48.589  1.00  0.00    -0.247 OA
HETATM    5  H   UNL     1      23.796  47.110  51.107  1.00  0.00     0.170 HD
HETATM    6  H   UNL     1      24.270  43.841  50.238  1.00  0.00     0.164 HD
ENDROOT
BRANCH   3   7
HETATM    7  C   UNL     1      24.884  44.937  51.938  1.00  0.00     0.156 C 
BRANCH   7   8
HETATM    8  C   UNL     1      25.991  43.898  52.181  1.00  0.00     0.142 C 
HETATM    9  C   UNL     1      25.945  42.770  51.149  1.00  0.00     0.042 C 
BRANCH   8  10
HETATM   10  O   UNL     1      27.271  44.534  52.059  1.00  0.00    -0.343 OA
BRANCH  10  11
HETATM   11  C   UNL     1      28.294  44.082  52.849  1.00  0.00     0.086 A 
HETATM   12  C   UNL     1      28.438  44.667  54.116  1.00  0.00     0.044 A 
HETATM   13 BR   UNL     1      27.290  46.066  54.697  1.00  0.00    -0.048 Br
HETATM   14  C   UNL     1      29.444  44.243  54.988  1.00  0.00     0.022 A 
HETATM   15  C   UNL     1      30.310  43.221  54.605  1.00  0.00     0.002 A 
HETATM   16  C   UNL     1      30.162  42.617  53.359  1.00  0.00     0.003 A 
HETATM   17  C   UNL     1      29.154  43.039  52.487  1.00  0.00     0.038 A 
ENDBRANCH  10  11
ENDBRANCH   8  10
ENDBRANCH   7   8
ENDBRANCH   3   7
BRANCH   1  18
HETATM   18  C   UNL     1      23.884  48.187  49.357  1.00  0.00     0.059 A 
HETATM   19  C   UNL     1      24.919  49.000  48.875  1.00  0.00    -0.032 A 
HETATM   20  C   UNL     1      26.381  48.792  49.146  1.00  0.00     0.050 C 
HETATM   21  C   UNL     1      24.575  50.115  48.087  1.00  0.00     0.028 A 
HETATM   22  C   UNL     1      23.242  50.418  47.864  1.00  0.00     0.117 A 
HETATM   23  N   UNL     1      22.225  49.698  48.368  1.00  0.00    -0.271 NA
HETATM   24  C   UNL     1      22.573  48.610  49.095  1.00  0.00     0.146 A 
ENDBRANCH   1  18
TORSDOF 5
ENDMDL
MODEL 8
REMARK VINA RESULT:      -7.5      4.016      7.186
REMARK  5 active torsions:
REMARK  status: ('A' for Active; 'I' for Inactive)
REMARK    1  A    between atoms: C_3  and  N_4 
REMARK       I    between atoms: N_4  and  C_5 
REMARK       I    between atoms: C_5  and  N_6 
REMARK    2  A    between atoms: N_6  and  C_7 
REMARK    3  A    between atoms: C_7  and  C_8 
REMARK    4  A    between atoms: C_8  and  O_9 
REMARK    5  A    between atoms: O_9  and  C_10 
ROOT
HETATM    1  N   UNL     1      26.530  43.144  51.253  1.00  0.00    -0.307 N 
HETATM    2  C   UNL     1      26.837  44.398  50.805  1.00  0.00     0.320 C 
HETATM    3  N   UNL     1      26.566  45.409  51.682  1.00  0.00    -0.340 N 
HETATM    4  O   UNL     1      27.349  44.688  49.731  1.00  0.00    -0.247 OA
HETATM    5  H   UNL     1      26.614  43.055  52.252  1.00  0.00     0.170 HD
HETATM    6  H   UNL     1      26.697  46.317  51.245  1.00  0.00     0.164 HD
ENDROOT
BRANCH   3   7
HETATM    7  C   UNL     1      25.740  45.384  52.883  1.00  0.00     0.156 C 
BRANCH   7   8
HETATM    8  C   UNL     1      26.549  45.077  54.156  1.00  0.00     0.142 C 
HETATM    9  C   UNL     1      26.099  43.771  54.810  1.00  0.00     0.042 C 
BRANCH   8  10
HETATM   10  O   UNL     1      27.933  44.927  53.812  1.00  0.00    -0.343 OA
BRANCH  10  11
HETATM   11  C   UNL     1      28.848  44.872  54.828  1.00  0.00     0.086 A 
HETATM   12  C   UNL     1      29.846  43.890  54.746  1.00  0.00     0.044 A 
HETATM   13 BR   UNL     1      29.899  42.649  53.306  1.00  0.00    -0.048 Br
HETATM   14  C   UNL     1      30.830  43.786  55.733  1.00  0.00     0.022 A 
HETATM   15  C   UNL     1      30.832  44.673  56.807  1.00  0.00     0.002 A 
HETATM   16  C   UNL     1      29.860  45.667  56.887  1.00  0.00     0.003 A 
HETATM   17  C   UNL     1      28.878  45.773  55.899  1.00  0.00     0.038 A 
ENDBRANCH  10  11
ENDBRANCH   8  10
ENDBRANCH   7   8
ENDBRANCH   3   7
BRANCH   1  18
HETATM   18  C   UNL     1      26.591  41.924  50.534  1.00  0.00     0.059 A 
HETATM   19  C   UNL     1      25.633  41.420  49.642  1.00  0.00    -0.032 A 
HETATM   20  C   UNL     1      24.316  42.070  49.328  1.00  0.00     0.050 C 
HETATM   21  C   UNL     1      25.905  40.199  48.997  1.00  0.00     0.028 A 
HETATM   22  C   UNL     1      27.062  39.500  49.300  1.00  0.00     0.117 A 
HETATM   23  N   UNL     1      27.968  39.923  50.198  1.00  0.00    -0.271 NA
HETATM   24  C   UNL     1      27.707  41.115  50.785  1.00  0.00     0.146 A 
ENDBRANCH   1  18
TORSDOF 5
ENDMDL
MODEL 9
REMARK VINA RESULT:      -7.4      6.234     10.568
REMARK  5 active torsions:
REMARK  status: ('A' for Active; 'I' for Inactive)
REMARK    1  A    between atoms: C_3  and  N_4 
REMARK       I    between atoms: N_4  and  C_5 
REMARK       I    between atoms: C_5  and  N_6 
REMARK    2  A    between atoms: N_6  and  C_7 
REMARK    3  A    between atoms: C_7  and  C_8 
REMARK    4  A    between atoms: C_8  and  O_9 
REMARK    5  A    between atoms: O_9  and  C_10 
ROOT
HETATM    1  N   UNL     1      18.808  50.403  49.355  1.00  0.00    -0.307 N 
HETATM    2  C   UNL     1      19.204  49.504  50.305  1.00  0.00     0.320 C 
HETATM    3  N   UNL     1      20.355  48.827  50.017  1.00  0.00    -0.340 N 
HETATM    4  O   UNL     1      18.656  49.279  51.376  1.00  0.00    -0.247 OA
HETATM    5  H   UNL     1      19.580  50.803  48.849  1.00  0.00     0.170 HD
HETATM    6  H   UNL     1      20.526  48.091  50.697  1.00  0.00     0.164 HD
ENDROOT
BRANCH   3   7
HETATM    7  C   UNL     1      21.052  48.702  48.743  1.00  0.00     0.156 C 
BRANCH   7   8
HETATM    8  C   UNL     1      22.440  49.366  48.755  1.00  0.00     0.142 C 
HETATM    9  C   UNL     1      22.418  50.710  49.483  1.00  0.00     0.042 C 
BRANCH   8  10
HETATM   10  O   UNL     1      23.363  48.519  49.454  1.00  0.00    -0.343 OA
BRANCH  10  11
HETATM   11  C   UNL     1      24.702  48.727  49.263  1.00  0.00     0.086 A 
HETATM   12  C   UNL     1      25.589  47.822  49.865  1.00  0.00     0.044 A 
HETATM   13 BR   UNL     1      24.960  46.389  50.945  1.00  0.00    -0.048 Br
HETATM   14  C   UNL     1      26.970  47.955  49.696  1.00  0.00     0.022 A 
HETATM   15  C   UNL     1      27.477  48.989  48.914  1.00  0.00     0.002 A 
HETATM   16  C   UNL     1      26.606  49.881  48.293  1.00  0.00     0.003 A 
HETATM   17  C   UNL     1      25.224  49.746  48.458  1.00  0.00     0.038 A 
ENDBRANCH  10  11
ENDBRANCH   8  10
ENDBRANCH   7   8
ENDBRANCH   3   7
BRANCH   1  18
HETATM   18  C   UNL     1      17.610  51.160  49.320  1.00  0.00     0.059 A 
HETATM   19  C   UNL     1      16.399  50.797  48.713  1.00  0.00    -0.032 A 
HETATM   20  C   UNL     1      16.168  49.541  47.924  1.00  0.00     0.050 C 
HETATM   21  C   UNL     1      15.309  51.681  48.827  1.00  0.00     0.028 A 
HETATM   22  C   UNL     1      15.472  52.899  49.468  1.00  0.00     0.117 A 
HETATM   23  N   UNL     1      16.636  53.304  50.002  1.00  0.00    -0.271 NA
HETATM   24  C   UNL     1      17.665  52.428  49.913  1.00  0.00     0.146 A 
ENDBRANCH   1  18
TORSDOF 5
ENDMDL
MODEL 10
REMARK VINA RESULT:      -7.4     12.560     13.770
REMARK  5 active torsions:
REMARK  status: ('A' for Active; 'I' for Inactive)
REMARK    1  A    between atoms: C_3  and  N_4 
REMARK       I    between atoms: N_4  and  C_5 
REMARK       I    between atoms: C_5  and  N_6 
REMARK    2  A    between atoms: N_6  and  C_7 
REMARK    3  A    between atoms: C_7  and  C_8 
REMARK    4  A    between atoms: C_8  and  O_9 
REMARK    5  A    between atoms: O_9  and  C_10 
ROOT
HETATM    1  N   UNL     1      32.493  49.365  41.240  1.00  0.00    -0.307 N 
HETATM    2  C   UNL     1      32.397  48.007  41.116  1.00  0.00     0.320 C 
HETATM    3  N   UNL     1      31.207  47.553  40.622  1.00  0.00    -0.340 N 
HETATM    4  O   UNL     1      33.267  47.185  41.370  1.00  0.00    -0.247 OA
HETATM    5  H   UNL     1      31.947  49.860  40.554  1.00  0.00     0.170 HD
HETATM    6  H   UNL     1      31.153  46.540  40.674  1.00  0.00     0.164 HD
ENDROOT
BRANCH   3   7
HETATM    7  C   UNL     1      29.939  48.261  40.489  1.00  0.00     0.156 C 
BRANCH   7   8
HETATM    8  C   UNL     1      29.639  48.678  39.039  1.00  0.00     0.142 C 
HETATM    9  C   UNL     1      28.401  47.969  38.491  1.00  0.00     0.042 C 
BRANCH   8  10
HETATM   10  O   UNL     1      29.376  50.088  38.997  1.00  0.00    -0.343 OA
BRANCH  10  11
HETATM   11  C   UNL     1      30.435  50.946  39.114  1.00  0.00     0.086 A 
HETATM   12  C   UNL     1      30.356  51.939  40.102  1.00  0.00     0.044 A 
HETATM   13 BR   UNL     1      28.818  52.119  41.205  1.00  0.00    -0.048 Br
HETATM   14  C   UNL     1      31.408  52.838  40.298  1.00  0.00     0.022 A 
HETATM   15  C   UNL     1      32.556  52.745  39.514  1.00  0.00     0.002 A 
HETATM   16  C   UNL     1      32.655  51.749  38.545  1.00  0.00     0.003 A 
HETATM   17  C   UNL     1      31.605  50.848  38.352  1.00  0.00     0.038 A 
ENDBRANCH  10  11
ENDBRANCH   8  10
ENDBRANCH   7   8
ENDBRANCH   3   7
BRANCH   1  18
HETATM   18  C   UNL     1      33.546  50.113  41.822  1.00  0.00     0.059 A 
HETATM   19  C   UNL     1      33.451  51.016  42.891  1.00  0.00    -0.032 A 
HETATM   20  C   UNL     1      32.178  51.404  43.586  1.00  0.00     0.050 C 
HETATM   21  C   UNL     1      34.633  51.631  43.347  1.00  0.00     0.028 A 
HETATM   22  C   UNL     1      35.833  51.385  42.700  1.00  0.00     0.117 A 
HETATM   23  N   UNL     1      35.946  50.578  41.632  1.00  0.00    -0.271 NA
HETATM   24  C   UNL     1      34.807  49.969  41.227  1.00  0.00     0.146 A 
ENDBRANCH   1  18
TORSDOF 5
ENDMDL
