MODEL 1
REMARK VINA RESULT:      -7.6      0.000      0.000
REMARK  4 active torsions:
REMARK  status: ('A' for Active; 'I' for Inactive)
REMARK    1  A    between atoms: C_2  and  O_3 
REMARK    2  A    between atoms: O_3  and  C_4 
REMARK    3  A    between atoms: C_4  and  C_5 
REMARK    4  A    between atoms: C_9  and  N_10 
ROOT
HETATM    1  C   UNL     1      28.395  45.814  55.536  1.00  0.00     0.109 A 
HETATM    2  S   UNL     1      27.364  47.115  55.106  1.00  0.00    -0.063 SA
HETATM    3  C   UNL     1      26.987  46.406  53.623  1.00  0.00     0.088 A 
HETATM    4  C   UNL     1      27.585  45.179  53.397  1.00  0.00     0.033 A 
HETATM    5  C   UNL     1      28.426  44.860  54.527  1.00  0.00     0.063 A 
HETATM    6  N   UNL     1      26.157  47.016  52.742  1.00  0.00    -0.353 N 
HETATM    7  H   UNL     1      25.773  47.920  53.012  1.00  0.00     0.166 HD
HETATM    8  C   UNL     1      25.867  46.453  51.565  1.00  0.00     0.015 A 
HETATM    9  C   UNL     1      24.951  47.211  50.653  1.00  0.00     0.069 C 
HETATM   10  C   UNL     1      26.426  45.207  51.238  1.00  0.00    -0.005 A 
HETATM   11  C   UNL     1      27.267  44.531  52.166  1.00  0.00    -0.030 A 
HETATM   12  C   UNL     1      27.835  43.177  51.782  1.00  0.00     0.077 C 
HETATM   13  C   UNL     1      27.117  42.504  50.599  1.00  0.00     0.058 C 
HETATM   14  C   UNL     1      25.790  41.850  51.017  1.00  0.00     0.046 C 
HETATM   15  C   UNL     1      28.024  41.417  50.006  1.00  0.00     0.046 C 
HETATM   16  O   UNL     1      26.935  43.474  49.563  1.00  0.00    -0.376 OA
HETATM   17  C   UNL     1      26.087  44.559  49.908  1.00  0.00     0.210 C 
ENDROOT
BRANCH   1  18
HETATM   18  C   UNL     1      29.125  45.795  56.798  1.00  0.00     0.302 C 
HETATM   19  O   UNL     1      28.643  46.106  57.881  1.00  0.00    -0.259 OA
BRANCH  18  20
HETATM   20  O   UNL     1      30.409  45.368  56.623  1.00  0.00    -0.317 OA
BRANCH  20  21
HETATM   21  C   UNL     1      30.980  44.626  57.714  1.00  0.00     0.174 C 
HETATM   22  C   UNL     1      31.721  43.410  57.191  1.00  0.00     0.034 C 
ENDBRANCH  20  21
ENDBRANCH  18  20
ENDBRANCH   1  18
BRANCH   5  23
HETATM   23  N   UNL     1      29.184  43.747  54.622  1.00  0.00    -0.397 N 
HETATM   24  H   UNL     1      29.327  43.080  53.869  1.00  0.00     0.156 HD
HETATM   25  H   UNL     1      29.925  43.673  55.330  1.00  0.00     0.156 HD
ENDBRANCH   5  23
TORSDOF 4
ENDMDL
MODEL 2
REMARK VINA RESULT:      -7.2      2.016      3.625
REMARK  4 active torsions:
REMARK  status: ('A' for Active; 'I' for Inactive)
REMARK    1  A    between atoms: C_2  and  O_3 
REMARK    2  A    between atoms: O_3  and  C_4 
REMARK    3  A    between atoms: C_4  and  C_5 
REMARK    4  A    between atoms: C_9  and  N_10 
ROOT
HETATM    1  C   UNL     1      29.024  44.305  54.546  1.00  0.00     0.109 A 
HETATM    2  S   UNL     1      29.998  43.000  54.012  1.00  0.00    -0.063 SA
HETATM    3  C   UNL     1      28.854  42.537  52.862  1.00  0.00     0.088 A 
HETATM    4  C   UNL     1      27.726  43.335  52.812  1.00  0.00     0.033 A 
HETATM    5  C   UNL     1      27.837  44.357  53.826  1.00  0.00     0.063 A 
HETATM    6  N   UNL     1      29.056  41.462  52.062  1.00  0.00    -0.353 N 
HETATM    7  H   UNL     1      29.925  40.945  52.186  1.00  0.00     0.166 HD
HETATM    8  C   UNL     1      28.143  41.095  51.157  1.00  0.00     0.015 A 
HETATM    9  C   UNL     1      28.450  39.884  50.330  1.00  0.00     0.069 C 
HETATM   10  C   UNL     1      26.959  41.839  51.029  1.00  0.00    -0.005 A 
HETATM   11  C   UNL     1      26.747  42.995  51.831  1.00  0.00    -0.030 A 
HETATM   12  C   UNL     1      25.462  43.783  51.646  1.00  0.00     0.077 C 
HETATM   13  C   UNL     1      24.716  43.476  50.337  1.00  0.00     0.058 C 
HETATM   14  C   UNL     1      25.346  44.183  49.126  1.00  0.00     0.046 C 
HETATM   15  C   UNL     1      23.258  43.940  50.462  1.00  0.00     0.046 C 
HETATM   16  O   UNL     1      24.664  42.057  50.162  1.00  0.00    -0.376 OA
HETATM   17  C   UNL     1      25.928  41.433  49.992  1.00  0.00     0.210 C 
ENDROOT
BRANCH   1  18
HETATM   18  C   UNL     1      29.441  45.185  55.632  1.00  0.00     0.302 C 
HETATM   19  O   UNL     1      28.707  45.995  56.186  1.00  0.00    -0.259 OA
BRANCH  18  20
HETATM   20  O   UNL     1      30.748  44.978  55.965  1.00  0.00    -0.317 OA
BRANCH  20  21
HETATM   21  C   UNL     1      30.990  44.511  57.303  1.00  0.00     0.174 C 
HETATM   22  C   UNL     1      31.888  43.288  57.277  1.00  0.00     0.034 C 
ENDBRANCH  20  21
ENDBRANCH  18  20
ENDBRANCH   1  18
BRANCH   5  23
HETATM   23  N   UNL     1      26.892  45.289  54.076  1.00  0.00    -0.397 N 
HETATM   24  H   UNL     1      26.657  46.055  53.452  1.00  0.00     0.156 HD
HETATM   25  H   UNL     1      26.127  45.098  54.735  1.00  0.00     0.156 HD
ENDBRANCH   5  23
TORSDOF 4
ENDMDL
MODEL 3
REMARK VINA RESULT:      -7.1      2.110      6.250
REMARK  4 active torsions:
REMARK  status: ('A' for Active; 'I' for Inactive)
REMARK    1  A    between atoms: C_2  and  O_3 
REMARK    2  A    between atoms: O_3  and  C_4 
REMARK    3  A    between atoms: C_4  and  C_5 
REMARK    4  A    between atoms: C_9  and  N_10 
ROOT
HETATM    1  C   UNL     1      27.777  42.429  51.097  1.00  0.00     0.109 A 
HETATM    2  S   UNL     1      26.693  43.756  51.046  1.00  0.00    -0.063 SA
HETATM    3  C   UNL     1      27.270  44.362  52.511  1.00  0.00     0.088 A 
HETATM    4  C   UNL     1      28.293  43.627  53.081  1.00  0.00     0.033 A 
HETATM    5  C   UNL     1      28.562  42.481  52.242  1.00  0.00     0.063 A 
HETATM    6  N   UNL     1      26.752  45.487  53.060  1.00  0.00    -0.353 N 
HETATM    7  H   UNL     1      25.998  45.950  52.553  1.00  0.00     0.166 HD
HETATM    8  C   UNL     1      27.207  45.960  54.224  1.00  0.00     0.015 A 
HETATM    9  C   UNL     1      26.560  47.202  54.758  1.00  0.00     0.069 C 
HETATM   10  C   UNL     1      28.245  45.283  54.886  1.00  0.00    -0.005 A 
HETATM   11  C   UNL     1      28.831  44.124  54.305  1.00  0.00    -0.030 A 
HETATM   12  C   UNL     1      29.964  43.434  55.044  1.00  0.00     0.077 C 
HETATM   13  C   UNL     1      30.621  44.293  56.138  1.00  0.00     0.058 C 
HETATM   14  C   UNL     1      31.602  45.326  55.558  1.00  0.00     0.046 C 
HETATM   15  C   UNL     1      31.393  43.384  57.103  1.00  0.00     0.046 C 
HETATM   16  O   UNL     1      29.589  44.909  56.915  1.00  0.00    -0.376 OA
HETATM   17  C   UNL     1      28.775  45.826  56.201  1.00  0.00     0.210 C 
ENDROOT
BRANCH   1  18
HETATM   18  C   UNL     1      27.797  41.410  50.055  1.00  0.00     0.302 C 
HETATM   19  O   UNL     1      27.682  41.643  48.858  1.00  0.00    -0.259 OA
BRANCH  18  20
HETATM   20  O   UNL     1      27.978  40.164  50.581  1.00  0.00    -0.317 OA
BRANCH  20  21
HETATM   21  C   UNL     1      28.671  39.223  49.744  1.00  0.00     0.174 C 
HETATM   22  C   UNL     1      29.544  38.313  50.588  1.00  0.00     0.034 C 
ENDBRANCH  20  21
ENDBRANCH  18  20
ENDBRANCH   1  18
BRANCH   5  23
HETATM   23  N   UNL     1      29.481  41.533  52.521  1.00  0.00    -0.397 N 
HETATM   24  H   UNL     1      30.012  41.480  53.385  1.00  0.00     0.156 HD
HETATM   25  H   UNL     1      29.464  40.626  52.038  1.00  0.00     0.156 HD
ENDBRANCH   5  23
TORSDOF 4
ENDMDL
MODEL 4
REMARK VINA RESULT:      -6.9      4.928      7.112
REMARK  4 active torsions:
REMARK  status: ('A' for Active; 'I' for Inactive)
REMARK    1  A    between atoms: C_2  and  O_3 
REMARK    2  A    between atoms: O_3  and  C_4 
REMARK    3  A    between atoms: C_4  and  C_5 
REMARK    4  A    between atoms: C_9  and  N_10 
ROOT
HETATM    1  C   UNL     1      24.918  44.614  50.565  1.00  0.00     0.109 A 
HETATM    2  S   UNL     1      26.494  45.286  50.632  1.00  0.00    -0.063 SA
HETATM    3  C   UNL     1      25.981  46.715  49.898  1.00  0.00     0.088 A 
HETATM    4  C   UNL     1      24.632  46.762  49.597  1.00  0.00     0.033 A 
HETATM    5  C   UNL     1      24.030  45.507  49.979  1.00  0.00     0.063 A 
HETATM    6  N   UNL     1      26.849  47.723  49.638  1.00  0.00    -0.353 N 
HETATM    7  H   UNL     1      27.823  47.581  49.902  1.00  0.00     0.166 HD
HETATM    8  C   UNL     1      26.440  48.851  49.050  1.00  0.00     0.015 A 
HETATM    9  C   UNL     1      27.477  49.902  48.791  1.00  0.00     0.069 C 
HETATM   10  C   UNL     1      25.087  48.997  48.701  1.00  0.00    -0.005 A 
HETATM   11  C   UNL     1      24.153  47.968  49.003  1.00  0.00    -0.030 A 
HETATM   12  C   UNL     1      22.696  48.174  48.627  1.00  0.00     0.077 C 
HETATM   13  C   UNL     1      22.322  49.636  48.326  1.00  0.00     0.058 C 
HETATM   14  C   UNL     1      22.129  50.464  49.607  1.00  0.00     0.046 C 
HETATM   15  C   UNL     1      21.013  49.671  47.527  1.00  0.00     0.046 C 
HETATM   16  O   UNL     1      23.323  50.196  47.470  1.00  0.00    -0.376 OA
HETATM   17  C   UNL     1      24.617  50.284  48.046  1.00  0.00     0.210 C 
ENDROOT
BRANCH   1  18
HETATM   18  C   UNL     1      24.631  43.271  51.056  1.00  0.00     0.302 C 
HETATM   19  O   UNL     1      23.508  42.788  51.130  1.00  0.00    -0.259 OA
BRANCH  18  20
HETATM   20  O   UNL     1      25.775  42.614  51.405  1.00  0.00    -0.317 OA
BRANCH  20  21
HETATM   21  C   UNL     1      26.072  41.425  50.653  1.00  0.00     0.174 C 
HETATM   22  C   UNL     1      27.512  41.452  50.176  1.00  0.00     0.034 C 
ENDBRANCH  20  21
ENDBRANCH  18  20
ENDBRANCH   1  18
BRANCH   5  23
HETATM   23  N   UNL     1      22.728  45.200  49.795  1.00  0.00    -0.397 N 
HETATM   24  H   UNL     1      21.988  45.399  50.461  1.00  0.00     0.156 HD
HETATM   25  H   UNL     1      22.349  45.058  48.850  1.00  0.00     0.156 HD
ENDBRANCH   5  23
TORSDOF 4
ENDMDL
MODEL 5
REMARK VINA RESULT:      -6.9      5.483      9.100
REMARK  4 active torsions:
REMARK  status: ('A' for Active; 'I' for Inactive)
REMARK    1  A    between atoms: C_2  and  O_3 
REMARK    2  A    between atoms: O_3  and  C_4 
REMARK    3  A    between atoms: C_4  and  C_5 
REMARK    4  A    between atoms: C_9  and  N_10 
ROOT
HETATM    1  C   UNL     1      21.882  49.963  48.386  1.00  0.00     0.109 A 
HETATM    2  S   UNL     1      23.299  50.856  48.022  1.00  0.00    -0.063 SA
HETATM    3  C   UNL     1      24.296  49.639  48.631  1.00  0.00     0.088 A 
HETATM    4  C   UNL     1      23.628  48.524  49.105  1.00  0.00     0.033 A 
HETATM    5  C   UNL     1      22.206  48.745  48.970  1.00  0.00     0.063 A 
HETATM    6  N   UNL     1      25.644  49.772  48.641  1.00  0.00    -0.353 N 
HETATM    7  H   UNL     1      26.030  50.638  48.267  1.00  0.00     0.166 HD
HETATM    8  C   UNL     1      26.429  48.808  49.131  1.00  0.00     0.015 A 
HETATM    9  C   UNL     1      27.907  49.054  49.112  1.00  0.00     0.069 C 
HETATM   10  C   UNL     1      25.847  47.635  49.639  1.00  0.00    -0.005 A 
HETATM   11  C   UNL     1      24.436  47.458  49.600  1.00  0.00    -0.030 A 
HETATM   12  C   UNL     1      23.849  46.166  50.142  1.00  0.00     0.077 C 
HETATM   13  C   UNL     1      24.871  45.027  50.303  1.00  0.00     0.058 C 
HETATM   14  C   UNL     1      25.197  44.342  48.966  1.00  0.00     0.046 C 
HETATM   15  C   UNL     1      24.306  43.971  51.262  1.00  0.00     0.046 C 
HETATM   16  O   UNL     1      26.042  45.551  50.938  1.00  0.00    -0.376 OA
HETATM   17  C   UNL     1      26.737  46.533  50.184  1.00  0.00     0.210 C 
ENDROOT
BRANCH   1  18
HETATM   18  C   UNL     1      20.549  50.488  48.113  1.00  0.00     0.302 C 
HETATM   19  O   UNL     1      19.743  49.966  47.352  1.00  0.00    -0.259 OA
BRANCH  18  20
HETATM   20  O   UNL     1      20.306  51.624  48.827  1.00  0.00    -0.317 OA
BRANCH  20  21
HETATM   21  C   UNL     1      19.105  52.337  48.487  1.00  0.00     0.174 C 
HETATM   22  C   UNL     1      18.150  52.350  49.666  1.00  0.00     0.034 C 
ENDBRANCH  20  21
ENDBRANCH  18  20
ENDBRANCH   1  18
BRANCH   5  23
HETATM   23  N   UNL     1      21.259  47.869  49.366  1.00  0.00    -0.397 N 
HETATM   24  H   UNL     1      20.261  48.057  49.361  1.00  0.00     0.156 HD
HETATM   25  H   UNL     1      21.447  46.859  49.377  1.00  0.00     0.156 HD
ENDBRANCH   5  23
TORSDOF 4
ENDMDL
MODEL 6
REMARK VINA RESULT:      -6.9      3.201      6.701
REMARK  4 active torsions:
REMARK  status: ('A' for Active; 'I' for Inactive)
REMARK    1  A    between atoms: C_2  and  O_3 
REMARK    2  A    between atoms: O_3  and  C_4 
REMARK    3  A    between atoms: C_4  and  C_5 
REMARK    4  A    between atoms: C_9  and  N_10 
ROOT
HETATM    1  C   UNL     1      24.162  46.641  49.825  1.00  0.00     0.109 A 
HETATM    2  S   UNL     1      23.722  45.228  48.959  1.00  0.00    -0.063 SA
HETATM    3  C   UNL     1      24.785  44.273  49.856  1.00  0.00     0.088 A 
HETATM    4  C   UNL     1      25.485  44.950  50.838  1.00  0.00     0.033 A 
HETATM    5  C   UNL     1      25.119  46.346  50.788  1.00  0.00     0.063 A 
HETATM    6  N   UNL     1      24.917  42.948  49.610  1.00  0.00    -0.353 N 
HETATM    7  H   UNL     1      24.351  42.553  48.861  1.00  0.00     0.166 HD
HETATM    8  C   UNL     1      25.765  42.196  50.319  1.00  0.00     0.015 A 
HETATM    9  C   UNL     1      25.852  40.743  49.964  1.00  0.00     0.069 C 
HETATM   10  C   UNL     1      26.527  42.789  51.340  1.00  0.00    -0.005 A 
HETATM   11  C   UNL     1      26.372  44.171  51.640  1.00  0.00    -0.030 A 
HETATM   12  C   UNL     1      27.200  44.769  52.764  1.00  0.00     0.077 C 
HETATM   13  C   UNL     1      27.817  43.729  53.715  1.00  0.00     0.058 C 
HETATM   14  C   UNL     1      26.797  43.187  54.729  1.00  0.00     0.046 C 
HETATM   15  C   UNL     1      28.973  44.375  54.492  1.00  0.00     0.046 C 
HETATM   16  O   UNL     1      28.403  42.685  52.932  1.00  0.00    -0.376 OA
HETATM   17  C   UNL     1      27.480  41.935  52.156  1.00  0.00     0.210 C 
ENDROOT
BRANCH   1  18
HETATM   18  C   UNL     1      23.586  47.944  49.518  1.00  0.00     0.302 C 
HETATM   19  O   UNL     1      22.416  48.125  49.199  1.00  0.00    -0.259 OA
BRANCH  18  20
HETATM   20  O   UNL     1      24.508  48.940  49.649  1.00  0.00    -0.317 OA
BRANCH  20  21
HETATM   21  C   UNL     1      24.867  49.629  48.439  1.00  0.00     0.174 C 
HETATM   22  C   UNL     1      26.377  49.703  48.305  1.00  0.00     0.034 C 
ENDBRANCH  20  21
ENDBRANCH  18  20
ENDBRANCH   1  18
BRANCH   5  23
HETATM   23  N   UNL     1      25.642  47.299  51.589  1.00  0.00    -0.397 N 
HETATM   24  H   UNL     1      25.443  48.292  51.510  1.00  0.00     0.156 HD
HETATM   25  H   UNL     1      25.999  47.064  52.523  1.00  0.00     0.156 HD
ENDBRANCH   5  23
TORSDOF 4
ENDMDL
MODEL 7
REMARK VINA RESULT:      -6.7      2.760      6.744
REMARK  4 active torsions:
REMARK  status: ('A' for Active; 'I' for Inactive)
REMARK    1  A    between atoms: C_2  and  O_3 
REMARK    2  A    between atoms: O_3  and  C_4 
REMARK    3  A    between atoms: C_4  and  C_5 
REMARK    4  A    between atoms: C_9  and  N_10 
ROOT
HETATM    1  C   UNL     1      24.553  45.776  50.040  1.00  0.00     0.109 A 
HETATM    2  S   UNL     1      24.769  47.230  50.923  1.00  0.00    -0.063 SA
HETATM    3  C   UNL     1      25.797  46.478  52.029  1.00  0.00     0.088 A 
HETATM    4  C   UNL     1      26.038  45.139  51.780  1.00  0.00     0.033 A 
HETATM    5  C   UNL     1      25.279  44.742  50.616  1.00  0.00     0.063 A 
HETATM    6  N   UNL     1      26.331  47.161  53.070  1.00  0.00    -0.353 N 
HETATM    7  H   UNL     1      26.084  48.146  53.158  1.00  0.00     0.166 HD
HETATM    8  C   UNL     1      27.139  46.559  53.948  1.00  0.00     0.015 A 
HETATM    9  C   UNL     1      27.668  47.395  55.074  1.00  0.00     0.069 C 
HETATM   10  C   UNL     1      27.445  45.198  53.785  1.00  0.00    -0.005 A 
HETATM   11  C   UNL     1      26.927  44.474  52.675  1.00  0.00    -0.030 A 
HETATM   12  C   UNL     1      27.298  43.009  52.525  1.00  0.00     0.077 C 
HETATM   13  C   UNL     1      28.513  42.576  53.364  1.00  0.00     0.058 C 
HETATM   14  C   UNL     1      29.845  42.999  52.725  1.00  0.00     0.046 C 
HETATM   15  C   UNL     1      28.511  41.048  53.510  1.00  0.00     0.046 C 
HETATM   16  O   UNL     1      28.362  43.099  54.688  1.00  0.00    -0.376 OA
HETATM   17  C   UNL     1      28.374  44.516  54.772  1.00  0.00     0.210 C 
ENDROOT
BRANCH   1  18
HETATM   18  C   UNL     1      23.690  45.708  48.867  1.00  0.00     0.302 C 
HETATM   19  O   UNL     1      23.477  44.686  48.225  1.00  0.00    -0.259 OA
BRANCH  18  20
HETATM   20  O   UNL     1      23.135  46.922  48.586  1.00  0.00    -0.317 OA
BRANCH  20  21
HETATM   21  C   UNL     1      21.711  46.931  48.387  1.00  0.00     0.174 C 
HETATM   22  C   UNL     1      21.126  48.253  48.848  1.00  0.00     0.034 C 
ENDBRANCH  20  21
ENDBRANCH  18  20
ENDBRANCH   1  18
BRANCH   5  23
HETATM   23  N   UNL     1      25.257  43.489  50.114  1.00  0.00    -0.397 N 
HETATM   24  H   UNL     1      24.412  42.954  49.935  1.00  0.00     0.156 HD
HETATM   25  H   UNL     1      26.050  43.125  49.571  1.00  0.00     0.156 HD
ENDBRANCH   5  23
TORSDOF 4
ENDMDL
MODEL 8
REMARK VINA RESULT:      -6.7      1.763      2.218
REMARK  4 active torsions:
REMARK  status: ('A' for Active; 'I' for Inactive)
REMARK    1  A    between atoms: C_2  and  O_3 
REMARK    2  A    between atoms: O_3  and  C_4 
REMARK    3  A    between atoms: C_4  and  C_5 
REMARK    4  A    between atoms: C_9  and  N_10 
ROOT
HETATM    1  C   UNL     1      28.107  44.777  54.014  1.00  0.00     0.109 A 
HETATM    2  S   UNL     1      26.517  45.413  53.956  1.00  0.00    -0.063 SA
HETATM    3  C   UNL     1      26.142  44.514  52.579  1.00  0.00     0.088 A 
HETATM    4  C   UNL     1      27.161  43.698  52.123  1.00  0.00     0.033 A 
HETATM    5  C   UNL     1      28.316  43.884  52.971  1.00  0.00     0.063 A 
HETATM    6  N   UNL     1      24.926  44.605  51.988  1.00  0.00    -0.353 N 
HETATM    7  H   UNL     1      24.249  45.240  52.409  1.00  0.00     0.166 HD
HETATM    8  C   UNL     1      24.636  43.896  50.893  1.00  0.00     0.015 A 
HETATM    9  C   UNL     1      23.270  44.076  50.304  1.00  0.00     0.069 C 
HETATM   10  C   UNL     1      25.606  43.037  50.349  1.00  0.00    -0.005 A 
HETATM   11  C   UNL     1      26.874  42.896  50.978  1.00  0.00    -0.030 A 
HETATM   12  C   UNL     1      27.886  41.942  50.369  1.00  0.00     0.077 C 
HETATM   13  C   UNL     1      27.286  40.935  49.373  1.00  0.00     0.058 C 
HETATM   14  C   UNL     1      26.580  39.767  50.079  1.00  0.00     0.046 C 
HETATM   15  C   UNL     1      28.405  40.363  48.493  1.00  0.00     0.046 C 
HETATM   16  O   UNL     1      26.407  41.638  48.488  1.00  0.00    -0.376 OA
HETATM   17  C   UNL     1      25.274  42.220  49.114  1.00  0.00     0.210 C 
ENDROOT
BRANCH   1  18
HETATM   18  C   UNL     1      29.063  45.184  55.037  1.00  0.00     0.302 C 
HETATM   19  O   UNL     1      29.169  46.326  55.469  1.00  0.00    -0.259 OA
BRANCH  18  20
HETATM   20  O   UNL     1      29.813  44.128  55.466  1.00  0.00    -0.317 OA
BRANCH  20  21
HETATM   21  C   UNL     1      31.016  44.460  56.180  1.00  0.00     0.174 C 
HETATM   22  C   UNL     1      31.489  43.269  56.992  1.00  0.00     0.034 C 
ENDBRANCH  20  21
ENDBRANCH  18  20
ENDBRANCH   1  18
BRANCH   5  23
HETATM   23  N   UNL     1      29.501  43.263  52.790  1.00  0.00    -0.397 N 
HETATM   24  H   UNL     1      30.160  43.481  52.048  1.00  0.00     0.156 HD
HETATM   25  H   UNL     1      29.965  42.776  53.567  1.00  0.00     0.156 HD
ENDBRANCH   5  23
TORSDOF 4
ENDMDL
MODEL 9
REMARK VINA RESULT:      -6.7     12.856     14.029
REMARK  4 active torsions:
REMARK  status: ('A' for Active; 'I' for Inactive)
REMARK    1  A    between atoms: C_2  and  O_3 
REMARK    2  A    between atoms: O_3  and  C_4 
REMARK    3  A    between atoms: C_4  and  C_5 
REMARK    4  A    between atoms: C_9  and  N_10 
ROOT
HETATM    1  C   UNL     1      29.842  51.692  41.193  1.00  0.00     0.109 A 
HETATM    2  S   UNL     1      28.255  52.311  40.999  1.00  0.00    -0.063 SA
HETATM    3  C   UNL     1      27.711  50.870  40.312  1.00  0.00     0.088 A 
HETATM    4  C   UNL     1      28.666  49.874  40.219  1.00  0.00     0.033 A 
HETATM    5  C   UNL     1      29.919  50.387  40.724  1.00  0.00     0.063 A 
HETATM    6  N   UNL     1      26.429  50.730  39.896  1.00  0.00    -0.353 N 
HETATM    7  H   UNL     1      25.810  51.530  40.013  1.00  0.00     0.166 HD
HETATM    8  C   UNL     1      26.004  49.588  39.346  1.00  0.00     0.015 A 
HETATM    9  C   UNL     1      24.574  49.534  38.903  1.00  0.00     0.069 C 
HETATM   10  C   UNL     1      26.899  48.514  39.203  1.00  0.00    -0.005 A 
HETATM   11  C   UNL     1      28.237  48.628  39.672  1.00  0.00    -0.030 A 
HETATM   12  C   UNL     1      29.167  47.437  39.517  1.00  0.00     0.077 C 
HETATM   13  C   UNL     1      28.447  46.107  39.236  1.00  0.00     0.058 C 
HETATM   14  C   UNL     1      27.839  45.492  40.507  1.00  0.00     0.046 C 
HETATM   15  C   UNL     1      29.446  45.104  38.644  1.00  0.00     0.046 C 
HETATM   16  O   UNL     1      27.461  46.327  38.222  1.00  0.00    -0.376 OA
HETATM   17  C   UNL     1      26.415  47.212  38.592  1.00  0.00     0.210 C 
ENDROOT
BRANCH   1  18
HETATM   18  C   UNL     1      30.919  52.496  41.758  1.00  0.00     0.302 C 
HETATM   19  O   UNL     1      31.445  53.445  41.189  1.00  0.00    -0.259 OA
BRANCH  18  20
HETATM   20  O   UNL     1      31.255  52.068  43.009  1.00  0.00    -0.317 OA
BRANCH  20  21
HETATM   21  C   UNL     1      32.634  51.712  43.204  1.00  0.00     0.174 C 
HETATM   22  C   UNL     1      33.034  51.932  44.651  1.00  0.00     0.034 C 
ENDBRANCH  20  21
ENDBRANCH  18  20
ENDBRANCH   1  18
BRANCH   5  23
HETATM   23  N   UNL     1      31.073  49.687  40.748  1.00  0.00    -0.397 N 
HETATM   24  H   UNL     1      31.136  48.676  40.680  1.00  0.00     0.156 HD
HETATM   25  H   UNL     1      31.964  50.133  40.499  1.00  0.00     0.156 HD
ENDBRANCH   5  23
TORSDOF 4
ENDMDL
MODEL 10
REMARK VINA RESULT:      -6.6      3.173      5.458
REMARK  4 active torsions:
REMARK  status: ('A' for Active; 'I' for Inactive)
REMARK    1  A    between atoms: C_2  and  O_3 
REMARK    2  A    between atoms: O_3  and  C_4 
REMARK    3  A    between atoms: C_4  and  C_5 
REMARK    4  A    between atoms: C_9  and  N_10 
ROOT
HETATM    1  C   UNL     1      27.900  43.031  52.734  1.00  0.00     0.109 A 
HETATM    2  S   UNL     1      28.926  41.773  53.286  1.00  0.00    -0.063 SA
HETATM    3  C   UNL     1      28.669  40.867  51.887  1.00  0.00     0.088 A 
HETATM    4  C   UNL     1      27.840  41.461  50.954  1.00  0.00     0.033 A 
HETATM    5  C   UNL     1      27.381  42.725  51.482  1.00  0.00     0.063 A 
HETATM    6  N   UNL     1      29.248  39.653  51.719  1.00  0.00    -0.353 N 
HETATM    7  H   UNL     1      29.842  39.311  52.473  1.00  0.00     0.166 HD
HETATM    8  C   UNL     1      29.036  38.935  50.612  1.00  0.00     0.015 A 
HETATM    9  C   UNL     1      29.708  37.599  50.525  1.00  0.00     0.069 C 
HETATM   10  C   UNL     1      28.205  39.450  49.603  1.00  0.00    -0.005 A 
HETATM   11  C   UNL     1      27.622  40.740  49.742  1.00  0.00    -0.030 A 
HETATM   12  C   UNL     1      26.746  41.268  48.620  1.00  0.00     0.077 C 
HETATM   13  C   UNL     1      26.911  40.521  47.285  1.00  0.00     0.058 C 
HETATM   14  C   UNL     1      28.177  40.952  46.527  1.00  0.00     0.046 C 
HETATM   15  C   UNL     1      25.695  40.800  46.393  1.00  0.00     0.046 C 
HETATM   16  O   UNL     1      26.895  39.113  47.545  1.00  0.00    -0.376 OA
HETATM   17  C   UNL     1      27.974  38.643  48.339  1.00  0.00     0.210 C 
ENDROOT
BRANCH   1  18
HETATM   18  C   UNL     1      27.636  44.219  53.537  1.00  0.00     0.302 C 
HETATM   19  O   UNL     1      27.013  45.197  53.141  1.00  0.00    -0.259 OA
BRANCH  18  20
HETATM   20  O   UNL     1      28.155  44.096  54.793  1.00  0.00    -0.317 OA
BRANCH  20  21
HETATM   21  C   UNL     1      29.119  45.092  55.176  1.00  0.00     0.174 C 
HETATM   22  C   UNL     1      30.345  44.431  55.777  1.00  0.00     0.034 C 
ENDBRANCH  20  21
ENDBRANCH  18  20
ENDBRANCH   1  18
BRANCH   5  23
HETATM   23  N   UNL     1      26.527  43.553  50.843  1.00  0.00    -0.397 N 
HETATM   24  H   UNL     1      26.076  44.357  51.268  1.00  0.00     0.156 HD
HETATM   25  H   UNL     1      26.536  43.629  49.819  1.00  0.00     0.156 HD
ENDBRANCH   5  23
TORSDOF 4
ENDMDL
