MODEL 1
REMARK VINA RESULT:      -9.7      0.000      0.000
REMARK  6 active torsions:
REMARK  status: ('A' for Active; 'I' for Inactive)
REMARK    1  A    between atoms: C_4  and  C_5 
REMARK    2  A    between atoms: C_5  and  O_6 
REMARK    3  A    between atoms: O_6  and  C_7 
REMARK    4  A    between atoms: C_10  and  C_11 
REMARK    5  A    between atoms: C_17  and  C_18 
REMARK    6  A    between atoms: C_27  and  N_28 
ROOT
HETATM    1  C   UNL     1      25.400  47.999  49.439  1.00  0.00     0.072 A 
HETATM    2  N   UNL     1      26.187  48.982  48.872  1.00  0.00    -0.274 N 
HETATM    3  H   UNL     1      27.195  49.073  48.930  1.00  0.00     0.189 HD
HETATM    4  N   UNL     1      25.498  49.921  48.195  1.00  0.00    -0.148 NA
HETATM    5  C   UNL     1      24.244  49.521  48.352  1.00  0.00     0.199 A 
HETATM    6  C   UNL     1      24.105  48.336  49.079  1.00  0.00     0.040 A 
HETATM    7  C   UNL     1      22.756  47.750  49.312  1.00  0.00     0.106 A 
HETATM    8  C   UNL     1      21.662  48.675  48.793  1.00  0.00     0.081 A 
HETATM    9  C   UNL     1      20.319  48.304  49.096  1.00  0.00     0.100 C 
HETATM   10  N   UNL     1      19.229  47.993  49.344  1.00  0.00    -0.191 NA
HETATM   11  C   UNL     1      21.924  49.823  48.114  1.00  0.00     0.140 A 
HETATM   12  O   UNL     1      23.233  50.241  47.836  1.00  0.00    -0.277 OA
ENDROOT
BRANCH   7  13
HETATM   13  C   UNL     1      22.761  46.393  48.621  1.00  0.00    -0.041 A 
HETATM   14  C   UNL     1      23.098  45.244  49.347  1.00  0.00     0.027 A 
HETATM   15  C   UNL     1      23.077  44.013  48.708  1.00  0.00     0.116 A 
HETATM   16  N   UNL     1      22.740  43.846  47.412  1.00  0.00    -0.273 NA
HETATM   17  C   UNL     1      22.412  44.959  46.725  1.00  0.00     0.116 A 
HETATM   18  C   UNL     1      22.405  46.232  47.274  1.00  0.00     0.027 A 
ENDBRANCH   7  13
BRANCH  11  19
HETATM   19  N   UNL     1      20.974  50.695  47.628  1.00  0.00    -0.282 NA
HETATM   20  H   UNL     1      21.046  51.658  47.944  1.00  0.00     0.126 HD
HETATM   21  H   UNL     1      20.032  50.316  47.701  1.00  0.00     0.126 HD
ENDBRANCH  11  19
BRANCH   1  22
HETATM   22  C   UNL     1      25.951  46.903  50.227  1.00  0.00    -0.007 A 
HETATM   23  C   UNL     1      25.703  46.816  51.600  1.00  0.00     0.016 A 
HETATM   24  C   UNL     1      26.216  45.751  52.348  1.00  0.00     0.037 A 
HETATM   25  C   UNL     1      26.986  44.758  51.739  1.00  0.00     0.069 A 
HETATM   26  C   UNL     1      27.257  44.851  50.376  1.00  0.00     0.037 A 
HETATM   27  C   UNL     1      26.738  45.913  49.623  1.00  0.00     0.016 A 
BRANCH  25  28
HETATM   28  O   UNL     1      27.404  43.766  52.580  1.00  0.00    -0.347 OA
BRANCH  28  29
HETATM   29  C   UNL     1      27.166  43.951  53.977  1.00  0.00     0.214 C 
BRANCH  29  30
HETATM   30  C   UNL     1      28.481  44.115  54.706  1.00  0.00    -0.034 A 
HETATM   31  C   UNL     1      29.447  43.098  54.646  1.00  0.00     0.009 A 
HETATM   32  C   UNL     1      30.674  43.245  55.295  1.00  0.00     0.001 A 
HETATM   33  C   UNL     1      30.955  44.412  56.002  1.00  0.00     0.000 A 
HETATM   34  C   UNL     1      30.012  45.436  56.055  1.00  0.00     0.001 A 
HETATM   35  C   UNL     1      28.784  45.292  55.406  1.00  0.00     0.009 A 
ENDBRANCH  29  30
ENDBRANCH  28  29
ENDBRANCH  25  28
ENDBRANCH   1  22
TORSDOF 6
ENDMDL
MODEL 2
REMARK VINA RESULT:      -9.3      3.043      8.222
REMARK  6 active torsions:
REMARK  status: ('A' for Active; 'I' for Inactive)
REMARK    1  A    between atoms: C_4  and  C_5 
REMARK    2  A    between atoms: C_5  and  O_6 
REMARK    3  A    between atoms: O_6  and  C_7 
REMARK    4  A    between atoms: C_10  and  C_11 
REMARK    5  A    between atoms: C_17  and  C_18 
REMARK    6  A    between atoms: C_27  and  N_28 
ROOT
HETATM    1  C   UNL     1      25.994  46.292  51.594  1.00  0.00     0.072 A 
HETATM    2  N   UNL     1      26.096  46.673  52.918  1.00  0.00    -0.274 N 
HETATM    3  H   UNL     1      25.884  47.582  53.315  1.00  0.00     0.189 HD
HETATM    4  N   UNL     1      26.556  45.708  53.739  1.00  0.00    -0.148 NA
HETATM    5  C   UNL     1      26.760  44.700  52.903  1.00  0.00     0.199 A 
HETATM    6  C   UNL     1      26.412  44.971  51.577  1.00  0.00     0.040 A 
HETATM    7  C   UNL     1      26.560  43.921  50.532  1.00  0.00     0.106 A 
HETATM    8  C   UNL     1      27.236  42.677  51.097  1.00  0.00     0.081 A 
HETATM    9  C   UNL     1      27.578  41.659  50.160  1.00  0.00     0.100 C 
HETATM   10  N   UNL     1      27.851  40.833  49.392  1.00  0.00    -0.191 NA
HETATM   11  C   UNL     1      27.548  42.539  52.413  1.00  0.00     0.140 A 
HETATM   12  O   UNL     1      27.264  43.538  53.355  1.00  0.00    -0.277 OA
ENDROOT
BRANCH   7  13
HETATM   13  C   UNL     1      25.156  43.646  50.009  1.00  0.00    -0.041 A 
HETATM   14  C   UNL     1      24.827  43.982  48.690  1.00  0.00     0.027 A 
HETATM   15  C   UNL     1      23.550  43.705  48.224  1.00  0.00     0.116 A 
HETATM   16  N   UNL     1      22.590  43.119  48.968  1.00  0.00    -0.273 NA
HETATM   17  C   UNL     1      22.920  42.796  50.235  1.00  0.00     0.116 A 
HETATM   18  C   UNL     1      24.167  43.032  50.792  1.00  0.00     0.027 A 
ENDBRANCH   7  13
BRANCH  11  19
HETATM   19  N   UNL     1      28.161  41.440  52.973  1.00  0.00    -0.282 NA
HETATM   20  H   UNL     1      29.127  41.565  53.262  1.00  0.00     0.126 HD
HETATM   21  H   UNL     1      28.010  40.595  52.426  1.00  0.00     0.126 HD
ENDBRANCH  11  19
BRANCH   1  22
HETATM   22  C   UNL     1      25.534  47.194  50.546  1.00  0.00    -0.007 A 
HETATM   23  C   UNL     1      24.205  47.169  50.116  1.00  0.00     0.016 A 
HETATM   24  C   UNL     1      23.763  48.051  49.125  1.00  0.00     0.037 A 
HETATM   25  C   UNL     1      24.640  48.969  48.545  1.00  0.00     0.069 A 
HETATM   26  C   UNL     1      25.973  48.984  48.951  1.00  0.00     0.037 A 
HETATM   27  C   UNL     1      26.415  48.106  49.949  1.00  0.00     0.016 A 
BRANCH  25  28
HETATM   28  O   UNL     1      24.073  49.785  47.607  1.00  0.00    -0.347 OA
BRANCH  28  29
HETATM   29  C   UNL     1      23.587  51.053  48.053  1.00  0.00     0.214 C 
BRANCH  29  30
HETATM   30  C   UNL     1      22.157  50.919  48.527  1.00  0.00    -0.034 A 
HETATM   31  C   UNL     1      21.146  50.578  47.615  1.00  0.00     0.009 A 
HETATM   32  C   UNL     1      19.826  50.428  48.041  1.00  0.00     0.001 A 
HETATM   33  C   UNL     1      19.500  50.608  49.384  1.00  0.00     0.000 A 
HETATM   34  C   UNL     1      20.497  50.930  50.303  1.00  0.00     0.001 A 
HETATM   35  C   UNL     1      21.820  51.079  49.879  1.00  0.00     0.009 A 
ENDBRANCH  29  30
ENDBRANCH  28  29
ENDBRANCH  25  28
ENDBRANCH   1  22
TORSDOF 6
ENDMDL
MODEL 3
REMARK VINA RESULT:      -9.1      1.494      1.958
REMARK  6 active torsions:
REMARK  status: ('A' for Active; 'I' for Inactive)
REMARK    1  A    between atoms: C_4  and  C_5 
REMARK    2  A    between atoms: C_5  and  O_6 
REMARK    3  A    between atoms: O_6  and  C_7 
REMARK    4  A    between atoms: C_10  and  C_11 
REMARK    5  A    between atoms: C_17  and  C_18 
REMARK    6  A    between atoms: C_27  and  N_28 
ROOT
HETATM    1  C   UNL     1      23.995  47.386  49.223  1.00  0.00     0.072 A 
HETATM    2  N   UNL     1      24.344  48.632  48.740  1.00  0.00    -0.274 N 
HETATM    3  H   UNL     1      25.198  49.146  48.924  1.00  0.00     0.189 HD
HETATM    4  N   UNL     1      23.406  49.207  47.962  1.00  0.00    -0.148 NA
HETATM    5  C   UNL     1      22.439  48.301  47.967  1.00  0.00     0.199 A 
HETATM    6  C   UNL     1      22.737  47.145  48.695  1.00  0.00     0.040 A 
HETATM    7  C   UNL     1      21.755  46.028  48.766  1.00  0.00     0.106 A 
HETATM    8  C   UNL     1      20.442  46.410  48.094  1.00  0.00     0.081 A 
HETATM    9  C   UNL     1      19.365  45.486  48.232  1.00  0.00     0.100 C 
HETATM   10  N   UNL     1      18.494  44.727  48.345  1.00  0.00    -0.191 NA
HETATM   11  C   UNL     1      20.265  47.584  47.431  1.00  0.00     0.140 A 
HETATM   12  O   UNL     1      21.288  48.534  47.312  1.00  0.00    -0.277 OA
ENDROOT
BRANCH   7  13
HETATM   13  C   UNL     1      22.430  44.831  48.109  1.00  0.00    -0.041 A 
HETATM   14  C   UNL     1      22.709  44.856  46.737  1.00  0.00     0.027 A 
HETATM   15  C   UNL     1      23.343  43.766  46.159  1.00  0.00     0.116 A 
HETATM   16  N   UNL     1      23.720  42.667  46.844  1.00  0.00    -0.273 NA
HETATM   17  C   UNL     1      23.451  42.656  48.166  1.00  0.00     0.116 A 
HETATM   18  C   UNL     1      22.821  43.695  48.834  1.00  0.00     0.027 A 
ENDBRANCH   7  13
BRANCH  11  19
HETATM   19  N   UNL     1      19.099  47.978  46.811  1.00  0.00    -0.282 NA
HETATM   20  H   UNL     1      19.195  48.336  45.864  1.00  0.00     0.126 HD
HETATM   21  H   UNL     1      18.526  48.569  47.410  1.00  0.00     0.126 HD
ENDBRANCH  11  19
BRANCH   1  22
HETATM   22  C   UNL     1      24.863  46.605  50.096  1.00  0.00    -0.007 A 
HETATM   23  C   UNL     1      24.917  46.868  51.468  1.00  0.00     0.016 A 
HETATM   24  C   UNL     1      25.735  46.103  52.305  1.00  0.00     0.037 A 
HETATM   25  C   UNL     1      26.514  45.067  51.788  1.00  0.00     0.069 A 
HETATM   26  C   UNL     1      26.484  44.814  50.418  1.00  0.00     0.037 A 
HETATM   27  C   UNL     1      25.659  45.575  49.578  1.00  0.00     0.016 A 
BRANCH  25  28
HETATM   28  O   UNL     1      27.248  44.386  52.718  1.00  0.00    -0.347 OA
BRANCH  28  29
HETATM   29  C   UNL     1      27.199  44.863  54.064  1.00  0.00     0.214 C 
BRANCH  29  30
HETATM   30  C   UNL     1      28.530  44.625  54.743  1.00  0.00    -0.034 A 
HETATM   31  C   UNL     1      29.297  43.499  54.406  1.00  0.00     0.009 A 
HETATM   32  C   UNL     1      30.537  43.278  55.008  1.00  0.00     0.001 A 
HETATM   33  C   UNL     1      31.030  44.183  55.946  1.00  0.00     0.000 A 
HETATM   34  C   UNL     1      30.286  45.313  56.277  1.00  0.00     0.001 A 
HETATM   35  C   UNL     1      29.045  45.537  55.675  1.00  0.00     0.009 A 
ENDBRANCH  29  30
ENDBRANCH  28  29
ENDBRANCH  25  28
ENDBRANCH   1  22
TORSDOF 6
ENDMDL
MODEL 4
REMARK VINA RESULT:      -8.7     18.836     22.211
REMARK  6 active torsions:
REMARK  status: ('A' for Active; 'I' for Inactive)
REMARK    1  A    between atoms: C_4  and  C_5 
REMARK    2  A    between atoms: C_5  and  O_6 
REMARK    3  A    between atoms: O_6  and  C_7 
REMARK    4  A    between atoms: C_10  and  C_11 
REMARK    5  A    between atoms: C_17  and  C_18 
REMARK    6  A    between atoms: C_27  and  N_28 
ROOT
HETATM    1  C   UNL     1      39.135  40.856  63.359  1.00  0.00     0.072 A 
HETATM    2  N   UNL     1      39.266  40.228  62.136  1.00  0.00    -0.274 N 
HETATM    3  H   UNL     1      38.918  40.548  61.239  1.00  0.00     0.189 HD
HETATM    4  N   UNL     1      39.914  39.048  62.186  1.00  0.00    -0.148 NA
HETATM    5  C   UNL     1      40.185  38.928  63.478  1.00  0.00     0.199 A 
HETATM    6  C   UNL     1      39.764  40.009  64.257  1.00  0.00     0.040 A 
HETATM    7  C   UNL     1      40.026  40.028  65.722  1.00  0.00     0.106 A 
HETATM    8  C   UNL     1      40.638  38.710  66.185  1.00  0.00     0.081 A 
HETATM    9  C   UNL     1      40.790  38.540  67.592  1.00  0.00     0.100 C 
HETATM   10  N   UNL     1      40.915  38.410  68.739  1.00  0.00    -0.191 NA
HETATM   11  C   UNL     1      40.986  37.715  65.327  1.00  0.00     0.140 A 
HETATM   12  O   UNL     1      40.811  37.832  63.941  1.00  0.00    -0.277 OA
ENDROOT
BRANCH   7  13
HETATM   13  C   UNL     1      40.935  41.223  65.974  1.00  0.00    -0.041 A 
HETATM   14  C   UNL     1      42.295  41.143  65.649  1.00  0.00     0.027 A 
HETATM   15  C   UNL     1      43.105  42.249  65.865  1.00  0.00     0.116 A 
HETATM   16  N   UNL     1      42.660  43.417  66.370  1.00  0.00    -0.273 NA
HETATM   17  C   UNL     1      41.348  43.484  66.675  1.00  0.00     0.116 A 
HETATM   18  C   UNL     1      40.459  42.435  66.497  1.00  0.00     0.027 A 
ENDBRANCH   7  13
BRANCH  11  19
HETATM   19  N   UNL     1      41.538  36.507  65.692  1.00  0.00    -0.282 NA
HETATM   20  H   UNL     1      42.540  36.413  65.556  1.00  0.00     0.126 HD
HETATM   21  H   UNL     1      41.005  35.717  65.333  1.00  0.00     0.126 HD
ENDBRANCH  11  19
BRANCH   1  22
HETATM   22  C   UNL     1      38.451  42.134  63.521  1.00  0.00    -0.007 A 
HETATM   23  C   UNL     1      38.888  43.269  62.832  1.00  0.00     0.016 A 
HETATM   24  C   UNL     1      38.215  44.487  62.974  1.00  0.00     0.037 A 
HETATM   25  C   UNL     1      37.100  44.593  63.807  1.00  0.00     0.069 A 
HETATM   26  C   UNL     1      36.674  43.471  64.516  1.00  0.00     0.037 A 
HETATM   27  C   UNL     1      37.342  42.248  64.369  1.00  0.00     0.016 A 
BRANCH  25  28
HETATM   28  O   UNL     1      36.526  45.833  63.837  1.00  0.00    -0.347 OA
BRANCH  28  29
HETATM   29  C   UNL     1      35.959  46.260  65.077  1.00  0.00     0.214 C 
BRANCH  29  30
HETATM   30  C   UNL     1      36.573  47.577  65.496  1.00  0.00    -0.034 A 
HETATM   31  C   UNL     1      36.455  48.012  66.826  1.00  0.00     0.009 A 
HETATM   32  C   UNL     1      37.036  49.214  67.234  1.00  0.00     0.001 A 
HETATM   33  C   UNL     1      37.747  49.991  66.322  1.00  0.00     0.000 A 
HETATM   34  C   UNL     1      37.886  49.563  65.004  1.00  0.00     0.001 A 
HETATM   35  C   UNL     1      37.307  48.359  64.593  1.00  0.00     0.009 A 
ENDBRANCH  29  30
ENDBRANCH  28  29
ENDBRANCH  25  28
ENDBRANCH   1  22
TORSDOF 6
ENDMDL
MODEL 5
REMARK VINA RESULT:      -8.5      1.611      2.218
REMARK  6 active torsions:
REMARK  status: ('A' for Active; 'I' for Inactive)
REMARK    1  A    between atoms: C_4  and  C_5 
REMARK    2  A    between atoms: C_5  and  O_6 
REMARK    3  A    between atoms: O_6  and  C_7 
REMARK    4  A    between atoms: C_10  and  C_11 
REMARK    5  A    between atoms: C_17  and  C_18 
REMARK    6  A    between atoms: C_27  and  N_28 
ROOT
HETATM    1  C   UNL     1      23.955  48.304  49.397  1.00  0.00     0.072 A 
HETATM    2  N   UNL     1      24.868  49.255  48.985  1.00  0.00    -0.274 N 
HETATM    3  H   UNL     1      25.879  49.196  49.026  1.00  0.00     0.189 HD
HETATM    4  N   UNL     1      24.313  50.384  48.503  1.00  0.00    -0.148 NA
HETATM    5  C   UNL     1      23.016  50.138  48.629  1.00  0.00     0.199 A 
HETATM    6  C   UNL     1      22.717  48.874  49.143  1.00  0.00     0.040 A 
HETATM    7  C   UNL     1      21.301  48.447  49.312  1.00  0.00     0.106 A 
HETATM    8  C   UNL     1      20.344  49.590  48.997  1.00  0.00     0.081 A 
HETATM    9  C   UNL     1      18.964  49.358  49.274  1.00  0.00     0.100 C 
HETATM   10  N   UNL     1      17.843  49.161  49.498  1.00  0.00    -0.191 NA
HETATM   11  C   UNL     1      20.760  50.793  48.520  1.00  0.00     0.140 A 
HETATM   12  O   UNL     1      22.113  51.070  48.277  1.00  0.00    -0.277 OA
ENDROOT
BRANCH   7  13
HETATM   13  C   UNL     1      21.110  47.245  48.397  1.00  0.00    -0.041 A 
HETATM   14  C   UNL     1      20.549  46.066  48.904  1.00  0.00     0.027 A 
HETATM   15  C   UNL     1      20.363  44.989  48.051  1.00  0.00     0.116 A 
HETATM   16  N   UNL     1      20.686  45.003  46.741  1.00  0.00    -0.273 NA
HETATM   17  C   UNL     1      21.221  46.145  46.263  1.00  0.00     0.116 A 
HETATM   18  C   UNL     1      21.447  47.274  47.035  1.00  0.00     0.027 A 
ENDBRANCH   7  13
BRANCH  11  19
HETATM   19  N   UNL     1      19.938  51.858  48.223  1.00  0.00    -0.282 NA
HETATM   20  H   UNL     1      18.941  51.665  48.213  1.00  0.00     0.126 HD
HETATM   21  H   UNL     1      20.258  52.375  47.406  1.00  0.00     0.126 HD
ENDBRANCH  11  19
BRANCH   1  22
HETATM   22  C   UNL     1      24.352  47.022  49.965  1.00  0.00    -0.007 A 
HETATM   23  C   UNL     1      24.923  46.951  51.239  1.00  0.00     0.016 A 
HETATM   24  C   UNL     1      25.283  45.717  51.788  1.00  0.00     0.037 A 
HETATM   25  C   UNL     1      25.081  44.533  51.075  1.00  0.00     0.069 A 
HETATM   26  C   UNL     1      24.534  44.598  49.795  1.00  0.00     0.037 A 
HETATM   27  C   UNL     1      24.166  45.834  49.246  1.00  0.00     0.016 A 
BRANCH  25  28
HETATM   28  O   UNL     1      25.456  43.398  51.737  1.00  0.00    -0.347 OA
BRANCH  28  29
HETATM   29  C   UNL     1      26.651  42.751  51.296  1.00  0.00     0.214 C 
BRANCH  29  30
HETATM   30  C   UNL     1      27.739  42.918  52.333  1.00  0.00    -0.034 A 
HETATM   31  C   UNL     1      27.468  43.602  53.529  1.00  0.00     0.009 A 
HETATM   32  C   UNL     1      28.456  43.745  54.505  1.00  0.00     0.001 A 
HETATM   33  C   UNL     1      29.722  43.198  54.304  1.00  0.00     0.000 A 
HETATM   34  C   UNL     1      29.998  42.502  53.129  1.00  0.00     0.001 A 
HETATM   35  C   UNL     1      29.011  42.356  52.151  1.00  0.00     0.009 A 
ENDBRANCH  29  30
ENDBRANCH  28  29
ENDBRANCH  25  28
ENDBRANCH   1  22
TORSDOF 6
ENDMDL
MODEL 6
REMARK VINA RESULT:      -8.5     10.095     12.255
REMARK  6 active torsions:
REMARK  status: ('A' for Active; 'I' for Inactive)
REMARK    1  A    between atoms: C_4  and  C_5 
REMARK    2  A    between atoms: C_5  and  O_6 
REMARK    3  A    between atoms: O_6  and  C_7 
REMARK    4  A    between atoms: C_10  and  C_11 
REMARK    5  A    between atoms: C_17  and  C_18 
REMARK    6  A    between atoms: C_27  and  N_28 
ROOT
HETATM    1  C   UNL     1      26.152  50.109  39.215  1.00  0.00     0.072 A 
HETATM    2  N   UNL     1      25.179  50.447  38.295  1.00  0.00    -0.274 N 
HETATM    3  H   UNL     1      25.079  51.325  37.798  1.00  0.00     0.189 HD
HETATM    4  N   UNL     1      24.262  49.483  38.080  1.00  0.00    -0.148 NA
HETATM    5  C   UNL     1      24.666  48.520  38.897  1.00  0.00     0.199 A 
HETATM    6  C   UNL     1      25.833  48.819  39.606  1.00  0.00     0.040 A 
HETATM    7  C   UNL     1      26.422  47.820  40.540  1.00  0.00     0.106 A 
HETATM    8  C   UNL     1      25.517  46.601  40.678  1.00  0.00     0.081 A 
HETATM    9  C   UNL     1      25.890  45.641  41.665  1.00  0.00     0.100 C 
HETATM   10  N   UNL     1      26.201  44.864  42.467  1.00  0.00    -0.191 NA
HETATM   11  C   UNL     1      24.385  46.434  39.944  1.00  0.00     0.140 A 
HETATM   12  O   UNL     1      23.966  47.376  38.995  1.00  0.00    -0.277 OA
ENDROOT
BRANCH   7  13
HETATM   13  C   UNL     1      27.796  47.478  39.981  1.00  0.00    -0.041 A 
HETATM   14  C   UNL     1      27.905  46.886  38.716  1.00  0.00     0.027 A 
HETATM   15  C   UNL     1      29.166  46.600  38.214  1.00  0.00     0.116 A 
HETATM   16  N   UNL     1      30.313  46.864  38.871  1.00  0.00    -0.273 NA
HETATM   17  C   UNL     1      30.196  47.438  40.086  1.00  0.00     0.116 A 
HETATM   18  C   UNL     1      28.983  47.761  40.674  1.00  0.00     0.027 A 
ENDBRANCH   7  13
BRANCH  11  19
HETATM   19  N   UNL     1      23.533  45.354  40.032  1.00  0.00    -0.282 NA
HETATM   20  H   UNL     1      22.575  45.514  39.733  1.00  0.00     0.126 HD
HETATM   21  H   UNL     1      23.601  44.883  40.932  1.00  0.00     0.126 HD
ENDBRANCH  11  19
BRANCH   1  22
HETATM   22  C   UNL     1      27.224  51.020  39.601  1.00  0.00    -0.007 A 
HETATM   23  C   UNL     1      28.066  51.579  38.636  1.00  0.00     0.016 A 
HETATM   24  C   UNL     1      29.078  52.469  39.008  1.00  0.00     0.037 A 
HETATM   25  C   UNL     1      29.270  52.811  40.347  1.00  0.00     0.069 A 
HETATM   26  C   UNL     1      28.450  52.239  41.318  1.00  0.00     0.037 A 
HETATM   27  C   UNL     1      27.430  51.353  40.946  1.00  0.00     0.016 A 
BRANCH  25  28
HETATM   28  O   UNL     1      30.279  53.706  40.569  1.00  0.00    -0.347 OA
BRANCH  28  29
HETATM   29  C   UNL     1      31.617  53.238  40.390  1.00  0.00     0.214 C 
BRANCH  29  30
HETATM   30  C   UNL     1      31.867  52.043  41.282  1.00  0.00    -0.034 A 
HETATM   31  C   UNL     1      31.815  52.187  42.678  1.00  0.00     0.009 A 
HETATM   32  C   UNL     1      32.021  51.089  43.514  1.00  0.00     0.001 A 
HETATM   33  C   UNL     1      32.274  49.832  42.967  1.00  0.00     0.000 A 
HETATM   34  C   UNL     1      32.312  49.672  41.584  1.00  0.00     0.001 A 
HETATM   35  C   UNL     1      32.104  50.769  40.745  1.00  0.00     0.009 A 
ENDBRANCH  29  30
ENDBRANCH  28  29
ENDBRANCH  25  28
ENDBRANCH   1  22
TORSDOF 6
ENDMDL
MODEL 7
REMARK VINA RESULT:      -8.0      4.936      8.626
REMARK  6 active torsions:
REMARK  status: ('A' for Active; 'I' for Inactive)
REMARK    1  A    between atoms: C_4  and  C_5 
REMARK    2  A    between atoms: C_5  and  O_6 
REMARK    3  A    between atoms: O_6  and  C_7 
REMARK    4  A    between atoms: C_10  and  C_11 
REMARK    5  A    between atoms: C_17  and  C_18 
REMARK    6  A    between atoms: C_27  and  N_28 
ROOT
HETATM    1  C   UNL     1      17.056  48.335  47.017  1.00  0.00     0.072 A 
HETATM    2  N   UNL     1      16.153  47.292  47.071  1.00  0.00    -0.274 N 
HETATM    3  H   UNL     1      16.321  46.348  47.402  1.00  0.00     0.189 HD
HETATM    4  N   UNL     1      14.928  47.594  46.599  1.00  0.00    -0.148 NA
HETATM    5  C   UNL     1      15.072  48.858  46.227  1.00  0.00     0.199 A 
HETATM    6  C   UNL     1      16.340  49.391  46.477  1.00  0.00     0.040 A 
HETATM    7  C   UNL     1      16.640  50.809  46.138  1.00  0.00     0.106 A 
HETATM    8  C   UNL     1      15.471  51.454  45.402  1.00  0.00     0.081 A 
HETATM    9  C   UNL     1      15.692  52.764  44.883  1.00  0.00     0.100 C 
HETATM   10  N   UNL     1      15.878  53.830  44.466  1.00  0.00    -0.191 NA
HETATM   11  C   UNL     1      14.286  50.821  45.199  1.00  0.00     0.140 A 
HETATM   12  O   UNL     1      14.048  49.519  45.658  1.00  0.00    -0.277 OA
ENDROOT
BRANCH   7  13
HETATM   13  C   UNL     1      16.962  51.499  47.457  1.00  0.00    -0.041 A 
HETATM   14  C   UNL     1      15.978  51.601  48.448  1.00  0.00     0.027 A 
HETATM   15  C   UNL     1      16.295  52.214  49.651  1.00  0.00     0.116 A 
HETATM   16  N   UNL     1      17.512  52.721  49.937  1.00  0.00    -0.273 NA
HETATM   17  C   UNL     1      18.453  52.612  48.978  1.00  0.00     0.116 A 
HETATM   18  C   UNL     1      18.234  52.019  47.744  1.00  0.00     0.027 A 
ENDBRANCH   7  13
BRANCH  11  19
HETATM   19  N   UNL     1      13.201  51.357  44.538  1.00  0.00    -0.282 NA
HETATM   20  H   UNL     1      12.337  50.826  44.593  1.00  0.00     0.126 HD
HETATM   21  H   UNL     1      13.435  51.652  43.592  1.00  0.00     0.126 HD
ENDBRANCH  11  19
BRANCH   1  22
HETATM   22  C   UNL     1      18.438  48.207  47.462  1.00  0.00    -0.007 A 
HETATM   23  C   UNL     1      18.800  48.544  48.770  1.00  0.00     0.016 A 
HETATM   24  C   UNL     1      20.123  48.399  49.199  1.00  0.00     0.037 A 
HETATM   25  C   UNL     1      21.106  47.919  48.332  1.00  0.00     0.069 A 
HETATM   26  C   UNL     1      20.758  47.604  47.020  1.00  0.00     0.037 A 
HETATM   27  C   UNL     1      19.431  47.741  46.590  1.00  0.00     0.016 A 
BRANCH  25  28
HETATM   28  O   UNL     1      22.350  47.806  48.887  1.00  0.00    -0.347 OA
BRANCH  28  29
HETATM   29  C   UNL     1      23.004  49.015  49.275  1.00  0.00     0.214 C 
BRANCH  29  30
HETATM   30  C   UNL     1      24.503  48.841  49.186  1.00  0.00    -0.034 A 
HETATM   31  C   UNL     1      25.281  49.797  48.515  1.00  0.00     0.009 A 
HETATM   32  C   UNL     1      26.669  49.662  48.444  1.00  0.00     0.001 A 
HETATM   33  C   UNL     1      27.297  48.576  49.051  1.00  0.00     0.000 A 
HETATM   34  C   UNL     1      26.538  47.628  49.735  1.00  0.00     0.001 A 
HETATM   35  C   UNL     1      25.149  47.763  49.808  1.00  0.00     0.009 A 
ENDBRANCH  29  30
ENDBRANCH  28  29
ENDBRANCH  25  28
ENDBRANCH   1  22
TORSDOF 6
ENDMDL
MODEL 8
REMARK VINA RESULT:      -8.0     18.693     21.228
REMARK  6 active torsions:
REMARK  status: ('A' for Active; 'I' for Inactive)
REMARK    1  A    between atoms: C_4  and  C_5 
REMARK    2  A    between atoms: C_5  and  O_6 
REMARK    3  A    between atoms: O_6  and  C_7 
REMARK    4  A    between atoms: C_10  and  C_11 
REMARK    5  A    between atoms: C_17  and  C_18 
REMARK    6  A    between atoms: C_27  and  N_28 
ROOT
HETATM    1  C   UNL     1      36.312  47.388  66.977  1.00  0.00     0.072 A 
HETATM    2  N   UNL     1      35.355  47.123  67.938  1.00  0.00    -0.274 N 
HETATM    3  H   UNL     1      34.795  46.284  68.034  1.00  0.00     0.189 HD
HETATM    4  N   UNL     1      35.155  48.129  68.812  1.00  0.00    -0.148 NA
HETATM    5  C   UNL     1      36.001  49.053  68.379  1.00  0.00     0.199 A 
HETATM    6  C   UNL     1      36.765  48.663  67.276  1.00  0.00     0.040 A 
HETATM    7  C   UNL     1      37.779  49.587  66.699  1.00  0.00     0.106 A 
HETATM    8  C   UNL     1      37.720  50.953  67.373  1.00  0.00     0.081 A 
HETATM    9  C   UNL     1      38.532  51.978  66.804  1.00  0.00     0.100 C 
HETATM   10  N   UNL     1      39.198  52.806  66.337  1.00  0.00    -0.191 NA
HETATM   11  C   UNL     1      36.911  51.220  68.432  1.00  0.00     0.140 A 
HETATM   12  O   UNL     1      36.069  50.249  68.990  1.00  0.00    -0.277 OA
ENDROOT
BRANCH   7  13
HETATM   13  C   UNL     1      39.126  48.899  66.873  1.00  0.00    -0.041 A 
HETATM   14  C   UNL     1      39.863  48.515  65.745  1.00  0.00     0.027 A 
HETATM   15  C   UNL     1      41.097  47.909  65.922  1.00  0.00     0.116 A 
HETATM   16  N   UNL     1      41.648  47.665  67.129  1.00  0.00    -0.273 NA
HETATM   17  C   UNL     1      40.932  48.043  68.208  1.00  0.00     0.116 A 
HETATM   18  C   UNL     1      39.690  48.654  68.135  1.00  0.00     0.027 A 
ENDBRANCH   7  13
BRANCH  11  19
HETATM   19  N   UNL     1      36.818  52.436  69.074  1.00  0.00    -0.282 NA
HETATM   20  H   UNL     1      36.050  52.537  69.732  1.00  0.00     0.126 HD
HETATM   21  H   UNL     1      36.902  53.219  68.428  1.00  0.00     0.126 HD
ENDBRANCH  11  19
BRANCH   1  22
HETATM   22  C   UNL     1      36.664  46.436  65.930  1.00  0.00    -0.007 A 
HETATM   23  C   UNL     1      37.080  45.142  66.253  1.00  0.00     0.016 A 
HETATM   24  C   UNL     1      37.396  44.226  65.244  1.00  0.00     0.037 A 
HETATM   25  C   UNL     1      37.304  44.587  63.899  1.00  0.00     0.069 A 
HETATM   26  C   UNL     1      36.913  45.884  63.570  1.00  0.00     0.037 A 
HETATM   27  C   UNL     1      36.589  46.800  64.579  1.00  0.00     0.016 A 
BRANCH  25  28
HETATM   28  O   UNL     1      37.619  43.591  63.018  1.00  0.00    -0.347 OA
BRANCH  28  29
HETATM   29  C   UNL     1      39.003  43.403  62.715  1.00  0.00     0.214 C 
BRANCH  29  30
HETATM   30  C   UNL     1      39.457  42.045  63.202  1.00  0.00    -0.034 A 
HETATM   31  C   UNL     1      39.075  40.887  62.507  1.00  0.00     0.009 A 
HETATM   32  C   UNL     1      39.505  39.629  62.931  1.00  0.00     0.001 A 
HETATM   33  C   UNL     1      40.328  39.512  64.050  1.00  0.00     0.000 A 
HETATM   34  C   UNL     1      40.728  40.654  64.739  1.00  0.00     0.001 A 
HETATM   35  C   UNL     1      40.300  41.915  64.315  1.00  0.00     0.009 A 
ENDBRANCH  29  30
ENDBRANCH  28  29
ENDBRANCH  25  28
ENDBRANCH   1  22
TORSDOF 6
ENDMDL
MODEL 9
REMARK VINA RESULT:      -7.9      7.118     11.986
REMARK  6 active torsions:
REMARK  status: ('A' for Active; 'I' for Inactive)
REMARK    1  A    between atoms: C_4  and  C_5 
REMARK    2  A    between atoms: C_5  and  O_6 
REMARK    3  A    between atoms: O_6  and  C_7 
REMARK    4  A    between atoms: C_10  and  C_11 
REMARK    5  A    between atoms: C_17  and  C_18 
REMARK    6  A    between atoms: C_27  and  N_28 
ROOT
HETATM    1  C   UNL     1      17.498  51.760  48.059  1.00  0.00     0.072 A 
HETATM    2  N   UNL     1      16.937  52.125  49.267  1.00  0.00    -0.274 N 
HETATM    3  H   UNL     1      16.005  52.489  49.429  1.00  0.00     0.189 HD
HETATM    4  N   UNL     1      17.763  51.991  50.324  1.00  0.00    -0.148 NA
HETATM    5  C   UNL     1      18.875  51.542  49.759  1.00  0.00     0.199 A 
HETATM    6  C   UNL     1      18.781  51.348  48.379  1.00  0.00     0.040 A 
HETATM    7  C   UNL     1      19.944  50.818  47.613  1.00  0.00     0.106 A 
HETATM    8  C   UNL     1      21.173  50.690  48.506  1.00  0.00     0.081 A 
HETATM    9  C   UNL     1      22.395  50.344  47.858  1.00  0.00     0.100 C 
HETATM   10  N   UNL     1      23.385  50.058  47.324  1.00  0.00    -0.191 NA
HETATM   11  C   UNL     1      21.144  50.931  49.843  1.00  0.00     0.140 A 
HETATM   12  O   UNL     1      19.970  51.314  50.506  1.00  0.00    -0.277 OA
ENDROOT
BRANCH   7  13
HETATM   13  C   UNL     1      19.494  49.486  47.030  1.00  0.00    -0.041 A 
HETATM   14  C   UNL     1      19.028  49.425  45.711  1.00  0.00     0.027 A 
HETATM   15  C   UNL     1      18.642  48.199  45.189  1.00  0.00     0.116 A 
HETATM   16  N   UNL     1      18.692  47.041  45.878  1.00  0.00    -0.273 NA
HETATM   17  C   UNL     1      19.146  47.111  47.146  1.00  0.00     0.116 A 
HETATM   18  C   UNL     1      19.554  48.286  47.757  1.00  0.00     0.027 A 
ENDBRANCH   7  13
BRANCH  11  19
HETATM   19  N   UNL     1      22.225  50.833  50.692  1.00  0.00    -0.282 NA
HETATM   20  H   UNL     1      23.142  50.903  50.259  1.00  0.00     0.126 HD
HETATM   21  H   UNL     1      22.140  50.048  51.334  1.00  0.00     0.126 HD
ENDBRANCH  11  19
BRANCH   1  22
HETATM   22  C   UNL     1      16.776  51.847  46.795  1.00  0.00    -0.007 A 
HETATM   23  C   UNL     1      17.145  52.784  45.826  1.00  0.00     0.016 A 
HETATM   24  C   UNL     1      16.464  52.849  44.607  1.00  0.00     0.037 A 
HETATM   25  C   UNL     1      15.402  51.984  44.336  1.00  0.00     0.069 A 
HETATM   26  C   UNL     1      15.012  51.064  45.307  1.00  0.00     0.037 A 
HETATM   27  C   UNL     1      15.699  50.992  46.527  1.00  0.00     0.016 A 
BRANCH  25  28
HETATM   28  O   UNL     1      14.840  52.140  43.100  1.00  0.00    -0.347 OA
BRANCH  28  29
HETATM   29  C   UNL     1      15.171  51.169  42.106  1.00  0.00     0.214 C 
BRANCH  29  30
HETATM   30  C   UNL     1      16.656  51.210  41.821  1.00  0.00    -0.034 A 
HETATM   31  C   UNL     1      17.213  52.322  41.170  1.00  0.00     0.009 A 
HETATM   32  C   UNL     1      18.585  52.385  40.920  1.00  0.00     0.001 A 
HETATM   33  C   UNL     1      19.418  51.343  41.325  1.00  0.00     0.000 A 
HETATM   34  C   UNL     1      18.879  50.241  41.986  1.00  0.00     0.001 A 
HETATM   35  C   UNL     1      17.507  50.177  42.239  1.00  0.00     0.009 A 
ENDBRANCH  29  30
ENDBRANCH  28  29
ENDBRANCH  25  28
ENDBRANCH   1  22
TORSDOF 6
ENDMDL
MODEL 10
REMARK VINA RESULT:      -7.7      1.773      2.869
REMARK  6 active torsions:
REMARK  status: ('A' for Active; 'I' for Inactive)
REMARK    1  A    between atoms: C_4  and  C_5 
REMARK    2  A    between atoms: C_5  and  O_6 
REMARK    3  A    between atoms: O_6  and  C_7 
REMARK    4  A    between atoms: C_10  and  C_11 
REMARK    5  A    between atoms: C_17  and  C_18 
REMARK    6  A    between atoms: C_27  and  N_28 
ROOT
HETATM    1  C   UNL     1      22.766  48.562  48.683  1.00  0.00     0.072 A 
HETATM    2  N   UNL     1      22.822  49.917  48.422  1.00  0.00    -0.274 N 
HETATM    3  H   UNL     1      23.607  50.541  48.573  1.00  0.00     0.189 HD
HETATM    4  N   UNL     1      21.678  50.436  47.936  1.00  0.00    -0.148 NA
HETATM    5  C   UNL     1      20.879  49.378  47.904  1.00  0.00     0.199 A 
HETATM    6  C   UNL     1      21.482  48.188  48.320  1.00  0.00     0.040 A 
HETATM    7  C   UNL     1      20.715  46.913  48.309  1.00  0.00     0.106 A 
HETATM    8  C   UNL     1      19.255  47.156  47.945  1.00  0.00     0.081 A 
HETATM    9  C   UNL     1      18.377  46.037  48.054  1.00  0.00     0.100 C 
HETATM   10  N   UNL     1      17.671  45.121  48.142  1.00  0.00    -0.191 NA
HETATM   11  C   UNL     1      18.778  48.374  47.576  1.00  0.00     0.140 A 
HETATM   12  O   UNL     1      19.603  49.505  47.499  1.00  0.00    -0.277 OA
ENDROOT
BRANCH   7  13
HETATM   13  C   UNL     1      21.427  45.999  47.322  1.00  0.00    -0.041 A 
HETATM   14  C   UNL     1      22.071  44.843  47.782  1.00  0.00     0.027 A 
HETATM   15  C   UNL     1      22.697  44.012  46.865  1.00  0.00     0.116 A 
HETATM   16  N   UNL     1      22.723  44.243  45.537  1.00  0.00    -0.273 NA
HETATM   17  C   UNL     1      22.096  45.356  45.105  1.00  0.00     0.116 A 
HETATM   18  C   UNL     1      21.444  46.249  45.941  1.00  0.00     0.027 A 
ENDBRANCH   7  13
BRANCH  11  19
HETATM   19  N   UNL     1      17.470  48.648  47.241  1.00  0.00    -0.282 NA
HETATM   20  H   UNL     1      16.905  49.086  47.963  1.00  0.00     0.126 HD
HETATM   21  H   UNL     1      17.013  47.854  46.796  1.00  0.00     0.126 HD
ENDBRANCH  11  19
BRANCH   1  22
HETATM   22  C   UNL     1      23.893  47.815  49.229  1.00  0.00    -0.007 A 
HETATM   23  C   UNL     1      23.710  46.537  49.763  1.00  0.00     0.016 A 
HETATM   24  C   UNL     1      24.797  45.816  50.266  1.00  0.00     0.037 A 
HETATM   25  C   UNL     1      26.083  46.359  50.247  1.00  0.00     0.069 A 
HETATM   26  C   UNL     1      26.270  47.643  49.739  1.00  0.00     0.037 A 
HETATM   27  C   UNL     1      25.182  48.364  49.228  1.00  0.00     0.016 A 
BRANCH  25  28
HETATM   28  O   UNL     1      27.055  45.540  50.748  1.00  0.00    -0.347 OA
BRANCH  28  29
HETATM   29  C   UNL     1      26.630  44.439  51.554  1.00  0.00     0.214 C 
BRANCH  29  30
HETATM   30  C   UNL     1      27.729  44.052  52.518  1.00  0.00    -0.034 A 
HETATM   31  C   UNL     1      27.785  44.642  53.790  1.00  0.00     0.009 A 
HETATM   32  C   UNL     1      28.780  44.279  54.699  1.00  0.00     0.001 A 
HETATM   33  C   UNL     1      29.725  43.315  54.353  1.00  0.00     0.000 A 
HETATM   34  C   UNL     1      29.671  42.709  53.099  1.00  0.00     0.001 A 
HETATM   35  C   UNL     1      28.675  43.071  52.188  1.00  0.00     0.009 A 
ENDBRANCH  29  30
ENDBRANCH  28  29
ENDBRANCH  25  28
ENDBRANCH   1  22
TORSDOF 6
ENDMDL
