MODEL 1
REMARK VINA RESULT:     -10.9      0.000      0.000
REMARK  5 active torsions:
REMARK  status: ('A' for Active; 'I' for Inactive)
REMARK    1  A    between atoms: O_2  and  C_3 
REMARK    2  A    between atoms: C_6  and  N_7 
REMARK    3  A    between atoms: C_11  and  C_12 
REMARK    4  A    between atoms: C_12  and  N_13 
REMARK       I    between atoms: N_13  and  C_14 
REMARK    5  A    between atoms: C_14  and  C_15 
ROOT
HETATM    1  N   UNL     1      28.146  42.755  52.860  1.00  0.00    -0.360 N 
HETATM    2  C   UNL     1      27.863  43.440  54.027  1.00  0.00     0.230 C 
HETATM    3  O   UNL     1      27.009  43.058  54.826  1.00  0.00    -0.272 OA
HETATM    4  H   UNL     1      28.761  43.196  52.184  1.00  0.00     0.162 HD
ENDROOT
BRANCH   1   5
HETATM    5  C   UNL     1      27.410  41.570  52.464  1.00  0.00     0.129 C 
BRANCH   5   6
HETATM    6  C   UNL     1      27.090  41.546  50.961  1.00  0.00     0.031 C 
HETATM    7  C   UNL     1      25.615  41.254  50.718  1.00  0.00     0.111 C 
HETATM    8  C   UNL     1      24.976  42.621  50.689  1.00  0.00     0.224 C 
HETATM    9  N   UNL     1      25.988  43.561  50.443  1.00  0.00    -0.318 N 
HETATM   10  O   UNL     1      23.773  42.787  50.814  1.00  0.00    -0.273 OA
HETATM   11  C   UNL     1      27.273  42.908  50.309  1.00  0.00     0.139 C 
BRANCH   9  12
HETATM   12  C   UNL     1      25.810  44.955  50.219  1.00  0.00     0.037 A 
HETATM   13  C   UNL     1      24.574  45.585  50.414  1.00  0.00     0.032 A 
HETATM   14  C   UNL     1      24.408  46.963  50.198  1.00  0.00     0.039 A 
HETATM   15  C   UNL     1      25.480  47.743  49.782  1.00  0.00     0.068 A 
HETATM   16  C   UNL     1      26.713  47.130  49.573  1.00  0.00     0.039 A 
HETATM   17  C   UNL     1      26.878  45.756  49.789  1.00  0.00     0.032 A 
BRANCH  15  18
HETATM   18  O   UNL     1      25.456  49.088  49.543  1.00  0.00    -0.356 OA
HETATM   19  C   UNL     1      26.234  49.557  48.447  1.00  0.00     0.210 C 
ENDBRANCH  15  18
ENDBRANCH   9  12
ENDBRANCH   5   6
ENDBRANCH   1   5
BRANCH   2  20
HETATM   20  C   UNL     1      28.674  44.723  54.264  1.00  0.00     0.149 C 
HETATM   21  C   UNL     1      29.632  44.550  55.420  1.00  0.00    -0.007 A 
HETATM   22  C   UNL     1      29.493  45.330  56.570  1.00  0.00     0.083 A 
HETATM   23  C   UNL     1      30.666  43.601  55.358  1.00  0.00     0.011 A 
HETATM   24  C   UNL     1      30.365  45.160  57.648  1.00  0.00     0.038 A 
HETATM   25  O   UNL     1      28.520  46.285  56.726  1.00  0.00    -0.310 OA
HETATM   26  C   UNL     1      31.388  44.213  57.581  1.00  0.00     0.003 A 
HETATM   27  C   UNL     1      31.538  43.435  56.434  1.00  0.00     0.001 A 
HETATM   28  C   UNL     1      27.749  46.622  55.640  1.00  0.00     0.083 A 
HETATM   29  C   UNL     1      27.778  45.930  54.428  1.00  0.00    -0.007 A 
HETATM   30  C   UNL     1      26.902  47.720  55.806  1.00  0.00     0.038 A 
HETATM   31  C   UNL     1      26.954  46.360  53.375  1.00  0.00     0.011 A 
HETATM   32  C   UNL     1      26.111  47.459  53.542  1.00  0.00     0.001 A 
HETATM   33  C   UNL     1      26.083  48.138  54.759  1.00  0.00     0.003 A 
ENDBRANCH   2  20
TORSDOF 5
ENDMDL
MODEL 2
REMARK VINA RESULT:      -9.5      1.249      3.546
REMARK  5 active torsions:
REMARK  status: ('A' for Active; 'I' for Inactive)
REMARK    1  A    between atoms: O_2  and  C_3 
REMARK    2  A    between atoms: C_6  and  N_7 
REMARK    3  A    between atoms: C_11  and  C_12 
REMARK    4  A    between atoms: C_12  and  N_13 
REMARK       I    between atoms: N_13  and  C_14 
REMARK    5  A    between atoms: C_14  and  C_15 
ROOT
HETATM    1  N   UNL     1      27.804  42.725  52.281  1.00  0.00    -0.360 N 
HETATM    2  C   UNL     1      28.743  43.442  52.998  1.00  0.00     0.230 C 
HETATM    3  O   UNL     1      29.872  43.671  52.562  1.00  0.00    -0.272 OA
HETATM    4  H   UNL     1      26.946  42.457  52.753  1.00  0.00     0.162 HD
ENDROOT
BRANCH   1   5
HETATM    5  C   UNL     1      28.103  42.136  50.991  1.00  0.00     0.129 C 
BRANCH   5   6
HETATM    6  C   UNL     1      26.862  42.011  50.094  1.00  0.00     0.031 C 
HETATM    7  C   UNL     1      25.598  41.831  50.924  1.00  0.00     0.111 C 
HETATM    8  C   UNL     1      25.114  43.242  51.157  1.00  0.00     0.224 C 
HETATM    9  N   UNL     1      25.713  44.065  50.191  1.00  0.00    -0.318 N 
HETATM   10  O   UNL     1      24.303  43.523  52.025  1.00  0.00    -0.273 OA
HETATM   11  C   UNL     1      26.575  43.292  49.322  1.00  0.00     0.139 C 
BRANCH   9  12
HETATM   12  C   UNL     1      25.443  45.445  49.973  1.00  0.00     0.037 A 
HETATM   13  C   UNL     1      26.460  46.408  49.978  1.00  0.00     0.032 A 
HETATM   14  C   UNL     1      26.187  47.768  49.754  1.00  0.00     0.039 A 
HETATM   15  C   UNL     1      24.884  48.193  49.517  1.00  0.00     0.068 A 
HETATM   16  C   UNL     1      23.861  47.249  49.519  1.00  0.00     0.039 A 
HETATM   17  C   UNL     1      24.135  45.893  49.742  1.00  0.00     0.032 A 
BRANCH  15  18
HETATM   18  O   UNL     1      24.484  49.478  49.280  1.00  0.00    -0.356 OA
HETATM   19  C   UNL     1      23.130  49.663  48.886  1.00  0.00     0.210 C 
ENDBRANCH  15  18
ENDBRANCH   9  12
ENDBRANCH   5   6
ENDBRANCH   1   5
BRANCH   2  20
HETATM   20  C   UNL     1      28.299  43.931  54.385  1.00  0.00     0.149 C 
HETATM   21  C   UNL     1      27.553  45.241  54.281  1.00  0.00    -0.007 A 
HETATM   22  C   UNL     1      28.070  46.393  54.878  1.00  0.00     0.083 A 
HETATM   23  C   UNL     1      26.338  45.320  53.581  1.00  0.00     0.011 A 
HETATM   24  C   UNL     1      27.392  47.609  54.769  1.00  0.00     0.038 A 
HETATM   25  O   UNL     1      29.245  46.418  55.587  1.00  0.00    -0.310 OA
HETATM   26  C   UNL     1      26.188  47.681  54.069  1.00  0.00     0.003 A 
HETATM   27  C   UNL     1      25.661  46.535  53.476  1.00  0.00     0.001 A 
HETATM   28  C   UNL     1      29.862  45.226  55.880  1.00  0.00     0.083 A 
HETATM   29  C   UNL     1      29.459  43.997  55.353  1.00  0.00    -0.007 A 
HETATM   30  C   UNL     1      30.950  45.297  56.752  1.00  0.00     0.038 A 
HETATM   31  C   UNL     1      30.154  42.834  55.721  1.00  0.00     0.011 A 
HETATM   32  C   UNL     1      31.239  42.907  56.596  1.00  0.00     0.001 A 
HETATM   33  C   UNL     1      31.639  44.138  57.110  1.00  0.00     0.003 A 
ENDBRANCH   2  20
TORSDOF 5
ENDMDL
MODEL 3
REMARK VINA RESULT:      -9.4      2.906      5.953
REMARK  5 active torsions:
REMARK  status: ('A' for Active; 'I' for Inactive)
REMARK    1  A    between atoms: O_2  and  C_3 
REMARK    2  A    between atoms: C_6  and  N_7 
REMARK    3  A    between atoms: C_11  and  C_12 
REMARK    4  A    between atoms: C_12  and  N_13 
REMARK       I    between atoms: N_13  and  C_14 
REMARK    5  A    between atoms: C_14  and  C_15 
ROOT
HETATM    1  N   UNL     1      26.700  45.010  50.326  1.00  0.00    -0.360 N 
HETATM    2  C   UNL     1      25.666  44.344  50.958  1.00  0.00     0.230 C 
HETATM    3  O   UNL     1      24.485  44.646  50.787  1.00  0.00    -0.272 OA
HETATM    4  H   UNL     1      27.650  44.802  50.615  1.00  0.00     0.162 HD
ENDROOT
BRANCH   1   5
HETATM    5  C   UNL     1      26.469  46.153  49.466  1.00  0.00     0.129 C 
BRANCH   5   6
HETATM    6  C   UNL     1      26.436  47.481  50.239  1.00  0.00     0.031 C 
HETATM    7  C   UNL     1      27.152  48.584  49.470  1.00  0.00     0.111 C 
HETATM    8  C   UNL     1      26.062  49.206  48.632  1.00  0.00     0.224 C 
HETATM    9  N   UNL     1      24.829  48.859  49.205  1.00  0.00    -0.318 N 
HETATM   10  O   UNL     1      26.300  49.919  47.669  1.00  0.00    -0.273 OA
HETATM   11  C   UNL     1      25.024  48.034  50.379  1.00  0.00     0.139 C 
BRANCH   9  12
HETATM   12  C   UNL     1      23.548  49.331  48.804  1.00  0.00     0.037 A 
HETATM   13  C   UNL     1      22.628  48.507  48.144  1.00  0.00     0.032 A 
HETATM   14  C   UNL     1      21.363  48.978  47.758  1.00  0.00     0.039 A 
HETATM   15  C   UNL     1      20.989  50.290  48.028  1.00  0.00     0.068 A 
HETATM   16  C   UNL     1      21.896  51.125  48.675  1.00  0.00     0.039 A 
HETATM   17  C   UNL     1      23.158  50.653  49.059  1.00  0.00     0.032 A 
BRANCH  15  18
HETATM   18  O   UNL     1      19.792  50.870  47.714  1.00  0.00    -0.356 OA
HETATM   19  C   UNL     1      19.476  52.084  48.384  1.00  0.00     0.210 C 
ENDBRANCH  15  18
ENDBRANCH   9  12
ENDBRANCH   5   6
ENDBRANCH   1   5
BRANCH   2  20
HETATM   20  C   UNL     1      26.081  43.205  51.902  1.00  0.00     0.149 C 
HETATM   21  C   UNL     1      27.094  43.685  52.915  1.00  0.00    -0.007 A 
HETATM   22  C   UNL     1      28.383  43.147  52.929  1.00  0.00     0.083 A 
HETATM   23  C   UNL     1      26.758  44.680  53.848  1.00  0.00     0.011 A 
HETATM   24  C   UNL     1      29.327  43.602  53.853  1.00  0.00     0.038 A 
HETATM   25  O   UNL     1      28.806  42.170  52.064  1.00  0.00    -0.310 OA
HETATM   26  C   UNL     1      28.987  44.592  54.774  1.00  0.00     0.003 A 
HETATM   27  C   UNL     1      27.702  45.130  54.772  1.00  0.00     0.001 A 
HETATM   28  C   UNL     1      27.878  41.559  51.256  1.00  0.00     0.083 A 
HETATM   29  C   UNL     1      26.556  41.990  51.137  1.00  0.00    -0.007 A 
HETATM   30  C   UNL     1      28.329  40.455  50.530  1.00  0.00     0.038 A 
HETATM   31  C   UNL     1      25.683  41.291  50.287  1.00  0.00     0.011 A 
HETATM   32  C   UNL     1      26.134  40.185  49.565  1.00  0.00     0.001 A 
HETATM   33  C   UNL     1      27.459  39.768  49.684  1.00  0.00     0.003 A 
ENDBRANCH   2  20
TORSDOF 5
ENDMDL
MODEL 4
REMARK VINA RESULT:      -9.4      2.707      7.908
REMARK  5 active torsions:
REMARK  status: ('A' for Active; 'I' for Inactive)
REMARK    1  A    between atoms: O_2  and  C_3 
REMARK    2  A    between atoms: C_6  and  N_7 
REMARK    3  A    between atoms: C_11  and  C_12 
REMARK    4  A    between atoms: C_12  and  N_13 
REMARK       I    between atoms: N_13  and  C_14 
REMARK    5  A    between atoms: C_14  and  C_15 
ROOT
HETATM    1  N   UNL     1      23.114  45.666  49.373  1.00  0.00    -0.360 N 
HETATM    2  C   UNL     1      22.972  46.845  48.666  1.00  0.00     0.230 C 
HETATM    3  O   UNL     1      22.626  46.869  47.485  1.00  0.00    -0.272 OA
HETATM    4  H   UNL     1      23.532  45.710  50.298  1.00  0.00     0.162 HD
ENDROOT
BRANCH   1   5
HETATM    5  C   UNL     1      22.929  44.369  48.755  1.00  0.00     0.129 C 
BRANCH   5   6
HETATM    6  C   UNL     1      23.559  43.227  49.568  1.00  0.00     0.031 C 
HETATM    7  C   UNL     1      24.926  42.847  49.015  1.00  0.00     0.111 C 
HETATM    8  C   UNL     1      25.883  43.731  49.778  1.00  0.00     0.224 C 
HETATM    9  N   UNL     1      25.226  44.174  50.936  1.00  0.00    -0.318 N 
HETATM   10  O   UNL     1      27.029  43.931  49.408  1.00  0.00    -0.273 OA
HETATM   11  C   UNL     1      23.880  43.644  50.996  1.00  0.00     0.139 C 
BRANCH   9  12
HETATM   12  C   UNL     1      25.800  44.931  51.995  1.00  0.00     0.037 A 
HETATM   13  C   UNL     1      25.328  46.205  52.336  1.00  0.00     0.032 A 
HETATM   14  C   UNL     1      25.895  46.943  53.388  1.00  0.00     0.039 A 
HETATM   15  C   UNL     1      26.951  46.419  54.125  1.00  0.00     0.068 A 
HETATM   16  C   UNL     1      27.439  45.157  53.792  1.00  0.00     0.039 A 
HETATM   17  C   UNL     1      26.872  44.423  52.743  1.00  0.00     0.032 A 
BRANCH  15  18
HETATM   18  O   UNL     1      27.585  47.026  55.172  1.00  0.00    -0.356 OA
HETATM   19  C   UNL     1      28.864  46.513  55.528  1.00  0.00     0.210 C 
ENDBRANCH  15  18
ENDBRANCH   9  12
ENDBRANCH   5   6
ENDBRANCH   1   5
BRANCH   2  20
HETATM   20  C   UNL     1      23.283  48.134  49.443  1.00  0.00     0.149 C 
HETATM   21  C   UNL     1      22.255  49.202  49.151  1.00  0.00    -0.007 A 
HETATM   22  C   UNL     1      22.635  50.390  48.522  1.00  0.00     0.083 A 
HETATM   23  C   UNL     1      20.908  49.014  49.499  1.00  0.00     0.011 A 
HETATM   24  C   UNL     1      21.685  51.371  48.234  1.00  0.00     0.038 A 
HETATM   25  O   UNL     1      23.926  50.671  48.147  1.00  0.00    -0.310 OA
HETATM   26  C   UNL     1      20.348  51.176  48.579  1.00  0.00     0.003 A 
HETATM   27  C   UNL     1      19.960  49.997  49.213  1.00  0.00     0.001 A 
HETATM   28  C   UNL     1      24.929  49.829  48.561  1.00  0.00     0.083 A 
HETATM   29  C   UNL     1      24.699  48.607  49.197  1.00  0.00    -0.007 A 
HETATM   30  C   UNL     1      26.233  50.257  48.306  1.00  0.00     0.038 A 
HETATM   31  C   UNL     1      25.796  47.822  49.587  1.00  0.00     0.011 A 
HETATM   32  C   UNL     1      27.098  48.253  49.335  1.00  0.00     0.001 A 
HETATM   33  C   UNL     1      27.318  49.470  48.692  1.00  0.00     0.003 A 
ENDBRANCH   2  20
TORSDOF 5
ENDMDL
MODEL 5
REMARK VINA RESULT:      -9.2      2.190      6.697
REMARK  5 active torsions:
REMARK  status: ('A' for Active; 'I' for Inactive)
REMARK    1  A    between atoms: O_2  and  C_3 
REMARK    2  A    between atoms: C_6  and  N_7 
REMARK    3  A    between atoms: C_11  and  C_12 
REMARK    4  A    between atoms: C_12  and  N_13 
REMARK       I    between atoms: N_13  and  C_14 
REMARK    5  A    between atoms: C_14  and  C_15 
ROOT
HETATM    1  N   UNL     1      24.389  42.942  49.178  1.00  0.00    -0.360 N 
HETATM    2  C   UNL     1      25.023  44.100  49.586  1.00  0.00     0.230 C 
HETATM    3  O   UNL     1      26.181  44.366  49.264  1.00  0.00    -0.272 OA
HETATM    4  H   UNL     1      23.487  42.720  49.589  1.00  0.00     0.162 HD
ENDROOT
BRANCH   1   5
HETATM    5  C   UNL     1      25.064  41.927  48.394  1.00  0.00     0.129 C 
BRANCH   5   6
HETATM    6  C   UNL     1      25.366  40.656  49.203  1.00  0.00     0.031 C 
HETATM    7  C   UNL     1      26.610  39.951  48.675  1.00  0.00     0.111 C 
HETATM    8  C   UNL     1      27.736  40.559  49.475  1.00  0.00     0.224 C 
HETATM    9  N   UNL     1      27.180  41.141  50.625  1.00  0.00    -0.318 N 
HETATM   10  O   UNL     1      28.906  40.470  49.136  1.00  0.00    -0.273 OA
HETATM   11  C   UNL     1      25.743  40.964  50.645  1.00  0.00     0.139 C 
BRANCH   9  12
HETATM   12  C   UNL     1      27.896  41.719  51.710  1.00  0.00     0.037 A 
HETATM   13  C   UNL     1      28.012  41.074  52.949  1.00  0.00     0.032 A 
HETATM   14  C   UNL     1      28.728  41.648  54.012  1.00  0.00     0.039 A 
HETATM   15  C   UNL     1      29.346  42.885  53.858  1.00  0.00     0.068 A 
HETATM   16  C   UNL     1      29.230  43.543  52.636  1.00  0.00     0.039 A 
HETATM   17  C   UNL     1      28.517  42.969  51.576  1.00  0.00     0.032 A 
BRANCH  15  18
HETATM   18  O   UNL     1      30.073  43.548  54.805  1.00  0.00    -0.356 OA
HETATM   19  C   UNL     1      29.506  44.745  55.324  1.00  0.00     0.210 C 
ENDBRANCH  15  18
ENDBRANCH   9  12
ENDBRANCH   5   6
ENDBRANCH   1   5
BRANCH   2  20
HETATM   20  C   UNL     1      24.198  45.037  50.481  1.00  0.00     0.149 C 
HETATM   21  C   UNL     1      23.731  46.248  49.708  1.00  0.00    -0.007 A 
HETATM   22  C   UNL     1      24.167  47.525  50.071  1.00  0.00     0.083 A 
HETATM   23  C   UNL     1      22.861  46.109  48.614  1.00  0.00     0.011 A 
HETATM   24  C   UNL     1      23.751  48.644  49.347  1.00  0.00     0.038 A 
HETATM   25  O   UNL     1      25.012  47.767  51.125  1.00  0.00    -0.310 OA
HETATM   26  C   UNL     1      22.890  48.498  48.260  1.00  0.00     0.003 A 
HETATM   27  C   UNL     1      22.444  47.229  47.895  1.00  0.00     0.001 A 
HETATM   28  C   UNL     1      25.311  46.733  51.979  1.00  0.00     0.083 A 
HETATM   29  C   UNL     1      24.945  45.406  51.743  1.00  0.00    -0.007 A 
HETATM   30  C   UNL     1      26.025  47.075  53.129  1.00  0.00     0.038 A 
HETATM   31  C   UNL     1      25.294  44.424  52.684  1.00  0.00     0.011 A 
HETATM   32  C   UNL     1      26.005  44.768  53.834  1.00  0.00     0.001 A 
HETATM   33  C   UNL     1      26.373  46.093  54.056  1.00  0.00     0.003 A 
ENDBRANCH   2  20
TORSDOF 5
ENDMDL
MODEL 6
REMARK VINA RESULT:      -8.9      4.261      9.553
REMARK  5 active torsions:
REMARK  status: ('A' for Active; 'I' for Inactive)
REMARK    1  A    between atoms: O_2  and  C_3 
REMARK    2  A    between atoms: C_6  and  N_7 
REMARK    3  A    between atoms: C_11  and  C_12 
REMARK    4  A    between atoms: C_12  and  N_13 
REMARK       I    between atoms: N_13  and  C_14 
REMARK    5  A    between atoms: C_14  and  C_15 
ROOT
HETATM    1  N   UNL     1      22.593  47.247  49.067  1.00  0.00    -0.360 N 
HETATM    2  C   UNL     1      22.449  48.238  48.114  1.00  0.00     0.230 C 
HETATM    3  O   UNL     1      23.394  48.929  47.733  1.00  0.00    -0.272 OA
HETATM    4  H   UNL     1      21.753  46.810  49.433  1.00  0.00     0.162 HD
ENDROOT
BRANCH   1   5
HETATM    5  C   UNL     1      23.855  46.996  49.734  1.00  0.00     0.129 C 
BRANCH   5   6
HETATM    6  C   UNL     1      24.100  45.502  49.999  1.00  0.00     0.031 C 
HETATM    7  C   UNL     1      25.316  45.000  49.231  1.00  0.00     0.111 C 
HETATM    8  C   UNL     1      26.462  45.213  50.189  1.00  0.00     0.224 C 
HETATM    9  N   UNL     1      25.924  45.339  51.479  1.00  0.00    -0.318 N 
HETATM   10  O   UNL     1      27.629  45.212  49.828  1.00  0.00    -0.273 OA
HETATM   11  C   UNL     1      24.481  45.227  51.446  1.00  0.00     0.139 C 
BRANCH   9  12
HETATM   12  C   UNL     1      26.659  45.434  52.695  1.00  0.00     0.037 A 
HETATM   13  C   UNL     1      27.424  44.368  53.184  1.00  0.00     0.032 A 
HETATM   14  C   UNL     1      28.152  44.472  54.380  1.00  0.00     0.039 A 
HETATM   15  C   UNL     1      28.130  45.652  55.115  1.00  0.00     0.068 A 
HETATM   16  C   UNL     1      27.366  46.719  54.647  1.00  0.00     0.039 A 
HETATM   17  C   UNL     1      26.641  46.613  53.454  1.00  0.00     0.032 A 
BRANCH  15  18
HETATM   18  O   UNL     1      28.795  45.887  56.286  1.00  0.00    -0.356 OA
HETATM   19  C   UNL     1      30.205  45.704  56.267  1.00  0.00     0.210 C 
ENDBRANCH  15  18
ENDBRANCH   9  12
ENDBRANCH   5   6
ENDBRANCH   1   5
BRANCH   2  20
HETATM   20  C   UNL     1      21.030  48.434  47.560  1.00  0.00     0.149 C 
HETATM   21  C   UNL     1      20.252  49.416  48.405  1.00  0.00    -0.007 A 
HETATM   22  C   UNL     1      19.109  49.001  49.092  1.00  0.00     0.083 A 
HETATM   23  C   UNL     1      20.669  50.752  48.518  1.00  0.00     0.011 A 
HETATM   24  C   UNL     1      18.398  49.901  49.889  1.00  0.00     0.038 A 
HETATM   25  O   UNL     1      18.618  47.720  49.043  1.00  0.00    -0.310 OA
HETATM   26  C   UNL     1      18.820  51.226  49.998  1.00  0.00     0.003 A 
HETATM   27  C   UNL     1      19.956  51.651  49.311  1.00  0.00     0.001 A 
HETATM   28  C   UNL     1      19.165  46.839  48.142  1.00  0.00     0.083 A 
HETATM   29  C   UNL     1      20.309  47.116  47.389  1.00  0.00    -0.007 A 
HETATM   30  C   UNL     1      18.512  45.612  48.009  1.00  0.00     0.038 A 
HETATM   31  C   UNL     1      20.785  46.149  46.489  1.00  0.00     0.011 A 
HETATM   32  C   UNL     1      20.128  44.925  46.355  1.00  0.00     0.001 A 
HETATM   33  C   UNL     1      18.993  44.655  47.117  1.00  0.00     0.003 A 
ENDBRANCH   2  20
TORSDOF 5
ENDMDL
MODEL 7
REMARK VINA RESULT:      -8.9      3.574      5.799
REMARK  5 active torsions:
REMARK  status: ('A' for Active; 'I' for Inactive)
REMARK    1  A    between atoms: O_2  and  C_3 
REMARK    2  A    between atoms: C_6  and  N_7 
REMARK    3  A    between atoms: C_11  and  C_12 
REMARK    4  A    between atoms: C_12  and  N_13 
REMARK       I    between atoms: N_13  and  C_14 
REMARK    5  A    between atoms: C_14  and  C_15 
ROOT
HETATM    1  N   UNL     1      28.293  42.280  52.345  1.00  0.00    -0.360 N 
HETATM    2  C   UNL     1      27.997  42.937  53.524  1.00  0.00     0.230 C 
HETATM    3  O   UNL     1      27.263  42.451  54.384  1.00  0.00    -0.272 OA
HETATM    4  H   UNL     1      28.792  42.793  51.624  1.00  0.00     0.162 HD
ENDROOT
BRANCH   1   5
HETATM    5  C   UNL     1      27.707  40.999  52.008  1.00  0.00     0.129 C 
BRANCH   5   6
HETATM    6  C   UNL     1      26.519  41.125  51.041  1.00  0.00     0.031 C 
HETATM    7  C   UNL     1      26.837  42.082  49.900  1.00  0.00     0.111 C 
HETATM    8  C   UNL     1      27.428  41.191  48.835  1.00  0.00     0.224 C 
HETATM    9  N   UNL     1      27.040  39.872  49.117  1.00  0.00    -0.318 N 
HETATM   10  O   UNL     1      28.076  41.629  47.897  1.00  0.00    -0.273 OA
HETATM   11  C   UNL     1      26.226  39.821  50.312  1.00  0.00     0.139 C 
BRANCH   9  12
HETATM   12  C   UNL     1      27.279  38.730  48.302  1.00  0.00     0.037 A 
HETATM   13  C   UNL     1      26.287  37.770  48.063  1.00  0.00     0.032 A 
HETATM   14  C   UNL     1      26.528  36.649  47.252  1.00  0.00     0.039 A 
HETATM   15  C   UNL     1      27.772  36.464  46.659  1.00  0.00     0.068 A 
HETATM   16  C   UNL     1      28.772  37.405  46.896  1.00  0.00     0.039 A 
HETATM   17  C   UNL     1      28.530  38.522  47.705  1.00  0.00     0.032 A 
BRANCH  15  18
HETATM   18  O   UNL     1      28.135  35.427  45.848  1.00  0.00    -0.356 OA
HETATM   19  C   UNL     1      27.380  34.227  45.970  1.00  0.00     0.210 C 
ENDBRANCH  15  18
ENDBRANCH   9  12
ENDBRANCH   5   6
ENDBRANCH   1   5
BRANCH   2  20
HETATM   20  C   UNL     1      28.634  44.324  53.697  1.00  0.00     0.149 C 
HETATM   21  C   UNL     1      29.471  44.382  54.954  1.00  0.00    -0.007 A 
HETATM   22  C   UNL     1      29.122  45.250  55.991  1.00  0.00     0.083 A 
HETATM   23  C   UNL     1      30.602  43.562  55.101  1.00  0.00     0.011 A 
HETATM   24  C   UNL     1      29.882  45.292  57.162  1.00  0.00     0.038 A 
HETATM   25  O   UNL     1      28.040  46.094  55.943  1.00  0.00    -0.310 OA
HETATM   26  C   UNL     1      31.002  44.473  57.301  1.00  0.00     0.003 A 
HETATM   27  C   UNL     1      31.362  43.609  56.269  1.00  0.00     0.001 A 
HETATM   28  C   UNL     1      27.362  46.227  54.755  1.00  0.00     0.083 A 
HETATM   29  C   UNL     1      27.600  45.426  53.636  1.00  0.00    -0.007 A 
HETATM   30  C   UNL     1      26.388  47.227  54.714  1.00  0.00     0.038 A 
HETATM   31  C   UNL     1      26.856  45.649  52.466  1.00  0.00     0.011 A 
HETATM   32  C   UNL     1      25.886  46.651  52.426  1.00  0.00     0.001 A 
HETATM   33  C   UNL     1      25.650  47.439  53.551  1.00  0.00     0.003 A 
ENDBRANCH   2  20
TORSDOF 5
ENDMDL
MODEL 8
REMARK VINA RESULT:      -8.8     12.524     15.231
REMARK  5 active torsions:
REMARK  status: ('A' for Active; 'I' for Inactive)
REMARK    1  A    between atoms: O_2  and  C_3 
REMARK    2  A    between atoms: C_6  and  N_7 
REMARK    3  A    between atoms: C_11  and  C_12 
REMARK    4  A    between atoms: C_12  and  N_13 
REMARK       I    between atoms: N_13  and  C_14 
REMARK    5  A    between atoms: C_14  and  C_15 
ROOT
HETATM    1  N   UNL     1      28.717  48.179  40.226  1.00  0.00    -0.360 N 
HETATM    2  C   UNL     1      28.196  49.090  41.126  1.00  0.00     0.230 C 
HETATM    3  O   UNL     1      28.503  49.088  42.319  1.00  0.00    -0.272 OA
HETATM    4  H   UNL     1      28.320  48.150  39.292  1.00  0.00     0.162 HD
ENDROOT
BRANCH   1   5
HETATM    5  C   UNL     1      29.611  47.115  40.636  1.00  0.00     0.129 C 
BRANCH   5   6
HETATM    6  C   UNL     1      30.981  47.191  39.943  1.00  0.00     0.031 C 
HETATM    7  C   UNL     1      30.981  48.240  38.839  1.00  0.00     0.111 C 
HETATM    8  C   UNL     1      31.422  49.502  39.539  1.00  0.00     0.224 C 
HETATM    9  N   UNL     1      32.061  49.130  40.731  1.00  0.00    -0.318 N 
HETATM   10  O   UNL     1      31.257  50.612  39.058  1.00  0.00    -0.273 OA
HETATM   11  C   UNL     1      32.074  47.690  40.878  1.00  0.00     0.139 C 
BRANCH   9  12
HETATM   12  C   UNL     1      32.733  49.998  41.637  1.00  0.00     0.037 A 
HETATM   13  C   UNL     1      32.102  50.511  42.777  1.00  0.00     0.032 A 
HETATM   14  C   UNL     1      32.773  51.362  43.670  1.00  0.00     0.039 A 
HETATM   15  C   UNL     1      34.098  51.718  43.440  1.00  0.00     0.068 A 
HETATM   16  C   UNL     1      34.736  51.225  42.305  1.00  0.00     0.039 A 
HETATM   17  C   UNL     1      34.065  50.376  41.416  1.00  0.00     0.032 A 
BRANCH  15  18
HETATM   18  O   UNL     1      34.865  52.528  44.229  1.00  0.00    -0.356 OA
HETATM   19  C   UNL     1      36.268  52.503  43.996  1.00  0.00     0.210 C 
ENDBRANCH  15  18
ENDBRANCH   9  12
ENDBRANCH   5   6
ENDBRANCH   1   5
BRANCH   2  20
HETATM   20  C   UNL     1      27.198  50.106  40.551  1.00  0.00     0.149 C 
HETATM   21  C   UNL     1      26.294  49.455  39.530  1.00  0.00    -0.007 A 
HETATM   22  C   UNL     1      26.324  49.873  38.197  1.00  0.00     0.083 A 
HETATM   23  C   UNL     1      25.419  48.422  39.903  1.00  0.00     0.011 A 
HETATM   24  C   UNL     1      25.503  49.261  37.248  1.00  0.00     0.038 A 
HETATM   25  O   UNL     1      27.138  50.876  37.735  1.00  0.00    -0.310 OA
HETATM   26  C   UNL     1      24.639  48.233  37.625  1.00  0.00     0.003 A 
HETATM   27  C   UNL     1      24.597  47.814  38.953  1.00  0.00     0.001 A 
HETATM   28  C   UNL     1      27.834  51.632  38.647  1.00  0.00     0.083 A 
HETATM   29  C   UNL     1      27.898  51.333  40.009  1.00  0.00    -0.007 A 
HETATM   30  C   UNL     1      28.502  52.747  38.137  1.00  0.00     0.038 A 
HETATM   31  C   UNL     1      28.632  52.174  40.860  1.00  0.00     0.011 A 
HETATM   32  C   UNL     1      29.296  53.290  40.349  1.00  0.00     0.001 A 
HETATM   33  C   UNL     1      29.233  53.576  38.987  1.00  0.00     0.003 A 
ENDBRANCH   2  20
TORSDOF 5
ENDMDL
MODEL 9
REMARK VINA RESULT:      -8.8      2.766      4.505
REMARK  5 active torsions:
REMARK  status: ('A' for Active; 'I' for Inactive)
REMARK    1  A    between atoms: O_2  and  C_3 
REMARK    2  A    between atoms: C_6  and  N_7 
REMARK    3  A    between atoms: C_11  and  C_12 
REMARK    4  A    between atoms: C_12  and  N_13 
REMARK       I    between atoms: N_13  and  C_14 
REMARK    5  A    between atoms: C_14  and  C_15 
ROOT
HETATM    1  N   UNL     1      26.231  46.048  53.204  1.00  0.00    -0.360 N 
HETATM    2  C   UNL     1      27.265  46.162  54.114  1.00  0.00     0.230 C 
HETATM    3  O   UNL     1      27.854  47.224  54.314  1.00  0.00    -0.272 OA
HETATM    4  H   UNL     1      25.883  45.119  52.990  1.00  0.00     0.162 HD
ENDROOT
BRANCH   1   5
HETATM    5  C   UNL     1      25.809  47.157  52.373  1.00  0.00     0.129 C 
BRANCH   5   6
HETATM    6  C   UNL     1      26.216  46.985  50.901  1.00  0.00     0.031 C 
HETATM    7  C   UNL     1      25.615  45.716  50.310  1.00  0.00     0.111 C 
HETATM    8  C   UNL     1      24.292  46.173  49.745  1.00  0.00     0.224 C 
HETATM    9  N   UNL     1      24.353  47.565  49.583  1.00  0.00    -0.318 N 
HETATM   10  O   UNL     1      23.396  45.394  49.458  1.00  0.00    -0.273 OA
HETATM   11  C   UNL     1      25.638  48.075  50.010  1.00  0.00     0.139 C 
BRANCH   9  12
HETATM   12  C   UNL     1      23.367  48.388  48.970  1.00  0.00     0.037 A 
HETATM   13  C   UNL     1      23.708  49.525  48.227  1.00  0.00     0.032 A 
HETATM   14  C   UNL     1      22.729  50.328  47.618  1.00  0.00     0.039 A 
HETATM   15  C   UNL     1      21.382  50.008  47.741  1.00  0.00     0.068 A 
HETATM   16  C   UNL     1      21.025  48.886  48.486  1.00  0.00     0.039 A 
HETATM   17  C   UNL     1      22.002  48.086  49.091  1.00  0.00     0.032 A 
BRANCH  15  18
HETATM   18  O   UNL     1      20.335  50.697  47.197  1.00  0.00    -0.356 OA
HETATM   19  C   UNL     1      19.308  49.923  46.588  1.00  0.00     0.210 C 
ENDBRANCH  15  18
ENDBRANCH   9  12
ENDBRANCH   5   6
ENDBRANCH   1   5
BRANCH   2  20
HETATM   20  C   UNL     1      27.647  44.874  54.860  1.00  0.00     0.149 C 
HETATM   21  C   UNL     1      28.698  45.149  55.910  1.00  0.00    -0.007 A 
HETATM   22  C   UNL     1      29.962  44.564  55.809  1.00  0.00     0.083 A 
HETATM   23  C   UNL     1      28.423  45.999  56.994  1.00  0.00     0.011 A 
HETATM   24  C   UNL     1      30.942  44.831  56.768  1.00  0.00     0.038 A 
HETATM   25  O   UNL     1      30.328  43.718  54.792  1.00  0.00    -0.310 OA
HETATM   26  C   UNL     1      30.662  45.679  57.840  1.00  0.00     0.003 A 
HETATM   27  C   UNL     1      29.401  46.261  57.953  1.00  0.00     0.001 A 
HETATM   28  C   UNL     1      29.360  43.278  53.922  1.00  0.00     0.083 A 
HETATM   29  C   UNL     1      28.055  43.775  53.904  1.00  0.00    -0.007 A 
HETATM   30  C   UNL     1      29.749  42.283  53.023  1.00  0.00     0.038 A 
HETATM   31  C   UNL     1      27.137  43.252  52.978  1.00  0.00     0.011 A 
HETATM   32  C   UNL     1      27.528  42.255  52.083  1.00  0.00     0.001 A 
HETATM   33  C   UNL     1      28.835  41.772  52.103  1.00  0.00     0.003 A 
ENDBRANCH   2  20
TORSDOF 5
ENDMDL
MODEL 10
REMARK VINA RESULT:      -8.7      4.692      9.926
REMARK  5 active torsions:
REMARK  status: ('A' for Active; 'I' for Inactive)
REMARK    1  A    between atoms: O_2  and  C_3 
REMARK    2  A    between atoms: C_6  and  N_7 
REMARK    3  A    between atoms: C_11  and  C_12 
REMARK    4  A    between atoms: C_12  and  N_13 
REMARK       I    between atoms: N_13  and  C_14 
REMARK    5  A    between atoms: C_14  and  C_15 
ROOT
HETATM    1  N   UNL     1      22.341  46.863  49.167  1.00  0.00    -0.360 N 
HETATM    2  C   UNL     1      21.869  47.787  48.254  1.00  0.00     0.230 C 
HETATM    3  O   UNL     1      22.618  48.427  47.516  1.00  0.00    -0.272 OA
HETATM    4  H   UNL     1      21.684  46.472  49.835  1.00  0.00     0.162 HD
ENDROOT
BRANCH   1   5
HETATM    5  C   UNL     1      23.757  46.629  49.366  1.00  0.00     0.129 C 
BRANCH   5   6
HETATM    6  C   UNL     1      24.063  45.199  49.840  1.00  0.00     0.031 C 
HETATM    7  C   UNL     1      25.329  44.662  49.186  1.00  0.00     0.111 C 
HETATM    8  C   UNL     1      26.427  45.063  50.142  1.00  0.00     0.224 C 
HETATM    9  N   UNL     1      25.835  45.333  51.385  1.00  0.00    -0.318 N 
HETATM   10  O   UNL     1      27.605  45.074  49.822  1.00  0.00    -0.273 OA
HETATM   11  C   UNL     1      24.401  45.142  51.322  1.00  0.00     0.139 C 
BRANCH   9  12
HETATM   12  C   UNL     1      26.516  45.630  52.599  1.00  0.00     0.037 A 
HETATM   13  C   UNL     1      26.440  46.892  53.202  1.00  0.00     0.032 A 
HETATM   14  C   UNL     1      27.109  47.175  54.404  1.00  0.00     0.039 A 
HETATM   15  C   UNL     1      27.872  46.196  55.031  1.00  0.00     0.068 A 
HETATM   16  C   UNL     1      27.965  44.939  54.439  1.00  0.00     0.039 A 
HETATM   17  C   UNL     1      27.297  44.658  53.240  1.00  0.00     0.032 A 
BRANCH  15  18
HETATM   18  O   UNL     1      28.564  46.337  56.200  1.00  0.00    -0.356 OA
HETATM   19  C   UNL     1      29.870  45.774  56.241  1.00  0.00     0.210 C 
ENDBRANCH  15  18
ENDBRANCH   9  12
ENDBRANCH   5   6
ENDBRANCH   1   5
BRANCH   2  20
HETATM   20  C   UNL     1      20.345  47.978  48.220  1.00  0.00     0.149 C 
HETATM   21  C   UNL     1      19.755  47.393  46.958  1.00  0.00    -0.007 A 
HETATM   22  C   UNL     1      19.117  48.221  46.032  1.00  0.00     0.083 A 
HETATM   23  C   UNL     1      19.845  46.016  46.696  1.00  0.00     0.011 A 
HETATM   24  C   UNL     1      18.587  47.686  44.855  1.00  0.00     0.038 A 
HETATM   25  O   UNL     1      18.973  49.576  46.198  1.00  0.00    -0.310 OA
HETATM   26  C   UNL     1      18.683  46.318  44.600  1.00  0.00     0.003 A 
HETATM   27  C   UNL     1      19.312  45.483  45.522  1.00  0.00     0.001 A 
HETATM   28  C   UNL     1      19.312  50.130  47.408  1.00  0.00     0.083 A 
HETATM   29  C   UNL     1      19.958  49.425  48.426  1.00  0.00    -0.007 A 
HETATM   30  C   UNL     1      18.979  51.474  47.582  1.00  0.00     0.038 A 
HETATM   31  C   UNL     1      20.255  50.083  49.631  1.00  0.00     0.011 A 
HETATM   32  C   UNL     1      19.917  51.426  49.804  1.00  0.00     0.001 A 
HETATM   33  C   UNL     1      19.281  52.123  48.779  1.00  0.00     0.003 A 
ENDBRANCH   2  20
TORSDOF 5
ENDMDL
