MODEL 1
REMARK VINA RESULT:     -12.5      0.000      0.000
REMARK  7 active torsions:
REMARK  status: ('A' for Active; 'I' for Inactive)
REMARK    1  A    between atoms: C_2  and  C_3 
REMARK    2  A    between atoms: N_16  and  C_17 
REMARK    3  A    between atoms: C_17  and  C_18 
REMARK       I    between atoms: C_18  and  N_19 
REMARK    4  A    between atoms: N_19  and  C_20 
REMARK    5  A    between atoms: C_21  and  C_22 
REMARK       I    between atoms: C_22  and  N_23 
REMARK    6  A    between atoms: N_23  and  C_24 
REMARK    7  A    between atoms: C_24  and  C_25 
ROOT
HETATM    1  C   UNL     1      24.479  44.302  50.727  1.00  0.00     0.240 C 
ENDROOT
BRANCH   1   2
HETATM    2  N   UNL     1      25.746  44.134  51.414  1.00  0.00    -0.259 N 
HETATM    3  C   UNL     1      26.942  44.008  50.783  1.00  0.00     0.326 A 
HETATM    4  N   UNL     1      27.920  43.810  51.725  1.00  0.00    -0.321 N 
HETATM    5  O   UNL     1      27.154  44.102  49.588  1.00  0.00    -0.247 OA
HETATM    6  C   UNL     1      27.391  43.664  53.061  1.00  0.00     0.140 A 
HETATM    7  H   UNL     1      28.883  43.642  51.464  1.00  0.00     0.165 HD
HETATM    8  C   UNL     1      27.570  42.182  53.442  1.00  0.00     0.055 C 
HETATM    9  C   UNL     1      25.891  43.921  52.758  1.00  0.00     0.261 A 
HETATM   10  O   UNL     1      24.979  43.887  53.573  1.00  0.00    -0.270 OA
BRANCH   6  11
HETATM   11  C   UNL     1      27.923  44.658  54.110  1.00  0.00    -0.010 A 
HETATM   12  C   UNL     1      29.055  44.461  54.986  1.00  0.00    -0.017 A 
HETATM   13  C   UNL     1      29.385  45.501  55.907  1.00  0.00    -0.025 A 
HETATM   14  C   UNL     1      29.913  43.327  55.033  1.00  0.00     0.013 A 
HETATM   15  C   UNL     1      30.462  45.372  56.801  1.00  0.00     0.012 A 
HETATM   16  C   UNL     1      28.654  46.691  55.942  1.00  0.00     0.012 A 
HETATM   17  C   UNL     1      31.257  44.235  56.816  1.00  0.00     0.001 A 
HETATM   18  C   UNL     1      30.985  43.211  55.927  1.00  0.00     0.001 A 
HETATM   19  C   UNL     1      27.601  46.902  55.070  1.00  0.00     0.002 A 
HETATM   20  C   UNL     1      27.251  45.907  54.166  1.00  0.00     0.011 A 
ENDBRANCH   6  11
ENDBRANCH   1   2
BRANCH   1  21
HETATM   21  C   UNL     1      24.458  45.481  49.748  1.00  0.00     0.240 C 
HETATM   22  N   UNL     1      24.560  46.738  50.330  1.00  0.00    -0.325 N 
HETATM   23  H   UNL     1      25.046  46.715  51.218  1.00  0.00     0.169 HD
HETATM   24  O   UNL     1      24.290  45.291  48.542  1.00  0.00    -0.271 OA
BRANCH  22  25
HETATM   25  C   UNL     1      24.851  47.875  49.537  1.00  0.00     0.050 A 
HETATM   26  C   UNL     1      23.902  48.690  48.895  1.00  0.00     0.058 A 
HETATM   27  C   UNL     1      24.344  49.805  48.155  1.00  0.00     0.019 A 
HETATM   28  C   UNL     1      25.701  50.107  48.048  1.00  0.00     0.001 A 
HETATM   29  C   UNL     1      26.635  49.319  48.707  1.00  0.00     0.002 A 
HETATM   30  C   UNL     1      26.212  48.220  49.457  1.00  0.00     0.030 A 
BRANCH  26  31
HETATM   31  C   UNL     1      22.426  48.614  49.065  1.00  0.00     0.254 C 
HETATM   32  N   UNL     1      21.785  49.708  49.583  1.00  0.00    -0.351 N 
HETATM   33  H   UNL     1      22.355  50.482  49.919  1.00  0.00     0.163 HD
HETATM   34  O   UNL     1      21.855  47.553  48.826  1.00  0.00    -0.268 OA
BRANCH  32  35
HETATM   35  C   UNL     1      20.411  49.605  50.018  1.00  0.00     0.187 C 
BRANCH  35  36
HETATM   36  C   UNL     1      19.612  50.768  49.558  1.00  0.00     0.070 A 
HETATM   37  O   UNL     1      18.479  51.033  50.275  1.00  0.00    -0.325 OA
HETATM   38  C   UNL     1      17.911  52.141  49.734  1.00  0.00     0.142 A 
HETATM   39  C   UNL     1      18.660  52.598  48.677  1.00  0.00     0.027 A 
HETATM   40  C   UNL     1      19.763  51.717  48.567  1.00  0.00     0.036 A 
ENDBRANCH  35  36
ENDBRANCH  32  35
ENDBRANCH  26  31
ENDBRANCH  22  25
ENDBRANCH   1  21
TORSDOF 7
ENDMDL
MODEL 2
REMARK VINA RESULT:     -11.2      1.390      2.485
REMARK  7 active torsions:
REMARK  status: ('A' for Active; 'I' for Inactive)
REMARK    1  A    between atoms: C_2  and  C_3 
REMARK    2  A    between atoms: N_16  and  C_17 
REMARK    3  A    between atoms: C_17  and  C_18 
REMARK       I    between atoms: C_18  and  N_19 
REMARK    4  A    between atoms: N_19  and  C_20 
REMARK    5  A    between atoms: C_21  and  C_22 
REMARK       I    between atoms: C_22  and  N_23 
REMARK    6  A    between atoms: N_23  and  C_24 
REMARK    7  A    between atoms: C_24  and  C_25 
ROOT
HETATM    1  C   UNL     1      24.931  44.411  51.661  1.00  0.00     0.240 C 
ENDROOT
BRANCH   1   2
HETATM    2  N   UNL     1      25.754  44.755  52.806  1.00  0.00    -0.259 N 
HETATM    3  C   UNL     1      25.279  44.887  54.071  1.00  0.00     0.326 A 
HETATM    4  N   UNL     1      26.308  45.272  54.892  1.00  0.00    -0.321 N 
HETATM    5  O   UNL     1      24.147  44.658  54.457  1.00  0.00    -0.247 OA
HETATM    6  C   UNL     1      27.529  45.546  54.170  1.00  0.00     0.140 A 
HETATM    7  H   UNL     1      26.159  45.476  55.872  1.00  0.00     0.165 HD
HETATM    8  C   UNL     1      27.727  47.074  54.212  1.00  0.00     0.055 C 
HETATM    9  C   UNL     1      27.064  45.145  52.745  1.00  0.00     0.261 A 
HETATM   10  O   UNL     1      27.737  45.215  51.726  1.00  0.00    -0.270 OA
BRANCH   6  11
HETATM   11  C   UNL     1      28.764  44.733  54.600  1.00  0.00    -0.010 A 
HETATM   12  C   UNL     1      29.513  44.890  55.826  1.00  0.00    -0.017 A 
HETATM   13  C   UNL     1      30.645  44.046  56.038  1.00  0.00    -0.025 A 
HETATM   14  C   UNL     1      29.243  45.802  56.883  1.00  0.00     0.013 A 
HETATM   15  C   UNL     1      31.432  44.152  57.197  1.00  0.00     0.012 A 
HETATM   16  C   UNL     1      31.003  43.073  55.101  1.00  0.00     0.012 A 
HETATM   17  C   UNL     1      31.132  45.073  58.192  1.00  0.00     0.001 A 
HETATM   18  C   UNL     1      30.032  45.898  58.037  1.00  0.00     0.001 A 
HETATM   19  C   UNL     1      30.258  42.888  53.950  1.00  0.00     0.002 A 
HETATM   20  C   UNL     1      29.155  43.697  53.713  1.00  0.00     0.011 A 
ENDBRANCH   6  11
ENDBRANCH   1   2
BRANCH   1  21
HETATM   21  C   UNL     1      25.038  45.406  50.501  1.00  0.00     0.240 C 
HETATM   22  N   UNL     1      24.891  46.743  50.849  1.00  0.00    -0.325 N 
HETATM   23  H   UNL     1      25.155  46.923  51.809  1.00  0.00     0.169 HD
HETATM   24  O   UNL     1      25.176  45.006  49.344  1.00  0.00    -0.271 OA
BRANCH  22  25
HETATM   25  C   UNL     1      25.261  47.767  49.942  1.00  0.00     0.050 A 
HETATM   26  C   UNL     1      24.382  48.470  49.099  1.00  0.00     0.058 A 
HETATM   27  C   UNL     1      24.896  49.481  48.263  1.00  0.00     0.019 A 
HETATM   28  C   UNL     1      26.255  49.789  48.257  1.00  0.00     0.001 A 
HETATM   29  C   UNL     1      27.117  49.115  49.111  1.00  0.00     0.002 A 
HETATM   30  C   UNL     1      26.622  48.121  49.957  1.00  0.00     0.030 A 
BRANCH  26  31
HETATM   31  C   UNL     1      22.897  48.392  49.124  1.00  0.00     0.254 C 
HETATM   32  N   UNL     1      22.200  49.541  49.391  1.00  0.00    -0.351 N 
HETATM   33  H   UNL     1      22.729  50.370  49.657  1.00  0.00     0.163 HD
HETATM   34  O   UNL     1      22.357  47.295  48.999  1.00  0.00    -0.268 OA
BRANCH  32  35
HETATM   35  C   UNL     1      20.788  49.480  49.691  1.00  0.00     0.187 C 
BRANCH  35  36
HETATM   36  C   UNL     1      19.972  49.913  48.529  1.00  0.00     0.070 A 
HETATM   37  O   UNL     1      18.619  49.777  48.667  1.00  0.00    -0.325 OA
HETATM   38  C   UNL     1      18.049  50.255  47.533  1.00  0.00     0.142 A 
HETATM   39  C   UNL     1      19.013  50.700  46.661  1.00  0.00     0.027 A 
HETATM   40  C   UNL     1      20.255  50.487  47.306  1.00  0.00     0.036 A 
ENDBRANCH  35  36
ENDBRANCH  32  35
ENDBRANCH  26  31
ENDBRANCH  22  25
ENDBRANCH   1  21
TORSDOF 7
ENDMDL
MODEL 3
REMARK VINA RESULT:     -11.1      0.825      2.099
REMARK  7 active torsions:
REMARK  status: ('A' for Active; 'I' for Inactive)
REMARK    1  A    between atoms: C_2  and  C_3 
REMARK    2  A    between atoms: N_16  and  C_17 
REMARK    3  A    between atoms: C_17  and  C_18 
REMARK       I    between atoms: C_18  and  N_19 
REMARK    4  A    between atoms: N_19  and  C_20 
REMARK    5  A    between atoms: C_21  and  C_22 
REMARK       I    between atoms: C_22  and  N_23 
REMARK    6  A    between atoms: N_23  and  C_24 
REMARK    7  A    between atoms: C_24  and  C_25 
ROOT
HETATM    1  C   UNL     1      24.260  44.614  50.719  1.00  0.00     0.240 C 
ENDROOT
BRANCH   1   2
HETATM    2  N   UNL     1      25.581  44.330  51.248  1.00  0.00    -0.259 N 
HETATM    3  C   UNL     1      26.717  44.340  50.502  1.00  0.00     0.326 A 
HETATM    4  N   UNL     1      27.772  43.974  51.299  1.00  0.00    -0.321 N 
HETATM    5  O   UNL     1      26.824  44.665  49.334  1.00  0.00    -0.247 OA
HETATM    6  C   UNL     1      27.361  43.568  52.623  1.00  0.00     0.140 A 
HETATM    7  H   UNL     1      28.707  43.868  50.928  1.00  0.00     0.165 HD
HETATM    8  C   UNL     1      27.562  42.041  52.694  1.00  0.00     0.055 C 
HETATM    9  C   UNL     1      25.842  43.863  52.508  1.00  0.00     0.261 A 
HETATM   10  O   UNL     1      25.005  43.664  53.377  1.00  0.00    -0.270 OA
BRANCH   6  11
HETATM   11  C   UNL     1      27.990  44.346  53.793  1.00  0.00    -0.010 A 
HETATM   12  C   UNL     1      27.561  45.629  54.304  1.00  0.00    -0.017 A 
HETATM   13  C   UNL     1      28.287  46.198  55.393  1.00  0.00    -0.025 A 
HETATM   14  C   UNL     1      26.462  46.408  53.845  1.00  0.00     0.013 A 
HETATM   15  C   UNL     1      27.939  47.450  55.930  1.00  0.00     0.012 A 
HETATM   16  C   UNL     1      29.364  45.523  55.973  1.00  0.00     0.012 A 
HETATM   17  C   UNL     1      26.866  48.176  55.433  1.00  0.00     0.001 A 
HETATM   18  C   UNL     1      26.123  47.653  54.390  1.00  0.00     0.001 A 
HETATM   19  C   UNL     1      29.744  44.273  55.518  1.00  0.00     0.002 A 
HETATM   20  C   UNL     1      29.062  43.694  54.456  1.00  0.00     0.011 A 
ENDBRANCH   6  11
ENDBRANCH   1   2
BRANCH   1  21
HETATM   21  C   UNL     1      24.223  45.804  49.754  1.00  0.00     0.240 C 
HETATM   22  N   UNL     1      24.524  47.037  50.318  1.00  0.00    -0.325 N 
HETATM   23  H   UNL     1      25.119  46.954  51.133  1.00  0.00     0.169 HD
HETATM   24  O   UNL     1      23.879  45.648  48.581  1.00  0.00    -0.271 OA
BRANCH  22  25
HETATM   25  C   UNL     1      24.816  48.152  49.495  1.00  0.00     0.050 A 
HETATM   26  C   UNL     1      23.867  49.013  48.915  1.00  0.00     0.058 A 
HETATM   27  C   UNL     1      24.312  50.097  48.134  1.00  0.00     0.019 A 
HETATM   28  C   UNL     1      25.672  50.326  47.925  1.00  0.00     0.001 A 
HETATM   29  C   UNL     1      26.608  49.494  48.523  1.00  0.00     0.002 A 
HETATM   30  C   UNL     1      26.184  48.424  49.313  1.00  0.00     0.030 A 
BRANCH  26  31
HETATM   31  C   UNL     1      22.406  49.016  49.192  1.00  0.00     0.254 C 
HETATM   32  N   UNL     1      21.862  50.146  49.746  1.00  0.00    -0.351 N 
HETATM   33  H   UNL     1      22.496  50.890  50.033  1.00  0.00     0.163 HD
HETATM   34  O   UNL     1      21.763  47.986  49.004  1.00  0.00    -0.268 OA
BRANCH  32  35
HETATM   35  C   UNL     1      20.520  50.118  50.280  1.00  0.00     0.187 C 
BRANCH  35  36
HETATM   36  C   UNL     1      19.619  51.018  49.518  1.00  0.00     0.070 A 
HETATM   37  O   UNL     1      19.596  50.832  48.165  1.00  0.00    -0.325 OA
HETATM   38  C   UNL     1      18.697  51.710  47.654  1.00  0.00     0.142 A 
HETATM   39  C   UNL     1      18.135  52.462  48.656  1.00  0.00     0.027 A 
HETATM   40  C   UNL     1      18.724  52.012  49.863  1.00  0.00     0.036 A 
ENDBRANCH  35  36
ENDBRANCH  32  35
ENDBRANCH  26  31
ENDBRANCH  22  25
ENDBRANCH   1  21
TORSDOF 7
ENDMDL
MODEL 4
REMARK VINA RESULT:     -10.8      4.165      7.755
REMARK  7 active torsions:
REMARK  status: ('A' for Active; 'I' for Inactive)
REMARK    1  A    between atoms: C_2  and  C_3 
REMARK    2  A    between atoms: N_16  and  C_17 
REMARK    3  A    between atoms: C_17  and  C_18 
REMARK       I    between atoms: C_18  and  N_19 
REMARK    4  A    between atoms: N_19  and  C_20 
REMARK    5  A    between atoms: C_21  and  C_22 
REMARK       I    between atoms: C_22  and  N_23 
REMARK    6  A    between atoms: N_23  and  C_24 
REMARK    7  A    between atoms: C_24  and  C_25 
ROOT
HETATM    1  C   UNL     1      24.109  45.045  50.493  1.00  0.00     0.240 C 
ENDROOT
BRANCH   1   2
HETATM    2  N   UNL     1      25.407  44.784  51.085  1.00  0.00    -0.259 N 
HETATM    3  C   UNL     1      26.577  44.812  50.395  1.00  0.00     0.326 A 
HETATM    4  N   UNL     1      27.599  44.465  51.242  1.00  0.00    -0.321 N 
HETATM    5  O   UNL     1      26.734  45.136  49.232  1.00  0.00    -0.247 OA
HETATM    6  C   UNL     1      27.131  44.056  52.547  1.00  0.00     0.140 A 
HETATM    7  H   UNL     1      28.552  44.375  50.917  1.00  0.00     0.165 HD
HETATM    8  C   UNL     1      27.354  42.533  52.632  1.00  0.00     0.055 C 
HETATM    9  C   UNL     1      25.615  44.325  52.358  1.00  0.00     0.261 A 
HETATM   10  O   UNL     1      24.741  44.114  53.187  1.00  0.00    -0.270 OA
BRANCH   6  11
HETATM   11  C   UNL     1      27.691  44.847  53.743  1.00  0.00    -0.010 A 
HETATM   12  C   UNL     1      28.836  44.492  54.550  1.00  0.00    -0.017 A 
HETATM   13  C   UNL     1      29.192  45.353  55.632  1.00  0.00    -0.025 A 
HETATM   14  C   UNL     1      29.685  43.363  54.381  1.00  0.00     0.013 A 
HETATM   15  C   UNL     1      30.282  45.063  56.470  1.00  0.00     0.012 A 
HETATM   16  C   UNL     1      28.472  46.523  55.889  1.00  0.00     0.012 A 
HETATM   17  C   UNL     1      31.068  43.936  56.271  1.00  0.00     0.001 A 
HETATM   18  C   UNL     1      30.771  43.086  55.221  1.00  0.00     0.001 A 
HETATM   19  C   UNL     1      27.406  46.889  55.087  1.00  0.00     0.002 A 
HETATM   20  C   UNL     1      27.032  46.071  54.030  1.00  0.00     0.011 A 
ENDBRANCH   6  11
ENDBRANCH   1   2
BRANCH   1  21
HETATM   21  C   UNL     1      23.475  43.819  49.828  1.00  0.00     0.240 C 
HETATM   22  N   UNL     1      23.754  43.664  48.477  1.00  0.00    -0.325 N 
HETATM   23  H   UNL     1      24.632  44.093  48.212  1.00  0.00     0.169 HD
HETATM   24  O   UNL     1      22.719  43.083  50.464  1.00  0.00    -0.271 OA
BRANCH  22  25
HETATM   25  C   UNL     1      23.486  42.436  47.823  1.00  0.00     0.050 A 
HETATM   26  C   UNL     1      24.336  41.316  47.804  1.00  0.00     0.058 A 
HETATM   27  C   UNL     1      23.921  40.152  47.127  1.00  0.00     0.019 A 
HETATM   28  C   UNL     1      22.689  40.097  46.475  1.00  0.00     0.001 A 
HETATM   29  C   UNL     1      21.838  41.193  46.520  1.00  0.00     0.002 A 
HETATM   30  C   UNL     1      22.228  42.348  47.200  1.00  0.00     0.030 A 
BRANCH  26  31
HETATM   31  C   UNL     1      25.582  41.151  48.599  1.00  0.00     0.254 C 
HETATM   32  N   UNL     1      25.748  39.981  49.293  1.00  0.00    -0.351 N 
HETATM   33  H   UNL     1      24.971  39.323  49.314  1.00  0.00     0.163 HD
HETATM   34  O   UNL     1      26.365  42.094  48.679  1.00  0.00    -0.268 OA
BRANCH  32  35
HETATM   35  C   UNL     1      26.794  39.867  50.283  1.00  0.00     0.187 C 
BRANCH  35  36
HETATM   36  C   UNL     1      27.967  39.135  49.745  1.00  0.00     0.070 A 
HETATM   37  O   UNL     1      28.980  38.897  50.632  1.00  0.00    -0.325 OA
HETATM   38  C   UNL     1      29.934  38.192  49.974  1.00  0.00     0.142 A 
HETATM   39  C   UNL     1      29.555  37.968  48.673  1.00  0.00     0.027 A 
HETATM   40  C   UNL     1      28.281  38.569  48.525  1.00  0.00     0.036 A 
ENDBRANCH  35  36
ENDBRANCH  32  35
ENDBRANCH  26  31
ENDBRANCH  22  25
ENDBRANCH   1  21
TORSDOF 7
ENDMDL
MODEL 5
REMARK VINA RESULT:     -10.7      1.918      3.135
REMARK  7 active torsions:
REMARK  status: ('A' for Active; 'I' for Inactive)
REMARK    1  A    between atoms: C_2  and  C_3 
REMARK    2  A    between atoms: N_16  and  C_17 
REMARK    3  A    between atoms: C_17  and  C_18 
REMARK       I    between atoms: C_18  and  N_19 
REMARK    4  A    between atoms: N_19  and  C_20 
REMARK    5  A    between atoms: C_21  and  C_22 
REMARK       I    between atoms: C_22  and  N_23 
REMARK    6  A    between atoms: N_23  and  C_24 
REMARK    7  A    between atoms: C_24  and  C_25 
ROOT
HETATM    1  C   UNL     1      25.838  45.551  49.651  1.00  0.00     0.240 C 
ENDROOT
BRANCH   1   2
HETATM    2  N   UNL     1      26.116  44.691  50.786  1.00  0.00    -0.259 N 
HETATM    3  C   UNL     1      25.846  43.360  50.815  1.00  0.00     0.326 A 
HETATM    4  N   UNL     1      26.179  42.868  52.052  1.00  0.00    -0.321 N 
HETATM    5  O   UNL     1      25.427  42.676  49.899  1.00  0.00    -0.247 OA
HETATM    6  C   UNL     1      26.583  43.902  52.977  1.00  0.00     0.140 A 
HETATM    7  H   UNL     1      26.011  41.903  52.304  1.00  0.00     0.165 HD
HETATM    8  C   UNL     1      25.443  44.036  54.006  1.00  0.00     0.055 C 
HETATM    9  C   UNL     1      26.530  45.121  52.018  1.00  0.00     0.261 A 
HETATM   10  O   UNL     1      26.766  46.282  52.321  1.00  0.00    -0.270 OA
BRANCH   6  11
HETATM   11  C   UNL     1      27.983  43.745  53.597  1.00  0.00    -0.010 A 
HETATM   12  C   UNL     1      28.524  44.500  54.704  1.00  0.00    -0.017 A 
HETATM   13  C   UNL     1      29.858  44.215  55.127  1.00  0.00    -0.025 A 
HETATM   14  C   UNL     1      27.863  45.513  55.452  1.00  0.00     0.013 A 
HETATM   15  C   UNL     1      30.457  44.921  56.185  1.00  0.00     0.012 A 
HETATM   16  C   UNL     1      30.611  43.214  54.510  1.00  0.00     0.012 A 
HETATM   17  C   UNL     1      29.771  45.913  56.871  1.00  0.00     0.001 A 
HETATM   18  C   UNL     1      28.470  46.208  56.507  1.00  0.00     0.001 A 
HETATM   19  C   UNL     1      30.077  42.456  53.483  1.00  0.00     0.002 A 
HETATM   20  C   UNL     1      28.785  42.713  53.044  1.00  0.00     0.011 A 
ENDBRANCH   6  11
ENDBRANCH   1   2
BRANCH   1  21
HETATM   21  C   UNL     1      24.365  45.954  49.526  1.00  0.00     0.240 C 
HETATM   22  N   UNL     1      23.772  45.670  48.303  1.00  0.00    -0.325 N 
HETATM   23  H   UNL     1      24.214  44.891  47.831  1.00  0.00     0.169 HD
HETATM   24  O   UNL     1      23.799  46.550  50.445  1.00  0.00    -0.271 OA
BRANCH  22  25
HETATM   25  C   UNL     1      22.363  45.713  48.160  1.00  0.00     0.050 A 
HETATM   26  C   UNL     1      21.558  46.855  48.322  1.00  0.00     0.058 A 
HETATM   27  C   UNL     1      20.168  46.747  48.125  1.00  0.00     0.019 A 
HETATM   28  C   UNL     1      19.581  45.531  47.778  1.00  0.00     0.001 A 
HETATM   29  C   UNL     1      20.380  44.412  47.588  1.00  0.00     0.002 A 
HETATM   30  C   UNL     1      21.761  44.505  47.765  1.00  0.00     0.030 A 
BRANCH  26  31
HETATM   31  C   UNL     1      22.045  48.249  48.504  1.00  0.00     0.254 C 
HETATM   32  N   UNL     1      21.636  48.929  49.622  1.00  0.00    -0.351 N 
HETATM   33  H   UNL     1      20.942  48.487  50.222  1.00  0.00     0.163 HD
HETATM   34  O   UNL     1      22.712  48.767  47.612  1.00  0.00    -0.268 OA
BRANCH  32  35
HETATM   35  C   UNL     1      21.851  50.354  49.723  1.00  0.00     0.187 C 
BRANCH  35  36
HETATM   36  C   UNL     1      20.620  51.110  49.385  1.00  0.00     0.070 A 
HETATM   37  O   UNL     1      19.646  51.123  50.344  1.00  0.00    -0.325 OA
HETATM   38  C   UNL     1      18.628  51.886  49.873  1.00  0.00     0.142 A 
HETATM   39  C   UNL     1      18.927  52.369  48.622  1.00  0.00     0.027 A 
HETATM   40  C   UNL     1      20.217  51.874  48.308  1.00  0.00     0.036 A 
ENDBRANCH  35  36
ENDBRANCH  32  35
ENDBRANCH  26  31
ENDBRANCH  22  25
ENDBRANCH   1  21
TORSDOF 7
ENDMDL
MODEL 6
REMARK VINA RESULT:     -10.6      4.986      9.232
REMARK  7 active torsions:
REMARK  status: ('A' for Active; 'I' for Inactive)
REMARK    1  A    between atoms: C_2  and  C_3 
REMARK    2  A    between atoms: N_16  and  C_17 
REMARK    3  A    between atoms: C_17  and  C_18 
REMARK       I    between atoms: C_18  and  N_19 
REMARK    4  A    between atoms: N_19  and  C_20 
REMARK    5  A    between atoms: C_21  and  C_22 
REMARK       I    between atoms: C_22  and  N_23 
REMARK    6  A    between atoms: N_23  and  C_24 
REMARK    7  A    between atoms: C_24  and  C_25 
ROOT
HETATM    1  C   UNL     1      25.401  43.217  49.099  1.00  0.00     0.240 C 
ENDROOT
BRANCH   1   2
HETATM    2  N   UNL     1      25.726  43.608  50.458  1.00  0.00    -0.259 N 
HETATM    3  C   UNL     1      24.904  43.412  51.522  1.00  0.00     0.326 A 
HETATM    4  N   UNL     1      25.493  43.948  52.639  1.00  0.00    -0.321 N 
HETATM    5  O   UNL     1      23.842  42.819  51.528  1.00  0.00    -0.247 OA
HETATM    6  C   UNL     1      26.715  44.660  52.343  1.00  0.00     0.140 A 
HETATM    7  H   UNL     1      25.025  43.955  53.536  1.00  0.00     0.165 HD
HETATM    8  C   UNL     1      26.404  46.158  52.528  1.00  0.00     0.055 C 
HETATM    9  C   UNL     1      26.811  44.357  50.824  1.00  0.00     0.261 A 
HETATM   10  O   UNL     1      27.680  44.764  50.066  1.00  0.00    -0.270 OA
BRANCH   6  11
HETATM   11  C   UNL     1      27.975  44.176  53.085  1.00  0.00    -0.010 A 
HETATM   12  C   UNL     1      28.518  44.725  54.306  1.00  0.00    -0.017 A 
HETATM   13  C   UNL     1      29.711  44.145  54.835  1.00  0.00    -0.025 A 
HETATM   14  C   UNL     1      27.984  45.797  55.074  1.00  0.00     0.013 A 
HETATM   15  C   UNL     1      30.306  44.637  56.009  1.00  0.00     0.012 A 
HETATM   16  C   UNL     1      30.322  43.056  54.207  1.00  0.00     0.012 A 
HETATM   17  C   UNL     1      29.751  45.698  56.711  1.00  0.00     0.001 A 
HETATM   18  C   UNL     1      28.585  46.277  56.245  1.00  0.00     0.001 A 
HETATM   19  C   UNL     1      29.775  42.498  53.066  1.00  0.00     0.002 A 
HETATM   20  C   UNL     1      28.619  43.043  52.523  1.00  0.00     0.011 A 
ENDBRANCH   6  11
ENDBRANCH   1   2
BRANCH   1  21
HETATM   21  C   UNL     1      25.950  41.842  48.703  1.00  0.00     0.240 C 
HETATM   22  N   UNL     1      27.324  41.691  48.833  1.00  0.00    -0.325 N 
HETATM   23  H   UNL     1      27.716  42.303  49.538  1.00  0.00     0.169 HD
HETATM   24  O   UNL     1      25.203  40.979  48.239  1.00  0.00    -0.271 OA
BRANCH  22  25
HETATM   25  C   UNL     1      27.913  40.402  48.790  1.00  0.00     0.050 A 
HETATM   26  C   UNL     1      28.200  39.672  47.623  1.00  0.00     0.058 A 
HETATM   27  C   UNL     1      28.809  38.407  47.740  1.00  0.00     0.019 A 
HETATM   28  C   UNL     1      29.126  37.870  48.987  1.00  0.00     0.001 A 
HETATM   29  C   UNL     1      28.870  38.606  50.136  1.00  0.00     0.002 A 
HETATM   30  C   UNL     1      28.281  39.867  50.038  1.00  0.00     0.030 A 
BRANCH  26  31
HETATM   31  C   UNL     1      28.099  40.178  46.229  1.00  0.00     0.254 C 
HETATM   32  N   UNL     1      27.698  39.298  45.257  1.00  0.00    -0.351 N 
HETATM   33  H   UNL     1      27.585  38.320  45.515  1.00  0.00     0.163 HD
HETATM   34  O   UNL     1      28.463  41.325  45.984  1.00  0.00    -0.268 OA
BRANCH  32  35
HETATM   35  C   UNL     1      27.835  39.648  43.861  1.00  0.00     0.187 C 
BRANCH  35  36
HETATM   36  C   UNL     1      29.120  39.156  43.307  1.00  0.00     0.070 A 
HETATM   37  O   UNL     1      29.973  40.115  42.837  1.00  0.00    -0.325 OA
HETATM   38  C   UNL     1      31.095  39.481  42.412  1.00  0.00     0.142 A 
HETATM   39  C   UNL     1      30.983  38.125  42.599  1.00  0.00     0.027 A 
HETATM   40  C   UNL     1      29.711  37.913  43.184  1.00  0.00     0.036 A 
ENDBRANCH  35  36
ENDBRANCH  32  35
ENDBRANCH  26  31
ENDBRANCH  22  25
ENDBRANCH   1  21
TORSDOF 7
ENDMDL
MODEL 7
REMARK VINA RESULT:     -10.3      2.933      4.508
REMARK  7 active torsions:
REMARK  status: ('A' for Active; 'I' for Inactive)
REMARK    1  A    between atoms: C_2  and  C_3 
REMARK    2  A    between atoms: N_16  and  C_17 
REMARK    3  A    between atoms: C_17  and  C_18 
REMARK       I    between atoms: C_18  and  N_19 
REMARK    4  A    between atoms: N_19  and  C_20 
REMARK    5  A    between atoms: C_21  and  C_22 
REMARK       I    between atoms: C_22  and  N_23 
REMARK    6  A    between atoms: N_23  and  C_24 
REMARK    7  A    between atoms: C_24  and  C_25 
ROOT
HETATM    1  C   UNL     1      24.157  45.140  50.464  1.00  0.00     0.240 C 
ENDROOT
BRANCH   1   2
HETATM    2  N   UNL     1      25.433  44.829  51.080  1.00  0.00    -0.259 N 
HETATM    3  C   UNL     1      26.608  44.762  50.403  1.00  0.00     0.326 A 
HETATM    4  N   UNL     1      27.600  44.391  51.274  1.00  0.00    -0.321 N 
HETATM    5  O   UNL     1      26.794  45.031  49.230  1.00  0.00    -0.247 OA
HETATM    6  C   UNL     1      27.098  44.061  52.588  1.00  0.00     0.140 A 
HETATM    7  H   UNL     1      28.550  44.233  50.963  1.00  0.00     0.165 HD
HETATM    8  C   UNL     1      27.232  42.532  52.734  1.00  0.00     0.055 C 
HETATM    9  C   UNL     1      25.602  44.409  52.372  1.00  0.00     0.261 A 
HETATM   10  O   UNL     1      24.710  44.281  53.198  1.00  0.00    -0.270 OA
BRANCH   6  11
HETATM   11  C   UNL     1      27.691  44.865  53.759  1.00  0.00    -0.010 A 
HETATM   12  C   UNL     1      28.845  44.506  54.553  1.00  0.00    -0.017 A 
HETATM   13  C   UNL     1      29.234  45.381  55.612  1.00  0.00    -0.025 A 
HETATM   14  C   UNL     1      29.671  43.360  54.392  1.00  0.00     0.013 A 
HETATM   15  C   UNL     1      30.334  45.089  56.437  1.00  0.00     0.012 A 
HETATM   16  C   UNL     1      28.538  46.568  55.858  1.00  0.00     0.012 A 
HETATM   17  C   UNL     1      31.097  43.946  56.246  1.00  0.00     0.001 A 
HETATM   18  C   UNL     1      30.767  43.080  55.218  1.00  0.00     0.001 A 
HETATM   19  C   UNL     1      27.464  46.937  55.068  1.00  0.00     0.002 A 
HETATM   20  C   UNL     1      27.058  46.105  54.034  1.00  0.00     0.011 A 
ENDBRANCH   6  11
ENDBRANCH   1   2
BRANCH   1  21
HETATM   21  C   UNL     1      23.491  43.941  49.781  1.00  0.00     0.240 C 
HETATM   22  N   UNL     1      23.810  43.768  48.440  1.00  0.00    -0.325 N 
HETATM   23  H   UNL     1      24.716  44.154  48.206  1.00  0.00     0.169 HD
HETATM   24  O   UNL     1      22.680  43.243  50.392  1.00  0.00    -0.271 OA
BRANCH  22  25
HETATM   25  C   UNL     1      23.509  42.550  47.781  1.00  0.00     0.050 A 
HETATM   26  C   UNL     1      22.382  42.313  46.975  1.00  0.00     0.058 A 
HETATM   27  C   UNL     1      22.229  41.052  46.366  1.00  0.00     0.019 A 
HETATM   28  C   UNL     1      23.171  40.041  46.552  1.00  0.00     0.001 A 
HETATM   29  C   UNL     1      24.299  40.287  47.323  1.00  0.00     0.002 A 
HETATM   30  C   UNL     1      24.473  41.535  47.922  1.00  0.00     0.030 A 
BRANCH  26  31
HETATM   31  C   UNL     1      21.395  43.333  46.530  1.00  0.00     0.254 C 
HETATM   32  N   UNL     1      21.852  44.371  45.761  1.00  0.00    -0.351 N 
HETATM   33  H   UNL     1      22.856  44.451  45.613  1.00  0.00     0.163 HD
HETATM   34  O   UNL     1      20.240  43.260  46.940  1.00  0.00    -0.268 OA
BRANCH  32  35
HETATM   35  C   UNL     1      21.011  45.522  45.523  1.00  0.00     0.187 C 
BRANCH  35  36
HETATM   36  C   UNL     1      21.190  46.547  46.581  1.00  0.00     0.070 A 
HETATM   37  O   UNL     1      22.384  46.517  47.245  1.00  0.00    -0.325 OA
HETATM   38  C   UNL     1      22.375  47.541  48.135  1.00  0.00     0.142 A 
HETATM   39  C   UNL     1      21.193  48.236  48.057  1.00  0.00     0.027 A 
HETATM   40  C   UNL     1      20.429  47.601  47.048  1.00  0.00     0.036 A 
ENDBRANCH  35  36
ENDBRANCH  32  35
ENDBRANCH  26  31
ENDBRANCH  22  25
ENDBRANCH   1  21
TORSDOF 7
ENDMDL
MODEL 8
REMARK VINA RESULT:     -10.3      2.110      3.551
REMARK  7 active torsions:
REMARK  status: ('A' for Active; 'I' for Inactive)
REMARK    1  A    between atoms: C_2  and  C_3 
REMARK    2  A    between atoms: N_16  and  C_17 
REMARK    3  A    between atoms: C_17  and  C_18 
REMARK       I    between atoms: C_18  and  N_19 
REMARK    4  A    between atoms: N_19  and  C_20 
REMARK    5  A    between atoms: C_21  and  C_22 
REMARK       I    between atoms: C_22  and  N_23 
REMARK    6  A    between atoms: N_23  and  C_24 
REMARK    7  A    between atoms: C_24  and  C_25 
ROOT
HETATM    1  C   UNL     1      24.192  47.502  50.349  1.00  0.00     0.240 C 
ENDROOT
BRANCH   1   2
HETATM    2  N   UNL     1      25.275  46.540  50.435  1.00  0.00    -0.259 N 
HETATM    3  C   UNL     1      26.442  46.646  49.748  1.00  0.00     0.326 A 
HETATM    4  N   UNL     1      27.214  45.544  50.016  1.00  0.00    -0.321 N 
HETATM    5  O   UNL     1      26.797  47.574  49.044  1.00  0.00    -0.247 OA
HETATM    6  C   UNL     1      26.527  44.560  50.821  1.00  0.00     0.140 A 
HETATM    7  H   UNL     1      28.108  45.398  49.565  1.00  0.00     0.165 HD
HETATM    8  C   UNL     1      26.224  43.370  49.890  1.00  0.00     0.055 C 
HETATM    9  C   UNL     1      25.209  45.335  51.080  1.00  0.00     0.261 A 
HETATM   10  O   UNL     1      24.246  44.921  51.711  1.00  0.00    -0.270 OA
BRANCH   6  11
HETATM   11  C   UNL     1      27.213  44.173  52.144  1.00  0.00    -0.010 A 
HETATM   12  C   UNL     1      27.433  45.034  53.283  1.00  0.00    -0.017 A 
HETATM   13  C   UNL     1      28.105  44.491  54.420  1.00  0.00    -0.025 A 
HETATM   14  C   UNL     1      27.039  46.395  53.416  1.00  0.00     0.013 A 
HETATM   15  C   UNL     1      28.370  45.273  55.557  1.00  0.00     0.012 A 
HETATM   16  C   UNL     1      28.511  43.154  54.446  1.00  0.00     0.012 A 
HETATM   17  C   UNL     1      27.977  46.602  55.627  1.00  0.00     0.001 A 
HETATM   18  C   UNL     1      27.306  47.164  54.556  1.00  0.00     0.001 A 
HETATM   19  C   UNL     1      28.257  42.315  53.376  1.00  0.00     0.002 A 
HETATM   20  C   UNL     1      27.611  42.815  52.253  1.00  0.00     0.011 A 
ENDBRANCH   6  11
ENDBRANCH   1   2
BRANCH   1  21
HETATM   21  C   UNL     1      23.443  47.472  49.013  1.00  0.00     0.240 C 
HETATM   22  N   UNL     1      22.650  46.351  48.801  1.00  0.00    -0.325 N 
HETATM   23  H   UNL     1      22.334  45.932  49.666  1.00  0.00     0.169 HD
HETATM   24  O   UNL     1      23.610  48.365  48.180  1.00  0.00    -0.271 OA
BRANCH  22  25
HETATM   25  C   UNL     1      21.687  46.338  47.762  1.00  0.00     0.050 A 
HETATM   26  C   UNL     1      20.460  47.023  47.774  1.00  0.00     0.058 A 
HETATM   27  C   UNL     1      19.612  46.930  46.653  1.00  0.00     0.019 A 
HETATM   28  C   UNL     1      19.968  46.171  45.540  1.00  0.00     0.001 A 
HETATM   29  C   UNL     1      21.194  45.519  45.516  1.00  0.00     0.002 A 
HETATM   30  C   UNL     1      22.052  45.613  46.613  1.00  0.00     0.030 A 
BRANCH  26  31
HETATM   31  C   UNL     1      20.023  48.015  48.793  1.00  0.00     0.254 C 
HETATM   32  N   UNL     1      20.565  49.272  48.735  1.00  0.00    -0.351 N 
HETATM   33  H   UNL     1      21.311  49.441  48.063  1.00  0.00     0.163 HD
HETATM   34  O   UNL     1      19.273  47.649  49.695  1.00  0.00    -0.268 OA
BRANCH  32  35
HETATM   35  C   UNL     1      20.389  50.189  49.838  1.00  0.00     0.187 C 
BRANCH  35  36
HETATM   36  C   UNL     1      19.259  51.118  49.591  1.00  0.00     0.070 A 
HETATM   37  O   UNL     1      18.101  50.840  50.262  1.00  0.00    -0.325 OA
HETATM   38  C   UNL     1      17.208  51.810  49.941  1.00  0.00     0.142 A 
HETATM   39  C   UNL     1      17.770  52.713  49.073  1.00  0.00     0.027 A 
HETATM   40  C   UNL     1      19.097  52.273  48.851  1.00  0.00     0.036 A 
ENDBRANCH  35  36
ENDBRANCH  32  35
ENDBRANCH  26  31
ENDBRANCH  22  25
ENDBRANCH   1  21
TORSDOF 7
ENDMDL
MODEL 9
REMARK VINA RESULT:     -10.1      3.433      6.353
REMARK  7 active torsions:
REMARK  status: ('A' for Active; 'I' for Inactive)
REMARK    1  A    between atoms: C_2  and  C_3 
REMARK    2  A    between atoms: N_16  and  C_17 
REMARK    3  A    between atoms: C_17  and  C_18 
REMARK       I    between atoms: C_18  and  N_19 
REMARK    4  A    between atoms: N_19  and  C_20 
REMARK    5  A    between atoms: C_21  and  C_22 
REMARK       I    between atoms: C_22  and  N_23 
REMARK    6  A    between atoms: N_23  and  C_24 
REMARK    7  A    between atoms: C_24  and  C_25 
ROOT
HETATM    1  C   UNL     1      24.793  46.373  51.088  1.00  0.00     0.240 C 
ENDROOT
BRANCH   1   2
HETATM    2  N   UNL     1      25.275  45.352  51.999  1.00  0.00    -0.259 N 
HETATM    3  C   UNL     1      24.871  44.055  51.969  1.00  0.00     0.326 A 
HETATM    4  N   UNL     1      25.478  43.380  52.998  1.00  0.00    -0.321 N 
HETATM    5  O   UNL     1      24.136  43.535  51.150  1.00  0.00    -0.247 OA
HETATM    6  C   UNL     1      26.241  44.247  53.865  1.00  0.00     0.140 A 
HETATM    7  H   UNL     1      25.275  42.407  53.188  1.00  0.00     0.165 HD
HETATM    8  C   UNL     1      25.458  44.337  55.190  1.00  0.00     0.055 C 
HETATM    9  C   UNL     1      26.064  45.581  53.093  1.00  0.00     0.261 A 
HETATM   10  O   UNL     1      26.509  46.669  53.432  1.00  0.00    -0.270 OA
BRANCH   6  11
HETATM   11  C   UNL     1      27.731  43.895  54.030  1.00  0.00    -0.010 A 
HETATM   12  C   UNL     1      28.647  44.461  54.994  1.00  0.00    -0.017 A 
HETATM   13  C   UNL     1      30.003  44.013  54.980  1.00  0.00    -0.025 A 
HETATM   14  C   UNL     1      28.348  45.429  55.993  1.00  0.00     0.013 A 
HETATM   15  C   UNL     1      30.954  44.530  55.876  1.00  0.00     0.012 A 
HETATM   16  C   UNL     1      30.428  43.032  54.081  1.00  0.00     0.012 A 
HETATM   17  C   UNL     1      30.612  45.488  56.820  1.00  0.00     0.001 A 
HETATM   18  C   UNL     1      29.305  45.936  56.882  1.00  0.00     0.001 A 
HETATM   19  C   UNL     1      29.541  42.453  53.191  1.00  0.00     0.002 A 
HETATM   20  C   UNL     1      28.217  42.872  53.176  1.00  0.00     0.011 A 
ENDBRANCH   6  11
ENDBRANCH   1   2
BRANCH   1  21
HETATM   21  C   UNL     1      24.480  45.851  49.682  1.00  0.00     0.240 C 
HETATM   22  N   UNL     1      23.142  45.574  49.435  1.00  0.00    -0.325 N 
HETATM   23  H   UNL     1      22.519  46.125  50.014  1.00  0.00     0.169 HD
HETATM   24  O   UNL     1      25.388  45.638  48.877  1.00  0.00    -0.271 OA
BRANCH  22  25
HETATM   25  C   UNL     1      22.681  45.376  48.110  1.00  0.00     0.050 A 
HETATM   26  C   UNL     1      22.774  44.177  47.381  1.00  0.00     0.058 A 
HETATM   27  C   UNL     1      22.250  44.127  46.074  1.00  0.00     0.019 A 
HETATM   28  C   UNL     1      21.646  45.243  45.496  1.00  0.00     0.001 A 
HETATM   29  C   UNL     1      21.528  46.417  46.228  1.00  0.00     0.002 A 
HETATM   30  C   UNL     1      22.029  46.479  47.529  1.00  0.00     0.030 A 
BRANCH  26  31
HETATM   31  C   UNL     1      23.213  42.861  47.916  1.00  0.00     0.254 C 
HETATM   32  N   UNL     1      24.365  42.316  47.410  1.00  0.00    -0.351 N 
HETATM   33  H   UNL     1      24.811  42.787  46.624  1.00  0.00     0.163 HD
HETATM   34  O   UNL     1      22.489  42.272  48.714  1.00  0.00    -0.268 OA
BRANCH  32  35
HETATM   35  C   UNL     1      24.698  40.938  47.687  1.00  0.00     0.187 C 
BRANCH  35  36
HETATM   36  C   UNL     1      25.806  40.840  48.671  1.00  0.00     0.070 A 
HETATM   37  O   UNL     1      27.069  40.850  48.149  1.00  0.00    -0.325 OA
HETATM   38  C   UNL     1      27.935  40.792  49.192  1.00  0.00     0.142 A 
HETATM   39  C   UNL     1      27.252  40.745  50.383  1.00  0.00     0.027 A 
HETATM   40  C   UNL     1      25.876  40.784  50.049  1.00  0.00     0.036 A 
ENDBRANCH  35  36
ENDBRANCH  32  35
ENDBRANCH  26  31
ENDBRANCH  22  25
ENDBRANCH   1  21
TORSDOF 7
ENDMDL
MODEL 10
REMARK VINA RESULT:     -10.0      2.381      3.892
REMARK  7 active torsions:
REMARK  status: ('A' for Active; 'I' for Inactive)
REMARK    1  A    between atoms: C_2  and  C_3 
REMARK    2  A    between atoms: N_16  and  C_17 
REMARK    3  A    between atoms: C_17  and  C_18 
REMARK       I    between atoms: C_18  and  N_19 
REMARK    4  A    between atoms: N_19  and  C_20 
REMARK    5  A    between atoms: C_21  and  C_22 
REMARK       I    between atoms: C_22  and  N_23 
REMARK    6  A    between atoms: N_23  and  C_24 
REMARK    7  A    between atoms: C_24  and  C_25 
ROOT
HETATM    1  C   UNL     1      24.402  45.491  51.106  1.00  0.00     0.240 C 
ENDROOT
BRANCH   1   2
HETATM    2  N   UNL     1      25.729  44.904  51.156  1.00  0.00    -0.259 N 
HETATM    3  C   UNL     1      26.709  45.165  50.253  1.00  0.00     0.326 A 
HETATM    4  N   UNL     1      27.809  44.405  50.563  1.00  0.00    -0.321 N 
HETATM    5  O   UNL     1      26.671  45.970  49.340  1.00  0.00    -0.247 OA
HETATM    6  C   UNL     1      27.565  43.480  51.646  1.00  0.00     0.140 A 
HETATM    7  H   UNL     1      28.639  44.409  49.984  1.00  0.00     0.165 HD
HETATM    8  C   UNL     1      27.523  42.074  51.017  1.00  0.00     0.055 C 
HETATM    9  C   UNL     1      26.117  43.906  52.007  1.00  0.00     0.261 A 
HETATM   10  O   UNL     1      25.416  43.399  52.872  1.00  0.00    -0.270 OA
BRANCH   6  11
HETATM   11  C   UNL     1      28.499  43.604  52.863  1.00  0.00    -0.010 A 
HETATM   12  C   UNL     1      28.424  44.599  53.908  1.00  0.00    -0.017 A 
HETATM   13  C   UNL     1      29.397  44.557  54.952  1.00  0.00    -0.025 A 
HETATM   14  C   UNL     1      27.459  45.638  54.033  1.00  0.00     0.013 A 
HETATM   15  C   UNL     1      29.397  45.502  55.992  1.00  0.00     0.012 A 
HETATM   16  C   UNL     1      30.379  43.564  54.981  1.00  0.00     0.012 A 
HETATM   17  C   UNL     1      28.442  46.507  56.056  1.00  0.00     0.001 A 
HETATM   18  C   UNL     1      27.468  46.573  55.076  1.00  0.00     0.001 A 
HETATM   19  C   UNL     1      30.423  42.581  54.008  1.00  0.00     0.002 A 
HETATM   20  C   UNL     1      29.494  42.598  52.976  1.00  0.00     0.011 A 
ENDBRANCH   6  11
ENDBRANCH   1   2
BRANCH   1  21
HETATM   21  C   UNL     1      23.438  44.759  50.166  1.00  0.00     0.240 C 
HETATM   22  N   UNL     1      23.395  45.242  48.865  1.00  0.00    -0.325 N 
HETATM   23  H   UNL     1      24.258  45.694  48.591  1.00  0.00     0.169 HD
HETATM   24  O   UNL     1      22.717  43.854  50.589  1.00  0.00    -0.271 OA
BRANCH  22  25
HETATM   25  C   UNL     1      22.785  44.483  47.836  1.00  0.00     0.050 A 
HETATM   26  C   UNL     1      21.528  44.745  47.260  1.00  0.00     0.058 A 
HETATM   27  C   UNL     1      21.061  43.910  46.226  1.00  0.00     0.019 A 
HETATM   28  C   UNL     1      21.819  42.833  45.770  1.00  0.00     0.001 A 
HETATM   29  C   UNL     1      23.072  42.593  46.318  1.00  0.00     0.002 A 
HETATM   30  C   UNL     1      23.557  43.420  47.333  1.00  0.00     0.030 A 
BRANCH  26  31
HETATM   31  C   UNL     1      20.691  45.950  47.500  1.00  0.00     0.254 C 
HETATM   32  N   UNL     1      21.146  47.151  47.019  1.00  0.00    -0.351 N 
HETATM   33  H   UNL     1      22.077  47.180  46.609  1.00  0.00     0.163 HD
HETATM   34  O   UNL     1      19.683  45.846  48.193  1.00  0.00    -0.268 OA
BRANCH  32  35
HETATM   35  C   UNL     1      20.524  48.384  47.443  1.00  0.00     0.187 C 
BRANCH  35  36
HETATM   36  C   UNL     1      21.541  49.401  47.812  1.00  0.00     0.070 A 
HETATM   37  O   UNL     1      22.842  49.055  47.575  1.00  0.00    -0.325 OA
HETATM   38  C   UNL     1      23.611  50.113  47.936  1.00  0.00     0.142 A 
HETATM   39  C   UNL     1      22.827  51.141  48.402  1.00  0.00     0.027 A 
HETATM   40  C   UNL     1      21.489  50.685  48.316  1.00  0.00     0.036 A 
ENDBRANCH  35  36
ENDBRANCH  32  35
ENDBRANCH  26  31
ENDBRANCH  22  25
ENDBRANCH   1  21
TORSDOF 7
ENDMDL
