MODEL 1
REMARK VINA RESULT:      -7.8      0.000      0.000
REMARK  10 active torsions:
REMARK  status: ('A' for Active; 'I' for Inactive)
REMARK       I    between atoms: C_2  and  N_3 
REMARK    1  A    between atoms: N_3  and  C_4 
REMARK    2  A    between atoms: C_4  and  C_5 
REMARK    3  A    between atoms: C_5  and  N_6 
REMARK       I    between atoms: N_6  and  C_7 
REMARK    4  A    between atoms: C_7  and  C_8 
REMARK    5  A    between atoms: C_8  and  C_9 
REMARK    6  A    between atoms: C_9  and  C_10 
REMARK    7  A    between atoms: C_10  and  C_11 
REMARK    8  A    between atoms: C_11  and  C_12 
REMARK    9  A    between atoms: C_12  and  N_13 
REMARK   10  A    between atoms: N_13  and  C_14 
ROOT
HETATM    1  C   UNL     1      25.852  45.369  51.005  1.00  0.00     0.020 C 
ENDROOT
BRANCH   1   2
HETATM    2  C   UNL     1      26.059  46.881  50.866  1.00  0.00     0.002 C 
BRANCH   2   3
HETATM    3  C   UNL     1      25.668  47.418  49.488  1.00  0.00     0.009 C 
BRANCH   3   4
HETATM    4  C   UNL     1      26.435  48.691  49.139  1.00  0.00     0.103 C 
BRANCH   4   5
HETATM    5  C   UNL     1      25.530  49.673  48.426  1.00  0.00     0.217 C 
HETATM    6  N   UNL     1      24.276  49.785  48.975  1.00  0.00    -0.360 N 
HETATM    7  H   UNL     1      23.996  49.166  49.724  1.00  0.00     0.162 HD
HETATM    8  O   UNL     1      25.886  50.282  47.422  1.00  0.00    -0.274 OA
BRANCH   6   9
HETATM    9  C   UNL     1      23.240  50.593  48.350  1.00  0.00     0.142 C 
BRANCH   9  10
HETATM   10  C   UNL     1      21.987  50.720  49.226  1.00  0.00     0.142 C 
BRANCH  10  11
HETATM   11  N   UNL     1      20.990  51.631  48.681  1.00  0.00    -0.360 N 
HETATM   12  C   UNL     1      19.646  51.361  48.760  1.00  0.00     0.213 C 
HETATM   13  C   UNL     1      18.758  52.459  48.236  1.00  0.00     0.117 C 
HETATM   14  O   UNL     1      19.189  50.318  49.217  1.00  0.00    -0.274 OA
HETATM   15  H   UNL     1      21.304  52.548  48.389  1.00  0.00     0.162 HD
ENDBRANCH  10  11
ENDBRANCH   9  10
ENDBRANCH   6   9
ENDBRANCH   4   5
ENDBRANCH   3   4
ENDBRANCH   2   3
ENDBRANCH   1   2
BRANCH   1  16
HETATM   16  C   UNL     1      25.204  44.965  52.329  1.00  0.00     0.121 C 
BRANCH  16  17
HETATM   17  N   UNL     1      26.197  44.367  53.212  1.00  0.00    -0.374 N 
HETATM   18  H   UNL     1      26.704  43.596  52.796  1.00  0.00     0.161 HD
BRANCH  17  19
HETATM   19  C   UNL     1      26.904  45.151  54.109  1.00  0.00     0.139 A 
HETATM   20  N   UNL     1      26.415  46.303  54.472  1.00  0.00    -0.202 NA
HETATM   21  C   UNL     1      27.091  47.135  55.323  1.00  0.00     0.200 A 
HETATM   22  S   UNL     1      26.492  48.620  55.825  1.00  0.00    -0.039 SA
HETATM   23  N   UNL     1      28.327  46.769  55.784  1.00  0.00    -0.331 N 
HETATM   24  C   UNL     1      28.909  45.548  55.459  1.00  0.00     0.048 A 
HETATM   25  H   UNL     1      28.792  47.418  56.403  1.00  0.00     0.168 HD
HETATM   26  C   UNL     1      28.218  44.671  54.626  1.00  0.00     0.036 A 
HETATM   27  C   UNL     1      30.158  45.206  55.976  1.00  0.00     0.030 A 
HETATM   28  C   UNL     1      28.765  43.420  54.328  1.00  0.00     0.017 A 
HETATM   29  C   UNL     1      30.015  43.071  54.846  1.00  0.00     0.001 A 
HETATM   30  C   UNL     1      30.713  43.965  55.662  1.00  0.00     0.002 A 
ENDBRANCH  17  19
ENDBRANCH  16  17
ENDBRANCH   1  16
TORSDOF 10
ENDMDL
MODEL 2
REMARK VINA RESULT:      -7.8      2.043      2.749
REMARK  10 active torsions:
REMARK  status: ('A' for Active; 'I' for Inactive)
REMARK       I    between atoms: C_2  and  N_3 
REMARK    1  A    between atoms: N_3  and  C_4 
REMARK    2  A    between atoms: C_4  and  C_5 
REMARK    3  A    between atoms: C_5  and  N_6 
REMARK       I    between atoms: N_6  and  C_7 
REMARK    4  A    between atoms: C_7  and  C_8 
REMARK    5  A    between atoms: C_8  and  C_9 
REMARK    6  A    between atoms: C_9  and  C_10 
REMARK    7  A    between atoms: C_10  and  C_11 
REMARK    8  A    between atoms: C_11  and  C_12 
REMARK    9  A    between atoms: C_12  and  N_13 
REMARK   10  A    between atoms: N_13  and  C_14 
ROOT
HETATM    1  C   UNL     1      27.450  42.651  51.778  1.00  0.00     0.020 C 
ENDROOT
BRANCH   1   2
HETATM    2  C   UNL     1      26.122  43.407  51.657  1.00  0.00     0.002 C 
BRANCH   2   3
HETATM    3  C   UNL     1      26.299  44.876  51.271  1.00  0.00     0.009 C 
BRANCH   3   4
HETATM    4  C   UNL     1      25.191  45.751  51.851  1.00  0.00     0.103 C 
BRANCH   4   5
HETATM    5  C   UNL     1      24.892  46.909  50.924  1.00  0.00     0.217 C 
HETATM    6  N   UNL     1      23.858  46.677  50.049  1.00  0.00    -0.360 N 
HETATM    7  H   UNL     1      23.437  45.760  49.997  1.00  0.00     0.162 HD
HETATM    8  O   UNL     1      25.548  47.946  50.937  1.00  0.00    -0.274 OA
BRANCH   6   9
HETATM    9  C   UNL     1      23.512  47.634  49.010  1.00  0.00     0.142 C 
BRANCH   9  10
HETATM   10  C   UNL     1      22.006  47.927  48.960  1.00  0.00     0.142 C 
BRANCH  10  11
HETATM   11  N   UNL     1      21.667  49.285  49.362  1.00  0.00    -0.360 N 
HETATM   12  C   UNL     1      20.377  49.648  49.661  1.00  0.00     0.213 C 
HETATM   13  C   UNL     1      20.227  51.063  50.155  1.00  0.00     0.117 C 
HETATM   14  O   UNL     1      19.415  48.896  49.542  1.00  0.00    -0.274 OA
HETATM   15  H   UNL     1      22.430  49.915  49.576  1.00  0.00     0.162 HD
ENDBRANCH  10  11
ENDBRANCH   9  10
ENDBRANCH   6   9
ENDBRANCH   4   5
ENDBRANCH   3   4
ENDBRANCH   2   3
ENDBRANCH   1   2
BRANCH   1  16
HETATM   16  C   UNL     1      28.635  43.555  52.115  1.00  0.00     0.121 C 
BRANCH  16  17
HETATM   17  N   UNL     1      29.073  43.319  53.485  1.00  0.00    -0.374 N 
HETATM   18  H   UNL     1      29.886  42.719  53.556  1.00  0.00     0.161 HD
BRANCH  17  19
HETATM   19  C   UNL     1      28.960  44.314  54.441  1.00  0.00     0.139 A 
HETATM   20  N   UNL     1      28.074  45.256  54.280  1.00  0.00    -0.202 NA
HETATM   21  C   UNL     1      27.947  46.286  55.173  1.00  0.00     0.200 A 
HETATM   22  S   UNL     1      26.812  47.510  55.010  1.00  0.00    -0.039 SA
HETATM   23  N   UNL     1      28.791  46.352  56.249  1.00  0.00    -0.331 N 
HETATM   24  C   UNL     1      29.750  45.376  56.502  1.00  0.00     0.048 A 
HETATM   25  H   UNL     1      28.667  47.134  56.877  1.00  0.00     0.168 HD
HETATM   26  C   UNL     1      29.866  44.300  55.626  1.00  0.00     0.036 A 
HETATM   27  C   UNL     1      30.568  45.471  57.627  1.00  0.00     0.030 A 
HETATM   28  C   UNL     1      30.790  43.285  55.890  1.00  0.00     0.017 A 
HETATM   29  C   UNL     1      31.610  43.374  57.018  1.00  0.00     0.001 A 
HETATM   30  C   UNL     1      31.504  44.468  57.881  1.00  0.00     0.002 A 
ENDBRANCH  17  19
ENDBRANCH  16  17
ENDBRANCH   1  16
TORSDOF 10
ENDMDL
MODEL 3
REMARK VINA RESULT:      -7.8      4.436      5.609
REMARK  10 active torsions:
REMARK  status: ('A' for Active; 'I' for Inactive)
REMARK       I    between atoms: C_2  and  N_3 
REMARK    1  A    between atoms: N_3  and  C_4 
REMARK    2  A    between atoms: C_4  and  C_5 
REMARK    3  A    between atoms: C_5  and  N_6 
REMARK       I    between atoms: N_6  and  C_7 
REMARK    4  A    between atoms: C_7  and  C_8 
REMARK    5  A    between atoms: C_8  and  C_9 
REMARK    6  A    between atoms: C_9  and  C_10 
REMARK    7  A    between atoms: C_10  and  C_11 
REMARK    8  A    between atoms: C_11  and  C_12 
REMARK    9  A    between atoms: C_12  and  N_13 
REMARK   10  A    between atoms: N_13  and  C_14 
ROOT
HETATM    1  C   UNL     1      29.049  41.292  52.788  1.00  0.00     0.020 C 
ENDROOT
BRANCH   1   2
HETATM    2  C   UNL     1      28.418  40.463  51.664  1.00  0.00     0.002 C 
BRANCH   2   3
HETATM    3  C   UNL     1      27.939  41.312  50.486  1.00  0.00     0.009 C 
BRANCH   3   4
HETATM    4  C   UNL     1      26.523  40.935  50.055  1.00  0.00     0.103 C 
BRANCH   4   5
HETATM    5  C   UNL     1      25.760  42.165  49.613  1.00  0.00     0.217 C 
HETATM    6  N   UNL     1      24.404  41.976  49.499  1.00  0.00    -0.360 N 
HETATM    7  H   UNL     1      24.013  41.050  49.608  1.00  0.00     0.162 HD
HETATM    8  O   UNL     1      26.320  43.223  49.346  1.00  0.00    -0.274 OA
BRANCH   6   9
HETATM    9  C   UNL     1      23.532  43.014  48.973  1.00  0.00     0.142 C 
BRANCH   9  10
HETATM   10  C   UNL     1      22.902  43.868  50.082  1.00  0.00     0.142 C 
BRANCH  10  11
HETATM   11  N   UNL     1      23.705  45.026  50.448  1.00  0.00    -0.360 N 
HETATM   12  C   UNL     1      24.494  45.031  51.572  1.00  0.00     0.213 C 
HETATM   13  C   UNL     1      25.331  46.272  51.739  1.00  0.00     0.117 C 
HETATM   14  O   UNL     1      24.528  44.110  52.381  1.00  0.00    -0.274 OA
HETATM   15  H   UNL     1      23.795  45.768  49.765  1.00  0.00     0.162 HD
ENDBRANCH  10  11
ENDBRANCH   9  10
ENDBRANCH   6   9
ENDBRANCH   4   5
ENDBRANCH   3   4
ENDBRANCH   2   3
ENDBRANCH   1   2
BRANCH   1  16
HETATM   16  C   UNL     1      28.212  42.505  53.190  1.00  0.00     0.121 C 
BRANCH  16  17
HETATM   17  N   UNL     1      29.055  43.691  53.275  1.00  0.00    -0.374 N 
HETATM   18  H   UNL     1      29.285  44.094  52.375  1.00  0.00     0.161 HD
BRANCH  17  19
HETATM   19  C   UNL     1      28.913  44.581  54.327  1.00  0.00     0.139 A 
HETATM   20  N   UNL     1      28.025  45.531  54.244  1.00  0.00    -0.202 NA
HETATM   21  C   UNL     1      27.872  46.462  55.236  1.00  0.00     0.200 A 
HETATM   22  S   UNL     1      26.732  47.692  55.174  1.00  0.00    -0.039 SA
HETATM   23  N   UNL     1      28.691  46.419  56.332  1.00  0.00    -0.331 N 
HETATM   24  C   UNL     1      29.650  45.427  56.504  1.00  0.00     0.048 A 
HETATM   25  H   UNL     1      28.547  47.131  57.035  1.00  0.00     0.168 HD
HETATM   26  C   UNL     1      29.793  44.448  55.524  1.00  0.00     0.036 A 
HETATM   27  C   UNL     1      30.442  45.408  57.651  1.00  0.00     0.030 A 
HETATM   28  C   UNL     1      30.717  43.415  55.703  1.00  0.00     0.017 A 
HETATM   29  C   UNL     1      31.511  43.390  56.852  1.00  0.00     0.001 A 
HETATM   30  C   UNL     1      31.379  44.388  57.821  1.00  0.00     0.002 A 
ENDBRANCH  17  19
ENDBRANCH  16  17
ENDBRANCH   1  16
TORSDOF 10
ENDMDL
MODEL 4
REMARK VINA RESULT:      -7.7      2.305      3.448
REMARK  10 active torsions:
REMARK  status: ('A' for Active; 'I' for Inactive)
REMARK       I    between atoms: C_2  and  N_3 
REMARK    1  A    between atoms: N_3  and  C_4 
REMARK    2  A    between atoms: C_4  and  C_5 
REMARK    3  A    between atoms: C_5  and  N_6 
REMARK       I    between atoms: N_6  and  C_7 
REMARK    4  A    between atoms: C_7  and  C_8 
REMARK    5  A    between atoms: C_8  and  C_9 
REMARK    6  A    between atoms: C_9  and  C_10 
REMARK    7  A    between atoms: C_10  and  C_11 
REMARK    8  A    between atoms: C_11  and  C_12 
REMARK    9  A    between atoms: C_12  and  N_13 
REMARK   10  A    between atoms: N_13  and  C_14 
ROOT
HETATM    1  C   UNL     1      27.431  42.200  50.950  1.00  0.00     0.020 C 
ENDROOT
BRANCH   1   2
HETATM    2  C   UNL     1      26.042  41.614  50.672  1.00  0.00     0.002 C 
BRANCH   2   3
HETATM    3  C   UNL     1      25.035  42.657  50.185  1.00  0.00     0.009 C 
BRANCH   3   4
HETATM    4  C   UNL     1      24.916  43.826  51.158  1.00  0.00     0.103 C 
BRANCH   4   5
HETATM    5  C   UNL     1      25.201  45.133  50.452  1.00  0.00     0.217 C 
HETATM    6  N   UNL     1      24.201  46.068  50.570  1.00  0.00    -0.360 N 
HETATM    7  H   UNL     1      23.326  45.817  51.011  1.00  0.00     0.162 HD
HETATM    8  O   UNL     1      26.225  45.317  49.801  1.00  0.00    -0.274 OA
BRANCH   6   9
HETATM    9  C   UNL     1      24.254  47.335  49.858  1.00  0.00     0.142 C 
BRANCH   9  10
HETATM   10  C   UNL     1      23.087  47.506  48.877  1.00  0.00     0.142 C 
BRANCH  10  11
HETATM   11  N   UNL     1      22.405  48.787  49.006  1.00  0.00    -0.360 N 
HETATM   12  C   UNL     1      22.715  49.853  48.199  1.00  0.00     0.213 C 
HETATM   13  C   UNL     1      21.842  51.063  48.404  1.00  0.00     0.117 C 
HETATM   14  O   UNL     1      23.622  49.839  47.373  1.00  0.00    -0.274 OA
HETATM   15  H   UNL     1      21.583  48.822  49.596  1.00  0.00     0.162 HD
ENDBRANCH  10  11
ENDBRANCH   9  10
ENDBRANCH   6   9
ENDBRANCH   4   5
ENDBRANCH   3   4
ENDBRANCH   2   3
ENDBRANCH   1   2
BRANCH   1  16
HETATM   16  C   UNL     1      27.924  41.943  52.373  1.00  0.00     0.121 C 
BRANCH  16  17
HETATM   17  N   UNL     1      28.938  42.924  52.739  1.00  0.00    -0.374 N 
HETATM   18  H   UNL     1      29.580  43.148  51.988  1.00  0.00     0.161 HD
BRANCH  17  19
HETATM   19  C   UNL     1      28.637  43.954  53.615  1.00  0.00     0.139 A 
HETATM   20  N   UNL     1      27.646  44.754  53.342  1.00  0.00    -0.202 NA
HETATM   21  C   UNL     1      27.331  45.812  54.152  1.00  0.00     0.200 A 
HETATM   22  S   UNL     1      26.056  46.858  53.844  1.00  0.00    -0.039 SA
HETATM   23  N   UNL     1      28.093  46.061  55.262  1.00  0.00    -0.331 N 
HETATM   24  C   UNL     1      29.156  45.242  55.632  1.00  0.00     0.048 A 
HETATM   25  H   UNL     1      27.829  46.857  55.826  1.00  0.00     0.168 HD
HETATM   26  C   UNL     1      29.465  44.138  54.842  1.00  0.00     0.036 A 
HETATM   27  C   UNL     1      29.885  45.519  56.788  1.00  0.00     0.030 A 
HETATM   28  C   UNL     1      30.497  43.278  55.224  1.00  0.00     0.017 A 
HETATM   29  C   UNL     1      31.229  43.549  56.383  1.00  0.00     0.001 A 
HETATM   30  C   UNL     1      30.929  44.671  57.159  1.00  0.00     0.002 A 
ENDBRANCH  17  19
ENDBRANCH  16  17
ENDBRANCH   1  16
TORSDOF 10
ENDMDL
MODEL 5
REMARK VINA RESULT:      -7.6      3.472      4.916
REMARK  10 active torsions:
REMARK  status: ('A' for Active; 'I' for Inactive)
REMARK       I    between atoms: C_2  and  N_3 
REMARK    1  A    between atoms: N_3  and  C_4 
REMARK    2  A    between atoms: C_4  and  C_5 
REMARK    3  A    between atoms: C_5  and  N_6 
REMARK       I    between atoms: N_6  and  C_7 
REMARK    4  A    between atoms: C_7  and  C_8 
REMARK    5  A    between atoms: C_8  and  C_9 
REMARK    6  A    between atoms: C_9  and  C_10 
REMARK    7  A    between atoms: C_10  and  C_11 
REMARK    8  A    between atoms: C_11  and  C_12 
REMARK    9  A    between atoms: C_12  and  N_13 
REMARK   10  A    between atoms: N_13  and  C_14 
ROOT
HETATM    1  C   UNL     1      28.241  41.247  52.443  1.00  0.00     0.020 C 
ENDROOT
BRANCH   1   2
HETATM    2  C   UNL     1      27.971  42.277  51.339  1.00  0.00     0.002 C 
BRANCH   2   3
HETATM    3  C   UNL     1      26.983  41.782  50.282  1.00  0.00     0.009 C 
BRANCH   3   4
HETATM    4  C   UNL     1      25.539  42.101  50.663  1.00  0.00     0.103 C 
BRANCH   4   5
HETATM    5  C   UNL     1      25.116  43.425  50.066  1.00  0.00     0.217 C 
HETATM    6  N   UNL     1      24.926  44.425  50.990  1.00  0.00    -0.360 N 
HETATM    7  H   UNL     1      24.974  44.214  51.977  1.00  0.00     0.162 HD
HETATM    8  O   UNL     1      24.926  43.571  48.862  1.00  0.00    -0.274 OA
BRANCH   6   9
HETATM    9  C   UNL     1      24.405  45.727  50.606  1.00  0.00     0.142 C 
BRANCH   9  10
HETATM   10  C   UNL     1      25.162  46.883  51.276  1.00  0.00     0.142 C 
BRANCH  10  11
HETATM   11  N   UNL     1      26.329  47.322  50.526  1.00  0.00    -0.360 N 
HETATM   12  C   UNL     1      26.267  48.377  49.648  1.00  0.00     0.213 C 
HETATM   13  C   UNL     1      27.591  48.756  49.037  1.00  0.00     0.117 C 
HETATM   14  O   UNL     1      25.231  48.972  49.373  1.00  0.00    -0.274 OA
HETATM   15  H   UNL     1      27.228  46.937  50.789  1.00  0.00     0.162 HD
ENDBRANCH  10  11
ENDBRANCH   9  10
ENDBRANCH   6   9
ENDBRANCH   4   5
ENDBRANCH   3   4
ENDBRANCH   2   3
ENDBRANCH   1   2
BRANCH   1  16
HETATM   16  C   UNL     1      28.694  41.875  53.760  1.00  0.00     0.121 C 
BRANCH  16  17
HETATM   17  N   UNL     1      29.282  43.185  53.517  1.00  0.00    -0.374 N 
HETATM   18  H   UNL     1      29.319  43.441  52.538  1.00  0.00     0.161 HD
BRANCH  17  19
HETATM   19  C   UNL     1      29.088  44.222  54.415  1.00  0.00     0.139 A 
HETATM   20  N   UNL     1      28.185  45.126  54.159  1.00  0.00    -0.202 NA
HETATM   21  C   UNL     1      27.980  46.193  54.992  1.00  0.00     0.200 A 
HETATM   22  S   UNL     1      26.820  47.372  54.707  1.00  0.00    -0.039 SA
HETATM   23  N   UNL     1      28.762  46.339  56.106  1.00  0.00    -0.331 N 
HETATM   24  C   UNL     1      29.734  45.407  56.458  1.00  0.00     0.048 A 
HETATM   25  H   UNL     1      28.581  47.146  56.687  1.00  0.00     0.168 HD
HETATM   26  C   UNL     1      29.929  44.294  55.644  1.00  0.00     0.036 A 
HETATM   27  C   UNL     1      30.486  45.583  57.619  1.00  0.00     0.030 A 
HETATM   28  C   UNL     1      30.866  43.324  56.008  1.00  0.00     0.017 A 
HETATM   29  C   UNL     1      31.620  43.493  57.172  1.00  0.00     0.001 A 
HETATM   30  C   UNL     1      31.436  44.624  57.972  1.00  0.00     0.002 A 
ENDBRANCH  17  19
ENDBRANCH  16  17
ENDBRANCH   1  16
TORSDOF 10
ENDMDL
MODEL 6
REMARK VINA RESULT:      -7.4     11.669     12.897
REMARK  10 active torsions:
REMARK  status: ('A' for Active; 'I' for Inactive)
REMARK       I    between atoms: C_2  and  N_3 
REMARK    1  A    between atoms: N_3  and  C_4 
REMARK    2  A    between atoms: C_4  and  C_5 
REMARK    3  A    between atoms: C_5  and  N_6 
REMARK       I    between atoms: N_6  and  C_7 
REMARK    4  A    between atoms: C_7  and  C_8 
REMARK    5  A    between atoms: C_8  and  C_9 
REMARK    6  A    between atoms: C_9  and  C_10 
REMARK    7  A    between atoms: C_10  and  C_11 
REMARK    8  A    between atoms: C_11  and  C_12 
REMARK    9  A    between atoms: C_12  and  N_13 
REMARK   10  A    between atoms: N_13  and  C_14 
ROOT
HETATM    1  C   UNL     1      29.099  53.374  39.225  1.00  0.00     0.020 C 
ENDROOT
BRANCH   1   2
HETATM    2  C   UNL     1      28.288  52.090  39.430  1.00  0.00     0.002 C 
BRANCH   2   3
HETATM    3  C   UNL     1      27.766  51.929  40.858  1.00  0.00     0.009 C 
BRANCH   3   4
HETATM    4  C   UNL     1      27.678  50.461  41.267  1.00  0.00     0.103 C 
BRANCH   4   5
HETATM    5  C   UNL     1      27.074  49.637  40.150  1.00  0.00     0.217 C 
HETATM    6  N   UNL     1      25.834  50.065  39.741  1.00  0.00    -0.360 N 
HETATM    7  H   UNL     1      25.365  50.805  40.246  1.00  0.00     0.162 HD
HETATM    8  O   UNL     1      27.637  48.651  39.685  1.00  0.00    -0.274 OA
BRANCH   6   9
HETATM    9  C   UNL     1      25.057  49.323  38.762  1.00  0.00     0.142 C 
BRANCH   9  10
HETATM   10  C   UNL     1      23.705  49.984  38.462  1.00  0.00     0.142 C 
BRANCH  10  11
HETATM   11  N   UNL     1      23.000  50.428  39.656  1.00  0.00    -0.360 N 
HETATM   12  C   UNL     1      21.711  50.898  39.600  1.00  0.00     0.213 C 
HETATM   13  C   UNL     1      21.106  51.218  40.941  1.00  0.00     0.117 C 
HETATM   14  O   UNL     1      21.088  51.049  38.554  1.00  0.00    -0.274 OA
HETATM   15  H   UNL     1      23.426  50.229  40.553  1.00  0.00     0.162 HD
ENDBRANCH  10  11
ENDBRANCH   9  10
ENDBRANCH   6   9
ENDBRANCH   4   5
ENDBRANCH   3   4
ENDBRANCH   2   3
ENDBRANCH   1   2
BRANCH   1  16
HETATM   16  C   UNL     1      30.135  53.619  40.322  1.00  0.00     0.121 C 
BRANCH  16  17
HETATM   17  N   UNL     1      31.299  52.768  40.113  1.00  0.00    -0.374 N 
HETATM   18  H   UNL     1      32.049  53.219  39.605  1.00  0.00     0.161 HD
BRANCH  17  19
HETATM   19  C   UNL     1      31.678  51.845  41.074  1.00  0.00     0.139 A 
HETATM   20  N   UNL     1      32.103  52.267  42.231  1.00  0.00    -0.202 NA
HETATM   21  C   UNL     1      32.528  51.400  43.202  1.00  0.00     0.200 A 
HETATM   22  S   UNL     1      33.070  51.901  44.709  1.00  0.00    -0.039 SA
HETATM   23  N   UNL     1      32.540  50.055  42.945  1.00  0.00    -0.331 N 
HETATM   24  C   UNL     1      32.085  49.525  41.743  1.00  0.00     0.048 A 
HETATM   25  H   UNL     1      32.870  49.454  43.688  1.00  0.00     0.168 HD
HETATM   26  C   UNL     1      31.611  50.389  40.759  1.00  0.00     0.036 A 
HETATM   27  C   UNL     1      32.090  48.145  41.539  1.00  0.00     0.030 A 
HETATM   28  C   UNL     1      31.104  49.870  39.565  1.00  0.00     0.017 A 
HETATM   29  C   UNL     1      31.104  48.489  39.356  1.00  0.00     0.001 A 
HETATM   30  C   UNL     1      31.602  47.629  40.337  1.00  0.00     0.002 A 
ENDBRANCH  17  19
ENDBRANCH  16  17
ENDBRANCH   1  16
TORSDOF 10
ENDMDL
MODEL 7
REMARK VINA RESULT:      -7.4      2.330      2.918
REMARK  10 active torsions:
REMARK  status: ('A' for Active; 'I' for Inactive)
REMARK       I    between atoms: C_2  and  N_3 
REMARK    1  A    between atoms: N_3  and  C_4 
REMARK    2  A    between atoms: C_4  and  C_5 
REMARK    3  A    between atoms: C_5  and  N_6 
REMARK       I    between atoms: N_6  and  C_7 
REMARK    4  A    between atoms: C_7  and  C_8 
REMARK    5  A    between atoms: C_8  and  C_9 
REMARK    6  A    between atoms: C_9  and  C_10 
REMARK    7  A    between atoms: C_10  and  C_11 
REMARK    8  A    between atoms: C_11  and  C_12 
REMARK    9  A    between atoms: C_12  and  N_13 
REMARK   10  A    between atoms: N_13  and  C_14 
ROOT
HETATM    1  C   UNL     1      25.071  45.776  51.301  1.00  0.00     0.020 C 
ENDROOT
BRANCH   1   2
HETATM    2  C   UNL     1      25.229  46.510  49.964  1.00  0.00     0.002 C 
BRANCH   2   3
HETATM    3  C   UNL     1      24.348  47.756  49.854  1.00  0.00     0.009 C 
BRANCH   3   4
HETATM    4  C   UNL     1      25.035  48.867  49.064  1.00  0.00     0.103 C 
BRANCH   4   5
HETATM    5  C   UNL     1      24.007  49.793  48.452  1.00  0.00     0.217 C 
HETATM    6  N   UNL     1      22.935  50.063  49.269  1.00  0.00    -0.360 N 
HETATM    7  H   UNL     1      22.837  49.576  50.149  1.00  0.00     0.162 HD
HETATM    8  O   UNL     1      24.113  50.229  47.310  1.00  0.00    -0.274 OA
BRANCH   6   9
HETATM    9  C   UNL     1      21.797  50.838  48.800  1.00  0.00     0.142 C 
BRANCH   9  10
HETATM   10  C   UNL     1      20.520  49.995  48.686  1.00  0.00     0.142 C 
BRANCH  10  11
HETATM   11  N   UNL     1      19.297  50.781  48.775  1.00  0.00    -0.360 N 
HETATM   12  C   UNL     1      18.492  50.737  49.886  1.00  0.00     0.213 C 
HETATM   13  C   UNL     1      17.325  51.689  49.846  1.00  0.00     0.117 C 
HETATM   14  O   UNL     1      18.690  49.993  50.840  1.00  0.00    -0.274 OA
HETATM   15  H   UNL     1      19.141  51.486  48.066  1.00  0.00     0.162 HD
ENDBRANCH  10  11
ENDBRANCH   9  10
ENDBRANCH   6   9
ENDBRANCH   4   5
ENDBRANCH   3   4
ENDBRANCH   2   3
ENDBRANCH   1   2
BRANCH   1  16
HETATM   16  C   UNL     1      26.156  46.128  52.318  1.00  0.00     0.121 C 
BRANCH  16  17
HETATM   17  N   UNL     1      26.262  45.079  53.323  1.00  0.00    -0.374 N 
HETATM   18  H   UNL     1      25.368  44.733  53.649  1.00  0.00     0.161 HD
BRANCH  17  19
HETATM   19  C   UNL     1      27.294  44.157  53.272  1.00  0.00     0.139 A 
HETATM   20  N   UNL     1      27.231  43.176  52.417  1.00  0.00    -0.202 NA
HETATM   21  C   UNL     1      28.203  42.214  52.353  1.00  0.00     0.200 A 
HETATM   22  S   UNL     1      28.166  40.942  51.258  1.00  0.00    -0.039 SA
HETATM   23  N   UNL     1      29.255  42.259  53.228  1.00  0.00    -0.331 N 
HETATM   24  C   UNL     1      29.404  43.283  54.157  1.00  0.00     0.048 A 
HETATM   25  H   UNL     1      29.944  41.523  53.149  1.00  0.00     0.168 HD
HETATM   26  C   UNL     1      28.446  44.292  54.210  1.00  0.00     0.036 A 
HETATM   27  C   UNL     1      30.508  43.302  55.008  1.00  0.00     0.030 A 
HETATM   28  C   UNL     1      28.605  45.355  55.103  1.00  0.00     0.017 A 
HETATM   29  C   UNL     1      29.711  45.380  55.957  1.00  0.00     0.001 A 
HETATM   30  C   UNL     1      30.656  44.353  55.915  1.00  0.00     0.002 A 
ENDBRANCH  17  19
ENDBRANCH  16  17
ENDBRANCH   1  16
TORSDOF 10
ENDMDL
MODEL 8
REMARK VINA RESULT:      -7.2      5.591      8.633
REMARK  10 active torsions:
REMARK  status: ('A' for Active; 'I' for Inactive)
REMARK       I    between atoms: C_2  and  N_3 
REMARK    1  A    between atoms: N_3  and  C_4 
REMARK    2  A    between atoms: C_4  and  C_5 
REMARK    3  A    between atoms: C_5  and  N_6 
REMARK       I    between atoms: N_6  and  C_7 
REMARK    4  A    between atoms: C_7  and  C_8 
REMARK    5  A    between atoms: C_8  and  C_9 
REMARK    6  A    between atoms: C_9  and  C_10 
REMARK    7  A    between atoms: C_10  and  C_11 
REMARK    8  A    between atoms: C_11  and  C_12 
REMARK    9  A    between atoms: C_12  and  N_13 
REMARK   10  A    between atoms: N_13  and  C_14 
ROOT
HETATM    1  C   UNL     1      26.475  44.129  50.219  1.00  0.00     0.020 C 
ENDROOT
BRANCH   1   2
HETATM    2  C   UNL     1      25.423  43.029  50.396  1.00  0.00     0.002 C 
BRANCH   2   3
HETATM    3  C   UNL     1      25.819  41.705  49.740  1.00  0.00     0.009 C 
BRANCH   3   4
HETATM    4  C   UNL     1      27.332  41.587  49.573  1.00  0.00     0.103 C 
BRANCH   4   5
HETATM    5  C   UNL     1      27.913  40.695  50.649  1.00  0.00     0.217 C 
HETATM    6  N   UNL     1      28.985  39.940  50.237  1.00  0.00    -0.360 N 
HETATM    7  H   UNL     1      29.254  39.937  49.263  1.00  0.00     0.162 HD
HETATM    8  O   UNL     1      27.436  40.633  51.778  1.00  0.00    -0.274 OA
BRANCH   6   9
HETATM    9  C   UNL     1      29.591  38.943  51.104  1.00  0.00     0.142 C 
BRANCH   9  10
HETATM   10  C   UNL     1      29.607  37.545  50.470  1.00  0.00     0.142 C 
BRANCH  10  11
HETATM   11  N   UNL     1      28.279  37.045  50.139  1.00  0.00    -0.360 N 
HETATM   12  C   UNL     1      27.742  37.201  48.885  1.00  0.00     0.213 C 
HETATM   13  C   UNL     1      26.405  36.535  48.695  1.00  0.00     0.117 C 
HETATM   14  O   UNL     1      28.290  37.826  47.984  1.00  0.00    -0.274 OA
HETATM   15  H   UNL     1      27.829  36.435  50.809  1.00  0.00     0.162 HD
ENDBRANCH  10  11
ENDBRANCH   9  10
ENDBRANCH   6   9
ENDBRANCH   4   5
ENDBRANCH   3   4
ENDBRANCH   2   3
ENDBRANCH   1   2
BRANCH   1  16
HETATM   16  C   UNL     1      26.533  45.107  51.392  1.00  0.00     0.121 C 
BRANCH  16  17
HETATM   17  N   UNL     1      26.961  44.416  52.601  1.00  0.00    -0.374 N 
HETATM   18  H   UNL     1      27.406  43.524  52.427  1.00  0.00     0.161 HD
BRANCH  17  19
HETATM   19  C   UNL     1      27.426  45.130  53.693  1.00  0.00     0.139 A 
HETATM   20  N   UNL     1      26.810  46.222  54.050  1.00  0.00    -0.202 NA
HETATM   21  C   UNL     1      27.252  46.988  55.095  1.00  0.00     0.200 A 
HETATM   22  S   UNL     1      26.481  48.392  55.596  1.00  0.00    -0.039 SA
HETATM   23  N   UNL     1      28.388  46.621  55.767  1.00  0.00    -0.331 N 
HETATM   24  C   UNL     1      29.091  45.461  55.458  1.00  0.00     0.048 A 
HETATM   25  H   UNL     1      28.681  47.221  56.525  1.00  0.00     0.168 HD
HETATM   26  C   UNL     1      28.633  44.649  54.424  1.00  0.00     0.036 A 
HETATM   27  C   UNL     1      30.226  45.114  56.189  1.00  0.00     0.030 A 
HETATM   28  C   UNL     1      29.299  43.455  54.133  1.00  0.00     0.017 A 
HETATM   29  C   UNL     1      30.436  43.101  54.864  1.00  0.00     0.001 A 
HETATM   30  C   UNL     1      30.902  43.932  55.885  1.00  0.00     0.002 A 
ENDBRANCH  17  19
ENDBRANCH  16  17
ENDBRANCH   1  16
TORSDOF 10
ENDMDL
MODEL 9
REMARK VINA RESULT:      -7.2     12.579     13.804
REMARK  10 active torsions:
REMARK  status: ('A' for Active; 'I' for Inactive)
REMARK       I    between atoms: C_2  and  N_3 
REMARK    1  A    between atoms: N_3  and  C_4 
REMARK    2  A    between atoms: C_4  and  C_5 
REMARK    3  A    between atoms: C_5  and  N_6 
REMARK       I    between atoms: N_6  and  C_7 
REMARK    4  A    between atoms: C_7  and  C_8 
REMARK    5  A    between atoms: C_8  and  C_9 
REMARK    6  A    between atoms: C_9  and  C_10 
REMARK    7  A    between atoms: C_10  and  C_11 
REMARK    8  A    between atoms: C_11  and  C_12 
REMARK    9  A    between atoms: C_12  and  N_13 
REMARK   10  A    between atoms: N_13  and  C_14 
ROOT
HETATM    1  C   UNL     1      29.570  53.307  40.572  1.00  0.00     0.020 C 
ENDROOT
BRANCH   1   2
HETATM    2  C   UNL     1      29.069  53.556  39.145  1.00  0.00     0.002 C 
BRANCH   2   3
HETATM    3  C   UNL     1      28.515  52.298  38.474  1.00  0.00     0.009 C 
BRANCH   3   4
HETATM    4  C   UNL     1      27.906  51.335  39.490  1.00  0.00     0.103 C 
BRANCH   4   5
HETATM    5  C   UNL     1      26.909  50.418  38.817  1.00  0.00     0.217 C 
HETATM    6  N   UNL     1      25.837  50.075  39.606  1.00  0.00    -0.360 N 
HETATM    7  H   UNL     1      25.818  50.351  40.578  1.00  0.00     0.162 HD
HETATM    8  O   UNL     1      27.073  49.993  37.677  1.00  0.00    -0.274 OA
BRANCH   6   9
HETATM    9  C   UNL     1      24.844  49.109  39.163  1.00  0.00     0.142 C 
BRANCH   9  10
HETATM   10  C   UNL     1      24.897  47.803  39.967  1.00  0.00     0.142 C 
BRANCH  10  11
HETATM   11  N   UNL     1      25.978  46.916  39.562  1.00  0.00    -0.360 N 
HETATM   12  C   UNL     1      27.202  46.940  40.185  1.00  0.00     0.213 C 
HETATM   13  C   UNL     1      28.166  45.888  39.704  1.00  0.00     0.117 C 
HETATM   14  O   UNL     1      27.501  47.742  41.063  1.00  0.00    -0.274 OA
HETATM   15  H   UNL     1      25.755  46.169  38.918  1.00  0.00     0.162 HD
ENDBRANCH  10  11
ENDBRANCH   9  10
ENDBRANCH   6   9
ENDBRANCH   4   5
ENDBRANCH   3   4
ENDBRANCH   2   3
ENDBRANCH   1   2
BRANCH   1  16
HETATM   16  C   UNL     1      31.046  53.654  40.766  1.00  0.00     0.121 C 
BRANCH  16  17
HETATM   17  N   UNL     1      31.885  52.700  40.052  1.00  0.00    -0.374 N 
HETATM   18  H   UNL     1      32.308  53.076  39.213  1.00  0.00     0.161 HD
BRANCH  17  19
HETATM   19  C   UNL     1      32.628  51.759  40.745  1.00  0.00     0.139 A 
HETATM   20  N   UNL     1      33.652  52.148  41.449  1.00  0.00    -0.202 NA
HETATM   21  C   UNL     1      34.445  51.256  42.120  1.00  0.00     0.200 A 
HETATM   22  S   UNL     1      35.765  51.717  43.048  1.00  0.00    -0.039 SA
HETATM   23  N   UNL     1      34.180  49.916  42.028  1.00  0.00    -0.331 N 
HETATM   24  C   UNL     1      33.094  49.422  41.312  1.00  0.00     0.048 A 
HETATM   25  H   UNL     1      34.796  49.295  42.533  1.00  0.00     0.168 HD
HETATM   26  C   UNL     1      32.253  50.318  40.656  1.00  0.00     0.036 A 
HETATM   27  C   UNL     1      32.847  48.051  41.271  1.00  0.00     0.030 A 
HETATM   28  C   UNL     1      31.130  49.843  39.974  1.00  0.00     0.017 A 
HETATM   29  C   UNL     1      30.876  48.470  39.931  1.00  0.00     0.001 A 
HETATM   30  C   UNL     1      31.736  47.575  40.572  1.00  0.00     0.002 A 
ENDBRANCH  17  19
ENDBRANCH  16  17
ENDBRANCH   1  16
TORSDOF 10
ENDMDL
MODEL 10
REMARK VINA RESULT:      -7.1      2.267      2.414
REMARK  10 active torsions:
REMARK  status: ('A' for Active; 'I' for Inactive)
REMARK       I    between atoms: C_2  and  N_3 
REMARK    1  A    between atoms: N_3  and  C_4 
REMARK    2  A    between atoms: C_4  and  C_5 
REMARK    3  A    between atoms: C_5  and  N_6 
REMARK       I    between atoms: N_6  and  C_7 
REMARK    4  A    between atoms: C_7  and  C_8 
REMARK    5  A    between atoms: C_8  and  C_9 
REMARK    6  A    between atoms: C_9  and  C_10 
REMARK    7  A    between atoms: C_10  and  C_11 
REMARK    8  A    between atoms: C_11  and  C_12 
REMARK    9  A    between atoms: C_12  and  N_13 
REMARK   10  A    between atoms: N_13  and  C_14 
ROOT
HETATM    1  C   UNL     1      26.588  45.224  50.726  1.00  0.00     0.020 C 
ENDROOT
BRANCH   1   2
HETATM    2  C   UNL     1      25.605  45.560  49.598  1.00  0.00     0.002 C 
BRANCH   2   3
HETATM    3  C   UNL     1      25.394  47.063  49.411  1.00  0.00     0.009 C 
BRANCH   3   4
HETATM    4  C   UNL     1      24.112  47.544  50.086  1.00  0.00     0.103 C 
BRANCH   4   5
HETATM    5  C   UNL     1      23.257  48.317  49.106  1.00  0.00     0.217 C 
HETATM    6  N   UNL     1      21.955  48.491  49.509  1.00  0.00    -0.360 N 
HETATM    7  H   UNL     1      21.621  48.032  50.345  1.00  0.00     0.162 HD
HETATM    8  O   UNL     1      23.691  48.716  48.029  1.00  0.00    -0.274 OA
BRANCH   6   9
HETATM    9  C   UNL     1      20.965  49.107  48.640  1.00  0.00     0.142 C 
BRANCH   9  10
HETATM   10  C   UNL     1      20.094  48.071  47.917  1.00  0.00     0.142 C 
BRANCH  10  11
HETATM   11  N   UNL     1      18.687  48.137  48.286  1.00  0.00    -0.360 N 
HETATM   12  C   UNL     1      17.913  47.008  48.382  1.00  0.00     0.213 C 
HETATM   13  C   UNL     1      16.510  47.255  48.872  1.00  0.00     0.117 C 
HETATM   14  O   UNL     1      18.312  45.884  48.096  1.00  0.00    -0.274 OA
HETATM   15  H   UNL     1      18.335  49.021  48.631  1.00  0.00     0.162 HD
ENDBRANCH  10  11
ENDBRANCH   9  10
ENDBRANCH   6   9
ENDBRANCH   4   5
ENDBRANCH   3   4
ENDBRANCH   2   3
ENDBRANCH   1   2
BRANCH   1  16
HETATM   16  C   UNL     1      25.903  44.736  52.002  1.00  0.00     0.121 C 
BRANCH  16  17
HETATM   17  N   UNL     1      26.892  44.207  52.932  1.00  0.00    -0.374 N 
HETATM   18  H   UNL     1      27.528  43.539  52.516  1.00  0.00     0.161 HD
BRANCH  17  19
HETATM   19  C   UNL     1      27.414  45.008  53.934  1.00  0.00     0.139 A 
HETATM   20  N   UNL     1      26.812  46.123  54.239  1.00  0.00    -0.202 NA
HETATM   21  C   UNL     1      27.307  46.971  55.192  1.00  0.00     0.200 A 
HETATM   22  S   UNL     1      26.556  48.408  55.623  1.00  0.00    -0.039 SA
HETATM   23  N   UNL     1      28.483  46.663  55.824  1.00  0.00    -0.331 N 
HETATM   24  C   UNL     1      29.175  45.484  55.569  1.00  0.00     0.048 A 
HETATM   25  H   UNL     1      28.814  47.322  56.514  1.00  0.00     0.168 HD
HETATM   26  C   UNL     1      28.665  44.590  54.631  1.00  0.00     0.036 A 
HETATM   27  C   UNL     1      30.353  45.200  56.258  1.00  0.00     0.030 A 
HETATM   28  C   UNL     1      29.321  43.378  54.398  1.00  0.00     0.017 A 
HETATM   29  C   UNL     1      30.501  43.087  55.088  1.00  0.00     0.001 A 
HETATM   30  C   UNL     1      31.020  43.999  56.010  1.00  0.00     0.002 A 
ENDBRANCH  17  19
ENDBRANCH  16  17
ENDBRANCH   1  16
TORSDOF 10
ENDMDL
