MODEL 1
REMARK VINA RESULT:      -8.0      0.000      0.000
REMARK  14 active torsions:
REMARK  status: ('A' for Active; 'I' for Inactive)
REMARK    1  A    between atoms: C_2  and  O_3 
REMARK    2  A    between atoms: O_3  and  C_4 
REMARK    3  A    between atoms: C_5  and  O_6 
REMARK    4  A    between atoms: C_9  and  C_10 
REMARK    5  A    between atoms: N_11  and  C_12 
REMARK    6  A    between atoms: C_12  and  C_13 
REMARK    7  A    between atoms: C_13  and  C_14 
REMARK    8  A    between atoms: C_14  and  N_15 
REMARK    9  A    between atoms: C_24  and  O_25 
REMARK   10  A    between atoms: C_26  and  C_27 
REMARK   11  A    between atoms: C_27  and  C_28 
REMARK   12  A    between atoms: C_32  and  O_33 
REMARK   13  A    between atoms: O_33  and  C_34 
REMARK   14  A    between atoms: C_34  and  C_35 
ROOT
HETATM    1  C   UNL     1      23.200  47.751  49.434  1.00  0.00     0.161 C 
HETATM    2  N   UNL     1      24.388  46.938  49.697  1.00  0.00    -0.333 N 
HETATM    3  C   UNL     1      25.537  47.690  49.534  1.00  0.00     0.278 C 
HETATM    4  O   UNL     1      26.685  47.361  49.773  1.00  0.00    -0.265 OA
HETATM    5  C   UNL     1      25.150  48.984  48.946  1.00  0.00     0.146 C 
HETATM    6  C   UNL     1      23.815  48.990  48.861  1.00  0.00     0.059 C 
ENDROOT
BRANCH   6   7
HETATM    7  C   UNL     1      23.087  50.024  48.102  1.00  0.00     0.193 C 
HETATM    8  O   UNL     1      23.575  50.502  47.083  1.00  0.00    -0.287 OA
BRANCH   7   9
HETATM    9  C   UNL     1      21.705  50.393  48.493  1.00  0.00     0.015 A 
HETATM   10  C   UNL     1      20.724  50.381  47.493  1.00  0.00     0.025 A 
HETATM   11  C   UNL     1      19.398  50.727  47.785  1.00  0.00    -0.028 A 
HETATM   12  C   UNL     1      18.368  50.717  46.687  1.00  0.00     0.051 C 
HETATM   13  C   UNL     1      19.047  51.081  49.099  1.00  0.00     0.074 A 
HETATM   14  C   UNL     1      20.031  51.109  50.093  1.00  0.00     0.038 A 
HETATM   15  C   UNL     1      21.359  50.777  49.791  1.00  0.00     0.018 A 
BRANCH  13  16
HETATM   16  O   UNL     1      17.728  51.383  49.285  1.00  0.00    -0.350 OA
BRANCH  16  17
HETATM   17  C   UNL     1      17.386  52.622  49.901  1.00  0.00     0.179 C 
BRANCH  17  18
HETATM   18  C   UNL     1      15.863  52.821  49.832  1.00  0.00     0.002 C 
HETATM   19  C   UNL     1      15.455  54.171  50.426  1.00  0.00     0.011 C 
HETATM   20  C   UNL     1      15.346  52.708  48.396  1.00  0.00     0.011 C 
ENDBRANCH  17  18
ENDBRANCH  16  17
ENDBRANCH  13  16
ENDBRANCH   7   9
ENDBRANCH   6   7
BRANCH   1  21
HETATM   21  C   UNL     1      22.174  47.075  48.553  1.00  0.00    -0.028 A 
HETATM   22  C   UNL     1      22.506  46.553  47.291  1.00  0.00     0.012 A 
HETATM   23  C   UNL     1      21.525  45.973  46.487  1.00  0.00     0.040 A 
HETATM   24  C   UNL     1      20.207  45.948  46.926  1.00  0.00     0.099 A 
HETATM   25  C   UNL     1      19.837  46.499  48.153  1.00  0.00     0.102 A 
HETATM   26  C   UNL     1      20.829  47.031  48.977  1.00  0.00     0.049 A 
BRANCH  24  27
HETATM   27  O   UNL     1      19.267  45.389  46.107  1.00  0.00    -0.358 OA
HETATM   28  H   UNL     1      19.768  44.973  45.378  1.00  0.00     0.218 HD
ENDBRANCH  24  27
BRANCH  25  29
HETATM   29  O   UNL     1      18.498  46.460  48.442  1.00  0.00    -0.349 OA
BRANCH  29  30
HETATM   30  C   UNL     1      17.954  47.632  49.055  1.00  0.00     0.171 C 
HETATM   31  C   UNL     1      16.584  47.896  48.458  1.00  0.00     0.034 C 
ENDBRANCH  29  30
ENDBRANCH  25  29
ENDBRANCH   1  21
BRANCH   5  32
HETATM   32  O   UNL     1      26.045  49.925  48.544  1.00  0.00    -0.355 OA
HETATM   33  H   UNL     1      26.930  49.630  48.835  1.00  0.00     0.218 HD
ENDBRANCH   5  32
BRANCH   2  34
HETATM   34  C   UNL     1      24.366  45.697  50.459  1.00  0.00     0.129 C 
BRANCH  34  35
HETATM   35  C   UNL     1      24.831  45.832  51.910  1.00  0.00     0.048 C 
BRANCH  35  36
HETATM   36  C   UNL     1      26.060  45.023  52.335  1.00  0.00     0.236 C 
BRANCH  36  37
HETATM   37  N   UNL     1      26.987  45.663  53.345  1.00  0.00    -0.067 N 
HETATM   38  H   UNL     1      27.774  46.003  52.775  1.00  0.00     0.280 HD
HETATM   39  C   UNL     1      26.449  46.920  54.019  1.00  0.00     0.261 C 
HETATM   40  C   UNL     1      27.565  47.572  54.849  1.00  0.00     0.195 C 
HETATM   41  O   UNL     1      28.107  46.651  55.803  1.00  0.00    -0.388 OA
HETATM   42  C   UNL     1      28.673  45.497  55.171  1.00  0.00     0.195 C 
HETATM   43  C   UNL     1      27.608  44.732  54.375  1.00  0.00     0.261 C 
ENDBRANCH  36  37
ENDBRANCH  35  36
ENDBRANCH  34  35
ENDBRANCH   2  34
TORSDOF 14
ENDMDL
MODEL 2
REMARK VINA RESULT:      -7.9      2.023      2.674
REMARK  14 active torsions:
REMARK  status: ('A' for Active; 'I' for Inactive)
REMARK    1  A    between atoms: C_2  and  O_3 
REMARK    2  A    between atoms: O_3  and  C_4 
REMARK    3  A    between atoms: C_5  and  O_6 
REMARK    4  A    between atoms: C_9  and  C_10 
REMARK    5  A    between atoms: N_11  and  C_12 
REMARK    6  A    between atoms: C_12  and  C_13 
REMARK    7  A    between atoms: C_13  and  C_14 
REMARK    8  A    between atoms: C_14  and  N_15 
REMARK    9  A    between atoms: C_24  and  O_25 
REMARK   10  A    between atoms: C_26  and  C_27 
REMARK   11  A    between atoms: C_27  and  C_28 
REMARK   12  A    between atoms: C_32  and  O_33 
REMARK   13  A    between atoms: O_33  and  C_34 
REMARK   14  A    between atoms: C_34  and  C_35 
ROOT
HETATM    1  C   UNL     1      23.096  47.828  49.460  1.00  0.00     0.161 C 
HETATM    2  N   UNL     1      24.260  46.993  49.759  1.00  0.00    -0.333 N 
HETATM    3  C   UNL     1      25.430  47.713  49.594  1.00  0.00     0.278 C 
HETATM    4  O   UNL     1      26.566  47.361  49.858  1.00  0.00    -0.265 OA
HETATM    5  C   UNL     1      25.083  49.001  48.970  1.00  0.00     0.146 C 
HETATM    6  C   UNL     1      23.750  49.038  48.866  1.00  0.00     0.059 C 
ENDROOT
BRANCH   6   7
HETATM    7  C   UNL     1      23.059  50.070  48.073  1.00  0.00     0.193 C 
HETATM    8  O   UNL     1      23.591  50.541  47.071  1.00  0.00    -0.287 OA
BRANCH   7   9
HETATM    9  C   UNL     1      21.664  50.449  48.404  1.00  0.00     0.015 A 
HETATM   10  C   UNL     1      20.714  50.388  47.377  1.00  0.00     0.025 A 
HETATM   11  C   UNL     1      19.378  50.739  47.613  1.00  0.00    -0.028 A 
HETATM   12  C   UNL     1      18.382  50.674  46.486  1.00  0.00     0.051 C 
HETATM   13  C   UNL     1      18.986  51.147  48.898  1.00  0.00     0.074 A 
HETATM   14  C   UNL     1      19.939  51.224  49.920  1.00  0.00     0.038 A 
HETATM   15  C   UNL     1      21.277  50.887  49.673  1.00  0.00     0.018 A 
BRANCH  13  16
HETATM   16  O   UNL     1      17.660  51.449  49.031  1.00  0.00    -0.350 OA
BRANCH  16  17
HETATM   17  C   UNL     1      17.284  52.544  49.862  1.00  0.00     0.179 C 
BRANCH  17  18
HETATM   18  C   UNL     1      15.945  53.119  49.372  1.00  0.00     0.002 C 
HETATM   19  C   UNL     1      15.461  52.394  48.114  1.00  0.00     0.011 C 
HETATM   20  C   UNL     1      14.871  53.046  50.459  1.00  0.00     0.011 C 
ENDBRANCH  17  18
ENDBRANCH  16  17
ENDBRANCH  13  16
ENDBRANCH   7   9
ENDBRANCH   6   7
BRANCH   1  21
HETATM   21  C   UNL     1      22.066  47.157  48.581  1.00  0.00    -0.028 A 
HETATM   22  C   UNL     1      22.388  46.655  47.308  1.00  0.00     0.012 A 
HETATM   23  C   UNL     1      21.403  46.078  46.507  1.00  0.00     0.040 A 
HETATM   24  C   UNL     1      20.090  46.037  46.960  1.00  0.00     0.099 A 
HETATM   25  C   UNL     1      19.729  46.569  48.198  1.00  0.00     0.102 A 
HETATM   26  C   UNL     1      20.726  47.098  49.019  1.00  0.00     0.049 A 
BRANCH  24  27
HETATM   27  O   UNL     1      19.145  45.483  46.143  1.00  0.00    -0.358 OA
HETATM   28  H   UNL     1      19.613  45.260  45.314  1.00  0.00     0.218 HD
ENDBRANCH  24  27
BRANCH  25  29
HETATM   29  O   UNL     1      18.394  46.516  48.500  1.00  0.00    -0.349 OA
BRANCH  29  30
HETATM   30  C   UNL     1      17.833  47.700  49.075  1.00  0.00     0.171 C 
HETATM   31  C   UNL     1      16.528  48.008  48.365  1.00  0.00     0.034 C 
ENDBRANCH  29  30
ENDBRANCH  25  29
ENDBRANCH   1  21
BRANCH   5  32
HETATM   32  O   UNL     1      26.007  49.910  48.559  1.00  0.00    -0.355 OA
HETATM   33  H   UNL     1      25.814  50.121  47.625  1.00  0.00     0.218 HD
ENDBRANCH   5  32
BRANCH   2  34
HETATM   34  C   UNL     1      24.197  45.772  50.550  1.00  0.00     0.129 C 
BRANCH  34  35
HETATM   35  C   UNL     1      24.410  44.484  49.752  1.00  0.00     0.048 C 
BRANCH  35  36
HETATM   36  C   UNL     1      23.999  43.167  50.417  1.00  0.00     0.236 C 
BRANCH  36  37
HETATM   37  N   UNL     1      25.111  42.210  50.786  1.00  0.00    -0.067 N 
HETATM   38  H   UNL     1      24.730  41.691  51.590  1.00  0.00     0.280 HD
HETATM   39  C   UNL     1      25.409  41.127  49.755  1.00  0.00     0.261 C 
HETATM   40  C   UNL     1      26.399  40.115  50.348  1.00  0.00     0.195 C 
HETATM   41  O   UNL     1      27.596  40.762  50.798  1.00  0.00    -0.388 OA
HETATM   42  C   UNL     1      27.329  41.735  51.815  1.00  0.00     0.195 C 
HETATM   43  C   UNL     1      26.403  42.837  51.287  1.00  0.00     0.261 C 
ENDBRANCH  36  37
ENDBRANCH  35  36
ENDBRANCH  34  35
ENDBRANCH   2  34
TORSDOF 14
ENDMDL
MODEL 3
REMARK VINA RESULT:      -7.6      9.791     14.251
REMARK  14 active torsions:
REMARK  status: ('A' for Active; 'I' for Inactive)
REMARK    1  A    between atoms: C_2  and  O_3 
REMARK    2  A    between atoms: O_3  and  C_4 
REMARK    3  A    between atoms: C_5  and  O_6 
REMARK    4  A    between atoms: C_9  and  C_10 
REMARK    5  A    between atoms: N_11  and  C_12 
REMARK    6  A    between atoms: C_12  and  C_13 
REMARK    7  A    between atoms: C_13  and  C_14 
REMARK    8  A    between atoms: C_14  and  N_15 
REMARK    9  A    between atoms: C_24  and  O_25 
REMARK   10  A    between atoms: C_26  and  C_27 
REMARK   11  A    between atoms: C_27  and  C_28 
REMARK   12  A    between atoms: C_32  and  O_33 
REMARK   13  A    between atoms: O_33  and  C_34 
REMARK   14  A    between atoms: C_34  and  C_35 
ROOT
HETATM    1  C   UNL     1      27.973  48.183  40.763  1.00  0.00     0.161 C 
HETATM    2  N   UNL     1      26.745  47.435  40.493  1.00  0.00    -0.333 N 
HETATM    3  C   UNL     1      27.031  46.106  40.238  1.00  0.00     0.278 C 
HETATM    4  O   UNL     1      26.245  45.189  40.080  1.00  0.00    -0.265 OA
HETATM    5  C   UNL     1      28.494  45.973  40.123  1.00  0.00     0.146 C 
HETATM    6  C   UNL     1      29.017  47.175  40.390  1.00  0.00     0.059 C 
ENDROOT
BRANCH   6   7
HETATM    7  C   UNL     1      30.436  47.481  40.137  1.00  0.00     0.193 C 
HETATM    8  O   UNL     1      31.047  46.896  39.248  1.00  0.00    -0.287 OA
BRANCH   7   9
HETATM    9  C   UNL     1      31.096  48.591  40.866  1.00  0.00     0.015 A 
HETATM   10  C   UNL     1      31.798  49.537  40.109  1.00  0.00     0.025 A 
HETATM   11  C   UNL     1      32.454  50.609  40.729  1.00  0.00    -0.028 A 
HETATM   12  C   UNL     1      33.211  51.604  39.890  1.00  0.00     0.051 C 
HETATM   13  C   UNL     1      32.398  50.740  42.127  1.00  0.00     0.074 A 
HETATM   14  C   UNL     1      31.711  49.785  42.884  1.00  0.00     0.038 A 
HETATM   15  C   UNL     1      31.070  48.707  42.259  1.00  0.00     0.018 A 
BRANCH  13  16
HETATM   16  O   UNL     1      33.053  51.827  42.634  1.00  0.00    -0.350 OA
BRANCH  16  17
HETATM   17  C   UNL     1      34.127  51.619  43.547  1.00  0.00     0.179 C 
BRANCH  17  18
HETATM   18  C   UNL     1      35.463  51.863  42.825  1.00  0.00     0.002 C 
HETATM   19  C   UNL     1      36.433  52.649  43.709  1.00  0.00     0.011 C 
HETATM   20  C   UNL     1      36.111  50.549  42.383  1.00  0.00     0.011 C 
ENDBRANCH  17  18
ENDBRANCH  16  17
ENDBRANCH  13  16
ENDBRANCH   7   9
ENDBRANCH   6   7
BRANCH   1  21
HETATM   21  C   UNL     1      28.063  49.503  40.034  1.00  0.00    -0.028 A 
HETATM   22  C   UNL     1      28.037  49.581  38.630  1.00  0.00     0.012 A 
HETATM   23  C   UNL     1      28.164  50.813  37.989  1.00  0.00     0.040 A 
HETATM   24  C   UNL     1      28.355  51.962  38.746  1.00  0.00     0.099 A 
HETATM   25  C   UNL     1      28.432  51.913  40.138  1.00  0.00     0.102 A 
HETATM   26  C   UNL     1      28.253  50.686  40.779  1.00  0.00     0.049 A 
BRANCH  24  27
HETATM   27  O   UNL     1      28.495  53.150  38.087  1.00  0.00    -0.358 OA
HETATM   28  H   UNL     1      29.176  53.646  38.583  1.00  0.00     0.218 HD
ENDBRANCH  24  27
BRANCH  25  29
HETATM   29  O   UNL     1      28.680  53.108  40.761  1.00  0.00    -0.349 OA
BRANCH  29  30
HETATM   30  C   UNL     1      29.878  53.172  41.541  1.00  0.00     0.171 C 
HETATM   31  C   UNL     1      30.858  54.097  40.843  1.00  0.00     0.034 C 
ENDBRANCH  29  30
ENDBRANCH  25  29
ENDBRANCH   1  21
BRANCH   5  32
HETATM   32  O   UNL     1      29.118  44.821  39.761  1.00  0.00    -0.355 OA
HETATM   33  H   UNL     1      29.528  44.446  40.564  1.00  0.00     0.218 HD
ENDBRANCH   5  32
BRANCH   2  34
HETATM   34  C   UNL     1      25.419  47.887  40.888  1.00  0.00     0.129 C 
BRANCH  34  35
HETATM   35  C   UNL     1      24.481  48.209  39.723  1.00  0.00     0.048 C 
BRANCH  35  36
HETATM   36  C   UNL     1      22.982  47.985  39.942  1.00  0.00     0.236 C 
BRANCH  36  37
HETATM   37  N   UNL     1      22.160  49.190  40.343  1.00  0.00    -0.067 N 
HETATM   38  H   UNL     1      22.495  49.411  41.291  1.00  0.00     0.280 HD
HETATM   39  C   UNL     1      22.436  50.462  39.549  1.00  0.00     0.261 C 
HETATM   40  C   UNL     1      21.695  51.640  40.197  1.00  0.00     0.195 C 
HETATM   41  O   UNL     1      20.291  51.376  40.302  1.00  0.00    -0.388 OA
HETATM   42  C   UNL     1      20.022  50.219  41.102  1.00  0.00     0.195 C 
HETATM   43  C   UNL     1      20.662  48.968  40.487  1.00  0.00     0.261 C 
ENDBRANCH  36  37
ENDBRANCH  35  36
ENDBRANCH  34  35
ENDBRANCH   2  34
TORSDOF 14
ENDMDL
MODEL 4
REMARK VINA RESULT:      -7.5      5.513      8.934
REMARK  14 active torsions:
REMARK  status: ('A' for Active; 'I' for Inactive)
REMARK    1  A    between atoms: C_2  and  O_3 
REMARK    2  A    between atoms: O_3  and  C_4 
REMARK    3  A    between atoms: C_5  and  O_6 
REMARK    4  A    between atoms: C_9  and  C_10 
REMARK    5  A    between atoms: N_11  and  C_12 
REMARK    6  A    between atoms: C_12  and  C_13 
REMARK    7  A    between atoms: C_13  and  C_14 
REMARK    8  A    between atoms: C_14  and  N_15 
REMARK    9  A    between atoms: C_24  and  O_25 
REMARK   10  A    between atoms: C_26  and  C_27 
REMARK   11  A    between atoms: C_27  and  C_28 
REMARK   12  A    between atoms: C_32  and  O_33 
REMARK   13  A    between atoms: O_33  and  C_34 
REMARK   14  A    between atoms: C_34  and  C_35 
ROOT
HETATM    1  C   UNL     1      27.319  43.251  51.116  1.00  0.00     0.161 C 
HETATM    2  N   UNL     1      28.314  42.556  51.932  1.00  0.00    -0.333 N 
HETATM    3  C   UNL     1      28.049  41.199  51.972  1.00  0.00     0.278 C 
HETATM    4  O   UNL     1      28.730  40.319  52.468  1.00  0.00    -0.265 OA
HETATM    5  C   UNL     1      26.733  40.979  51.348  1.00  0.00     0.146 C 
HETATM    6  C   UNL     1      26.312  42.165  50.895  1.00  0.00     0.059 C 
ENDROOT
BRANCH   6   7
HETATM    7  C   UNL     1      24.930  42.374  50.426  1.00  0.00     0.193 C 
HETATM    8  O   UNL     1      24.064  42.761  51.204  1.00  0.00    -0.287 OA
BRANCH   7   9
HETATM    9  C   UNL     1      24.611  42.246  48.983  1.00  0.00     0.015 A 
HETATM   10  C   UNL     1      23.891  43.287  48.385  1.00  0.00     0.025 A 
HETATM   11  C   UNL     1      23.545  43.232  47.028  1.00  0.00    -0.028 A 
HETATM   12  C   UNL     1      22.761  44.362  46.414  1.00  0.00     0.051 C 
HETATM   13  C   UNL     1      23.934  42.123  46.258  1.00  0.00     0.074 A 
HETATM   14  C   UNL     1      24.639  41.076  46.861  1.00  0.00     0.038 A 
HETATM   15  C   UNL     1      24.968  41.130  48.222  1.00  0.00     0.018 A 
BRANCH  13  16
HETATM   16  O   UNL     1      23.566  42.173  44.943  1.00  0.00    -0.350 OA
BRANCH  16  17
HETATM   17  C   UNL     1      24.372  41.502  43.978  1.00  0.00     0.179 C 
BRANCH  17  18
HETATM   18  C   UNL     1      25.320  42.514  43.314  1.00  0.00     0.002 C 
HETATM   19  C   UNL     1      26.763  42.003  43.317  1.00  0.00     0.011 C 
HETATM   20  C   UNL     1      24.886  42.835  41.882  1.00  0.00     0.011 C 
ENDBRANCH  17  18
ENDBRANCH  16  17
ENDBRANCH  13  16
ENDBRANCH   7   9
ENDBRANCH   6   7
BRANCH   1  21
HETATM   21  C   UNL     1      26.777  44.513  51.747  1.00  0.00    -0.028 A 
HETATM   22  C   UNL     1      26.368  44.556  53.092  1.00  0.00     0.012 A 
HETATM   23  C   UNL     1      25.834  45.726  53.630  1.00  0.00     0.040 A 
HETATM   24  C   UNL     1      25.673  46.841  52.818  1.00  0.00     0.099 A 
HETATM   25  C   UNL     1      26.025  46.817  51.468  1.00  0.00     0.102 A 
HETATM   26  C   UNL     1      26.607  45.662  50.946  1.00  0.00     0.049 A 
BRANCH  24  27
HETATM   27  O   UNL     1      25.129  47.966  53.371  1.00  0.00    -0.358 OA
HETATM   28  H   UNL     1      24.851  47.708  54.272  1.00  0.00     0.218 HD
ENDBRANCH  24  27
BRANCH  25  29
HETATM   29  O   UNL     1      25.762  47.964  50.766  1.00  0.00    -0.349 OA
BRANCH  29  30
HETATM   30  C   UNL     1      26.609  48.218  49.640  1.00  0.00     0.171 C 
HETATM   31  C   UNL     1      26.008  49.355  48.833  1.00  0.00     0.034 C 
ENDBRANCH  29  30
ENDBRANCH  25  29
ENDBRANCH   1  21
BRANCH   5  32
HETATM   32  O   UNL     1      26.107  39.772  51.320  1.00  0.00    -0.355 OA
HETATM   33  H   UNL     1      25.224  39.892  51.718  1.00  0.00     0.218 HD
ENDBRANCH   5  32
BRANCH   2  34
HETATM   34  C   UNL     1      29.623  43.107  52.256  1.00  0.00     0.129 C 
BRANCH  34  35
HETATM   35  C   UNL     1      29.926  43.194  53.753  1.00  0.00     0.048 C 
BRANCH  35  36
HETATM   36  C   UNL     1      29.344  44.384  54.521  1.00  0.00     0.236 C 
BRANCH  36  37
HETATM   37  N   UNL     1      29.783  44.553  55.959  1.00  0.00    -0.067 N 
HETATM   38  H   UNL     1      29.168  43.913  56.480  1.00  0.00     0.280 HD
HETATM   39  C   UNL     1      31.188  44.052  56.275  1.00  0.00     0.261 C 
HETATM   40  C   UNL     1      31.415  44.092  57.793  1.00  0.00     0.195 C 
HETATM   41  O   UNL     1      31.191  45.406  58.318  1.00  0.00    -0.388 OA
HETATM   42  C   UNL     1      29.852  45.855  58.081  1.00  0.00     0.195 C 
HETATM   43  C   UNL     1      29.556  45.924  56.578  1.00  0.00     0.261 C 
ENDBRANCH  36  37
ENDBRANCH  35  36
ENDBRANCH  34  35
ENDBRANCH   2  34
TORSDOF 14
ENDMDL
MODEL 5
REMARK VINA RESULT:      -7.5      2.556      8.536
REMARK  14 active torsions:
REMARK  status: ('A' for Active; 'I' for Inactive)
REMARK    1  A    between atoms: C_2  and  O_3 
REMARK    2  A    between atoms: O_3  and  C_4 
REMARK    3  A    between atoms: C_5  and  O_6 
REMARK    4  A    between atoms: C_9  and  C_10 
REMARK    5  A    between atoms: N_11  and  C_12 
REMARK    6  A    between atoms: C_12  and  C_13 
REMARK    7  A    between atoms: C_13  and  C_14 
REMARK    8  A    between atoms: C_14  and  N_15 
REMARK    9  A    between atoms: C_24  and  O_25 
REMARK   10  A    between atoms: C_26  and  C_27 
REMARK   11  A    between atoms: C_27  and  C_28 
REMARK   12  A    between atoms: C_32  and  O_33 
REMARK   13  A    between atoms: O_33  and  C_34 
REMARK   14  A    between atoms: C_34  and  C_35 
ROOT
HETATM    1  C   UNL     1      20.203  48.439  47.801  1.00  0.00     0.161 C 
HETATM    2  N   UNL     1      19.170  48.368  48.834  1.00  0.00    -0.333 N 
HETATM    3  C   UNL     1      19.458  49.238  49.870  1.00  0.00     0.278 C 
HETATM    4  O   UNL     1      18.764  49.509  50.833  1.00  0.00    -0.265 OA
HETATM    5  C   UNL     1      20.816  49.765  49.652  1.00  0.00     0.146 C 
HETATM    6  C   UNL     1      21.243  49.272  48.484  1.00  0.00     0.059 C 
ENDROOT
BRANCH   6   7
HETATM    7  C   UNL     1      22.648  49.391  48.055  1.00  0.00     0.193 C 
HETATM    8  O   UNL     1      22.967  50.210  47.198  1.00  0.00    -0.287 OA
BRANCH   7   9
HETATM    9  C   UNL     1      23.704  48.616  48.752  1.00  0.00     0.015 A 
HETATM   10  C   UNL     1      25.014  49.106  48.692  1.00  0.00     0.025 A 
HETATM   11  C   UNL     1      26.065  48.423  49.319  1.00  0.00    -0.028 A 
HETATM   12  C   UNL     1      27.465  48.967  49.228  1.00  0.00     0.051 C 
HETATM   13  C   UNL     1      25.797  47.237  50.024  1.00  0.00     0.074 A 
HETATM   14  C   UNL     1      24.491  46.739  50.069  1.00  0.00     0.038 A 
HETATM   15  C   UNL     1      23.447  47.419  49.426  1.00  0.00     0.018 A 
BRANCH  13  16
HETATM   16  O   UNL     1      26.884  46.657  50.615  1.00  0.00    -0.350 OA
BRANCH  16  17
HETATM   17  C   UNL     1      27.140  45.275  50.377  1.00  0.00     0.179 C 
BRANCH  17  18
HETATM   18  C   UNL     1      26.975  44.493  51.690  1.00  0.00     0.002 C 
HETATM   19  C   UNL     1      28.220  43.659  51.997  1.00  0.00     0.011 C 
HETATM   20  C   UNL     1      26.673  45.426  52.865  1.00  0.00     0.011 C 
ENDBRANCH  17  18
ENDBRANCH  16  17
ENDBRANCH  13  16
ENDBRANCH   7   9
ENDBRANCH   6   7
BRANCH   1  21
HETATM   21  C   UNL     1      20.678  47.090  47.311  1.00  0.00    -0.028 A 
HETATM   22  C   UNL     1      20.806  46.797  45.942  1.00  0.00     0.012 A 
HETATM   23  C   UNL     1      21.207  45.529  45.526  1.00  0.00     0.040 A 
HETATM   24  C   UNL     1      21.445  44.541  46.473  1.00  0.00     0.099 A 
HETATM   25  C   UNL     1      21.283  44.785  47.837  1.00  0.00     0.102 A 
HETATM   26  C   UNL     1      20.931  46.070  48.253  1.00  0.00     0.049 A 
BRANCH  24  27
HETATM   27  O   UNL     1      21.819  43.303  46.032  1.00  0.00    -0.358 OA
HETATM   28  H   UNL     1      22.663  43.437  45.558  1.00  0.00     0.218 HD
ENDBRANCH  24  27
BRANCH  25  29
HETATM   29  O   UNL     1      21.494  43.711  48.662  1.00  0.00    -0.349 OA
BRANCH  29  30
HETATM   30  C   UNL     1      22.307  43.955  49.814  1.00  0.00     0.171 C 
HETATM   31  C   UNL     1      23.528  43.056  49.740  1.00  0.00     0.034 C 
ENDBRANCH  29  30
ENDBRANCH  25  29
ENDBRANCH   1  21
BRANCH   5  32
HETATM   32  O   UNL     1      21.466  50.562  50.542  1.00  0.00    -0.355 OA
HETATM   33  H   UNL     1      20.788  50.977  51.110  1.00  0.00     0.218 HD
ENDBRANCH   5  32
BRANCH   2  34
HETATM   34  C   UNL     1      17.833  47.839  48.606  1.00  0.00     0.129 C 
BRANCH  34  35
HETATM   35  C   UNL     1      17.217  48.222  47.259  1.00  0.00     0.048 C 
BRANCH  35  36
HETATM   36  C   UNL     1      16.519  49.582  47.163  1.00  0.00     0.236 C 
BRANCH  36  37
HETATM   37  N   UNL     1      16.977  50.655  48.126  1.00  0.00    -0.067 N 
HETATM   38  H   UNL     1      17.511  50.136  48.836  1.00  0.00     0.280 HD
HETATM   39  C   UNL     1      17.983  51.652  47.562  1.00  0.00     0.261 C 
HETATM   40  C   UNL     1      18.511  52.542  48.696  1.00  0.00     0.195 C 
HETATM   41  O   UNL     1      17.440  53.202  49.380  1.00  0.00    -0.388 OA
HETATM   42  C   UNL     1      16.526  52.269  49.969  1.00  0.00     0.195 C 
HETATM   43  C   UNL     1      15.884  51.381  48.896  1.00  0.00     0.261 C 
ENDBRANCH  36  37
ENDBRANCH  35  36
ENDBRANCH  34  35
ENDBRANCH   2  34
TORSDOF 14
ENDMDL
MODEL 6
REMARK VINA RESULT:      -7.4      2.876      9.639
REMARK  14 active torsions:
REMARK  status: ('A' for Active; 'I' for Inactive)
REMARK    1  A    between atoms: C_2  and  O_3 
REMARK    2  A    between atoms: O_3  and  C_4 
REMARK    3  A    between atoms: C_5  and  O_6 
REMARK    4  A    between atoms: C_9  and  C_10 
REMARK    5  A    between atoms: N_11  and  C_12 
REMARK    6  A    between atoms: C_12  and  C_13 
REMARK    7  A    between atoms: C_13  and  C_14 
REMARK    8  A    between atoms: C_14  and  N_15 
REMARK    9  A    between atoms: C_24  and  O_25 
REMARK   10  A    between atoms: C_26  and  C_27 
REMARK   11  A    between atoms: C_27  and  C_28 
REMARK   12  A    between atoms: C_32  and  O_33 
REMARK   13  A    between atoms: O_33  and  C_34 
REMARK   14  A    between atoms: C_34  and  C_35 
ROOT
HETATM    1  C   UNL     1      23.582  45.890  48.581  1.00  0.00     0.161 C 
HETATM    2  N   UNL     1      22.134  46.091  48.628  1.00  0.00    -0.333 N 
HETATM    3  C   UNL     1      21.835  47.384  49.019  1.00  0.00     0.278 C 
HETATM    4  O   UNL     1      20.741  47.918  49.062  1.00  0.00    -0.265 OA
HETATM    5  C   UNL     1      23.089  48.025  49.452  1.00  0.00     0.146 C 
HETATM    6  C   UNL     1      24.073  47.147  49.229  1.00  0.00     0.059 C 
ENDROOT
BRANCH   6   7
HETATM    7  C   UNL     1      25.433  47.350  49.760  1.00  0.00     0.193 C 
HETATM    8  O   UNL     1      26.185  48.169  49.241  1.00  0.00    -0.287 OA
BRANCH   7   9
HETATM    9  C   UNL     1      25.852  46.663  51.006  1.00  0.00     0.015 A 
HETATM   10  C   UNL     1      26.771  45.613  50.889  1.00  0.00     0.025 A 
HETATM   11  C   UNL     1      27.206  44.911  52.022  1.00  0.00    -0.028 A 
HETATM   12  C   UNL     1      28.186  43.780  51.864  1.00  0.00     0.051 C 
HETATM   13  C   UNL     1      26.720  45.273  53.290  1.00  0.00     0.074 A 
HETATM   14  C   UNL     1      25.789  46.310  53.403  1.00  0.00     0.038 A 
HETATM   15  C   UNL     1      25.346  46.998  52.265  1.00  0.00     0.018 A 
BRANCH  13  16
HETATM   16  O   UNL     1      27.219  44.541  54.331  1.00  0.00    -0.350 OA
BRANCH  16  17
HETATM   17  C   UNL     1      27.891  45.221  55.388  1.00  0.00     0.179 C 
BRANCH  17  18
HETATM   18  C   UNL     1      29.407  45.006  55.247  1.00  0.00     0.002 C 
HETATM   19  C   UNL     1      30.153  45.505  56.486  1.00  0.00     0.011 C 
HETATM   20  C   UNL     1      29.745  43.535  54.995  1.00  0.00     0.011 C 
ENDBRANCH  17  18
ENDBRANCH  16  17
ENDBRANCH  13  16
ENDBRANCH   7   9
ENDBRANCH   6   7
BRANCH   1  21
HETATM   21  C   UNL     1      24.047  44.607  49.230  1.00  0.00    -0.028 A 
HETATM   22  C   UNL     1      23.575  44.197  50.490  1.00  0.00     0.012 A 
HETATM   23  C   UNL     1      24.057  43.028  51.078  1.00  0.00     0.040 A 
HETATM   24  C   UNL     1      25.036  42.288  50.427  1.00  0.00     0.099 A 
HETATM   25  C   UNL     1      25.559  42.692  49.198  1.00  0.00     0.102 A 
HETATM   26  C   UNL     1      25.037  43.834  48.589  1.00  0.00     0.049 A 
BRANCH  24  27
HETATM   27  O   UNL     1      25.501  41.158  51.039  1.00  0.00    -0.358 OA
HETATM   28  H   UNL     1      26.119  40.750  50.401  1.00  0.00     0.218 HD
ENDBRANCH  24  27
BRANCH  25  29
HETATM   29  O   UNL     1      26.559  41.905  48.691  1.00  0.00    -0.349 OA
BRANCH  29  30
HETATM   30  C   UNL     1      26.202  41.073  47.582  1.00  0.00     0.171 C 
HETATM   31  C   UNL     1      27.463  40.737  46.808  1.00  0.00     0.034 C 
ENDBRANCH  29  30
ENDBRANCH  25  29
ENDBRANCH   1  21
BRANCH   5  32
HETATM   32  O   UNL     1      23.146  49.264  50.009  1.00  0.00    -0.355 OA
HETATM   33  H   UNL     1      23.936  49.710  49.648  1.00  0.00     0.218 HD
ENDBRANCH   5  32
BRANCH   2  34
HETATM   34  C   UNL     1      21.176  45.244  47.932  1.00  0.00     0.129 C 
BRANCH  34  35
HETATM   35  C   UNL     1      20.905  45.647  46.481  1.00  0.00     0.048 C 
BRANCH  35  36
HETATM   36  C   UNL     1      19.452  45.933  46.088  1.00  0.00     0.236 C 
BRANCH  36  37
HETATM   37  N   UNL     1      18.645  46.796  47.031  1.00  0.00    -0.067 N 
HETATM   38  H   UNL     1      19.307  47.018  47.788  1.00  0.00     0.280 HD
HETATM   39  C   UNL     1      18.240  48.160  46.484  1.00  0.00     0.261 C 
HETATM   40  C   UNL     1      17.618  48.999  47.609  1.00  0.00     0.195 C 
HETATM   41  O   UNL     1      16.509  48.320  48.210  1.00  0.00    -0.388 OA
HETATM   42  C   UNL     1      16.897  47.067  48.786  1.00  0.00     0.195 C 
HETATM   43  C   UNL     1      17.462  46.126  47.715  1.00  0.00     0.261 C 
ENDBRANCH  36  37
ENDBRANCH  35  36
ENDBRANCH  34  35
ENDBRANCH   2  34
TORSDOF 14
ENDMDL
MODEL 7
REMARK VINA RESULT:      -7.3      1.571      2.636
REMARK  14 active torsions:
REMARK  status: ('A' for Active; 'I' for Inactive)
REMARK    1  A    between atoms: C_2  and  O_3 
REMARK    2  A    between atoms: O_3  and  C_4 
REMARK    3  A    between atoms: C_5  and  O_6 
REMARK    4  A    between atoms: C_9  and  C_10 
REMARK    5  A    between atoms: N_11  and  C_12 
REMARK    6  A    between atoms: C_12  and  C_13 
REMARK    7  A    between atoms: C_13  and  C_14 
REMARK    8  A    between atoms: C_14  and  N_15 
REMARK    9  A    between atoms: C_24  and  O_25 
REMARK   10  A    between atoms: C_26  and  C_27 
REMARK   11  A    between atoms: C_27  and  C_28 
REMARK   12  A    between atoms: C_32  and  O_33 
REMARK   13  A    between atoms: O_33  and  C_34 
REMARK   14  A    between atoms: C_34  and  C_35 
ROOT
HETATM    1  C   UNL     1      22.875  47.367  49.314  1.00  0.00     0.161 C 
HETATM    2  N   UNL     1      23.932  46.442  49.723  1.00  0.00    -0.333 N 
HETATM    3  C   UNL     1      25.151  47.093  49.783  1.00  0.00     0.278 C 
HETATM    4  O   UNL     1      26.214  46.654  50.186  1.00  0.00    -0.265 OA
HETATM    5  C   UNL     1      24.975  48.435  49.204  1.00  0.00     0.146 C 
HETATM    6  C   UNL     1      23.677  48.565  48.908  1.00  0.00     0.059 C 
ENDROOT
BRANCH   6   7
HETATM    7  C   UNL     1      23.171  49.685  48.094  1.00  0.00     0.193 C 
HETATM    8  O   UNL     1      23.815  50.090  47.130  1.00  0.00    -0.287 OA
BRANCH   7   9
HETATM    9  C   UNL     1      21.821  50.240  48.355  1.00  0.00     0.015 A 
HETATM   10  C   UNL     1      20.899  50.224  47.301  1.00  0.00     0.025 A 
HETATM   11  C   UNL     1      19.607  50.740  47.470  1.00  0.00    -0.028 A 
HETATM   12  C   UNL     1      18.641  50.720  46.315  1.00  0.00     0.051 C 
HETATM   13  C   UNL     1      19.230  51.269  48.716  1.00  0.00     0.074 A 
HETATM   14  C   UNL     1      20.157  51.299  49.763  1.00  0.00     0.038 A 
HETATM   15  C   UNL     1      21.453  50.797  49.582  1.00  0.00     0.018 A 
BRANCH  13  16
HETATM   16  O   UNL     1      17.945  51.728  48.785  1.00  0.00    -0.350 OA
BRANCH  16  17
HETATM   17  C   UNL     1      17.559  52.525  49.902  1.00  0.00     0.179 C 
BRANCH  17  18
HETATM   18  C   UNL     1      16.025  52.608  49.962  1.00  0.00     0.002 C 
HETATM   19  C   UNL     1      15.564  53.991  50.429  1.00  0.00     0.011 C 
HETATM   20  C   UNL     1      15.391  52.280  48.608  1.00  0.00     0.011 C 
ENDBRANCH  17  18
ENDBRANCH  16  17
ENDBRANCH  13  16
ENDBRANCH   7   9
ENDBRANCH   6   7
BRANCH   1  21
HETATM   21  C   UNL     1      21.954  46.817  48.249  1.00  0.00    -0.028 A 
HETATM   22  C   UNL     1      20.558  46.798  48.410  1.00  0.00     0.012 A 
HETATM   23  C   UNL     1      19.741  46.245  47.425  1.00  0.00     0.040 A 
HETATM   24  C   UNL     1      20.319  45.677  46.296  1.00  0.00     0.099 A 
HETATM   25  C   UNL     1      21.703  45.638  46.127  1.00  0.00     0.102 A 
HETATM   26  C   UNL     1      22.515  46.239  47.091  1.00  0.00     0.049 A 
BRANCH  24  27
HETATM   27  O   UNL     1      19.492  45.127  45.358  1.00  0.00    -0.358 OA
HETATM   28  H   UNL     1      20.082  44.679  44.719  1.00  0.00     0.218 HD
ENDBRANCH  24  27
BRANCH  25  29
HETATM   29  O   UNL     1      22.146  45.000  44.998  1.00  0.00    -0.349 OA
BRANCH  29  30
HETATM   30  C   UNL     1      23.150  44.000  45.196  1.00  0.00     0.171 C 
HETATM   31  C   UNL     1      22.465  42.657  45.367  1.00  0.00     0.034 C 
ENDBRANCH  29  30
ENDBRANCH  25  29
ENDBRANCH   1  21
BRANCH   5  32
HETATM   32  O   UNL     1      25.999  49.306  48.997  1.00  0.00    -0.355 OA
HETATM   33  H   UNL     1      25.878  49.693  48.109  1.00  0.00     0.218 HD
ENDBRANCH   5  32
BRANCH   2  34
HETATM   34  C   UNL     1      23.684  45.182  50.411  1.00  0.00     0.129 C 
BRANCH  34  35
HETATM   35  C   UNL     1      24.590  44.029  49.976  1.00  0.00     0.048 C 
BRANCH  35  36
HETATM   36  C   UNL     1      24.862  42.922  50.999  1.00  0.00     0.236 C 
BRANCH  36  37
HETATM   37  N   UNL     1      26.026  43.131  51.941  1.00  0.00    -0.067 N 
HETATM   38  H   UNL     1      26.165  42.204  52.368  1.00  0.00     0.280 HD
HETATM   39  C   UNL     1      27.362  43.433  51.273  1.00  0.00     0.261 C 
HETATM   40  C   UNL     1      28.478  43.411  52.327  1.00  0.00     0.195 C 
HETATM   41  O   UNL     1      28.203  44.325  53.395  1.00  0.00    -0.388 OA
HETATM   42  C   UNL     1      26.981  44.006  54.070  1.00  0.00     0.195 C 
HETATM   43  C   UNL     1      25.789  44.079  53.107  1.00  0.00     0.261 C 
ENDBRANCH  36  37
ENDBRANCH  35  36
ENDBRANCH  34  35
ENDBRANCH   2  34
TORSDOF 14
ENDMDL
MODEL 8
REMARK VINA RESULT:      -7.2      2.554      3.152
REMARK  14 active torsions:
REMARK  status: ('A' for Active; 'I' for Inactive)
REMARK    1  A    between atoms: C_2  and  O_3 
REMARK    2  A    between atoms: O_3  and  C_4 
REMARK    3  A    between atoms: C_5  and  O_6 
REMARK    4  A    between atoms: C_9  and  C_10 
REMARK    5  A    between atoms: N_11  and  C_12 
REMARK    6  A    between atoms: C_12  and  C_13 
REMARK    7  A    between atoms: C_13  and  C_14 
REMARK    8  A    between atoms: C_14  and  N_15 
REMARK    9  A    between atoms: C_24  and  O_25 
REMARK   10  A    between atoms: C_26  and  C_27 
REMARK   11  A    between atoms: C_27  and  C_28 
REMARK   12  A    between atoms: C_32  and  O_33 
REMARK   13  A    between atoms: O_33  and  C_34 
REMARK   14  A    between atoms: C_34  and  C_35 
ROOT
HETATM    1  C   UNL     1      22.759  46.317  49.489  1.00  0.00     0.161 C 
HETATM    2  N   UNL     1      23.971  45.624  49.925  1.00  0.00    -0.333 N 
HETATM    3  C   UNL     1      24.998  46.526  50.135  1.00  0.00     0.278 C 
HETATM    4  O   UNL     1      26.102  46.306  50.599  1.00  0.00    -0.265 OA
HETATM    5  C   UNL     1      24.554  47.839  49.637  1.00  0.00     0.146 C 
HETATM    6  C   UNL     1      23.285  47.696  49.238  1.00  0.00     0.059 C 
ENDROOT
BRANCH   6   7
HETATM    7  C   UNL     1      22.591  48.739  48.461  1.00  0.00     0.193 C 
HETATM    8  O   UNL     1      22.947  48.998  47.316  1.00  0.00    -0.287 OA
BRANCH   7   9
HETATM    9  C   UNL     1      21.376  49.387  49.012  1.00  0.00     0.015 A 
HETATM   10  C   UNL     1      20.158  48.712  48.863  1.00  0.00     0.025 A 
HETATM   11  C   UNL     1      18.966  49.267  49.349  1.00  0.00    -0.028 A 
HETATM   12  C   UNL     1      17.670  48.523  49.164  1.00  0.00     0.051 C 
HETATM   13  C   UNL     1      18.997  50.510  50.003  1.00  0.00     0.074 A 
HETATM   14  C   UNL     1      20.212  51.191  50.137  1.00  0.00     0.038 A 
HETATM   15  C   UNL     1      21.398  50.638  49.634  1.00  0.00     0.018 A 
BRANCH  13  16
HETATM   16  O   UNL     1      17.788  50.955  50.458  1.00  0.00    -0.350 OA
BRANCH  16  17
HETATM   17  C   UNL     1      17.229  52.133  49.883  1.00  0.00     0.179 C 
BRANCH  17  18
HETATM   18  C   UNL     1      15.809  51.827  49.377  1.00  0.00     0.002 C 
HETATM   19  C   UNL     1      14.854  52.983  49.683  1.00  0.00     0.011 C 
HETATM   20  C   UNL     1      15.800  51.529  47.877  1.00  0.00     0.011 C 
ENDBRANCH  17  18
ENDBRANCH  16  17
ENDBRANCH  13  16
ENDBRANCH   7   9
ENDBRANCH   6   7
BRANCH   1  21
HETATM   21  C   UNL     1      22.068  45.667  48.312  1.00  0.00    -0.028 A 
HETATM   22  C   UNL     1      22.681  45.570  47.050  1.00  0.00     0.012 A 
HETATM   23  C   UNL     1      21.997  45.002  45.976  1.00  0.00     0.040 A 
HETATM   24  C   UNL     1      20.690  44.565  46.150  1.00  0.00     0.099 A 
HETATM   25  C   UNL     1      20.037  44.690  47.376  1.00  0.00     0.102 A 
HETATM   26  C   UNL     1      20.741  45.211  48.463  1.00  0.00     0.049 A 
BRANCH  24  27
HETATM   27  O   UNL     1      20.042  44.031  45.072  1.00  0.00    -0.358 OA
HETATM   28  H   UNL     1      20.049  43.064  45.215  1.00  0.00     0.218 HD
ENDBRANCH  24  27
BRANCH  25  29
HETATM   29  O   UNL     1      18.732  44.273  47.399  1.00  0.00    -0.349 OA
BRANCH  29  30
HETATM   30  C   UNL     1      17.756  45.280  47.684  1.00  0.00     0.171 C 
HETATM   31  C   UNL     1      17.469  46.047  46.406  1.00  0.00     0.034 C 
ENDBRANCH  29  30
ENDBRANCH  25  29
ENDBRANCH   1  21
BRANCH   5  32
HETATM   32  O   UNL     1      25.359  48.933  49.581  1.00  0.00    -0.355 OA
HETATM   33  H   UNL     1      24.975  49.545  48.924  1.00  0.00     0.218 HD
ENDBRANCH   5  32
BRANCH   2  34
HETATM   34  C   UNL     1      23.975  44.286  50.500  1.00  0.00     0.129 C 
BRANCH  34  35
HETATM   35  C   UNL     1      24.520  43.196  49.574  1.00  0.00     0.048 C 
BRANCH  35  36
HETATM   36  C   UNL     1      26.040  43.093  49.425  1.00  0.00     0.236 C 
BRANCH  36  37
HETATM   37  N   UNL     1      26.723  41.947  50.137  1.00  0.00    -0.067 N 
HETATM   38  H   UNL     1      25.948  41.446  50.594  1.00  0.00     0.280 HD
HETATM   39  C   UNL     1      27.357  40.899  49.231  1.00  0.00     0.261 C 
HETATM   40  C   UNL     1      27.821  39.704  50.076  1.00  0.00     0.195 C 
HETATM   41  O   UNL     1      28.717  40.118  51.113  1.00  0.00    -0.388 OA
HETATM   42  C   UNL     1      28.105  41.054  52.008  1.00  0.00     0.195 C 
HETATM   43  C   UNL     1      27.676  42.324  51.262  1.00  0.00     0.261 C 
ENDBRANCH  36  37
ENDBRANCH  35  36
ENDBRANCH  34  35
ENDBRANCH   2  34
TORSDOF 14
ENDMDL
MODEL 9
REMARK VINA RESULT:      -7.0      9.927     13.972
REMARK  14 active torsions:
REMARK  status: ('A' for Active; 'I' for Inactive)
REMARK    1  A    between atoms: C_2  and  O_3 
REMARK    2  A    between atoms: O_3  and  C_4 
REMARK    3  A    between atoms: C_5  and  O_6 
REMARK    4  A    between atoms: C_9  and  C_10 
REMARK    5  A    between atoms: N_11  and  C_12 
REMARK    6  A    between atoms: C_12  and  C_13 
REMARK    7  A    between atoms: C_13  and  C_14 
REMARK    8  A    between atoms: C_14  and  N_15 
REMARK    9  A    between atoms: C_24  and  O_25 
REMARK   10  A    between atoms: C_26  and  C_27 
REMARK   11  A    between atoms: C_27  and  C_28 
REMARK   12  A    between atoms: C_32  and  O_33 
REMARK   13  A    between atoms: O_33  and  C_34 
REMARK   14  A    between atoms: C_34  and  C_35 
ROOT
HETATM    1  C   UNL     1      27.538  46.747  40.653  1.00  0.00     0.161 C 
HETATM    2  N   UNL     1      26.393  45.840  40.724  1.00  0.00    -0.333 N 
HETATM    3  C   UNL     1      26.786  44.540  40.459  1.00  0.00     0.278 C 
HETATM    4  O   UNL     1      26.115  43.526  40.537  1.00  0.00    -0.265 OA
HETATM    5  C   UNL     1      28.183  44.577  39.993  1.00  0.00     0.146 C 
HETATM    6  C   UNL     1      28.588  45.849  40.075  1.00  0.00     0.059 C 
ENDROOT
BRANCH   6   7
HETATM    7  C   UNL     1      29.851  46.305  39.467  1.00  0.00     0.193 C 
HETATM    8  O   UNL     1      30.320  45.717  38.497  1.00  0.00    -0.287 OA
BRANCH   7   9
HETATM    9  C   UNL     1      30.493  47.555  39.942  1.00  0.00     0.015 A 
HETATM   10  C   UNL     1      30.722  48.565  39.000  1.00  0.00     0.025 A 
HETATM   11  C   UNL     1      31.332  49.770  39.373  1.00  0.00    -0.028 A 
HETATM   12  C   UNL     1      31.576  50.833  38.335  1.00  0.00     0.051 C 
HETATM   13  C   UNL     1      31.709  49.970  40.711  1.00  0.00     0.074 A 
HETATM   14  C   UNL     1      31.495  48.955  41.649  1.00  0.00     0.038 A 
HETATM   15  C   UNL     1      30.899  47.745  41.266  1.00  0.00     0.018 A 
BRANCH  13  16
HETATM   16  O   UNL     1      32.277  51.184  40.978  1.00  0.00    -0.350 OA
BRANCH  16  17
HETATM   17  C   UNL     1      33.699  51.285  41.009  1.00  0.00     0.179 C 
BRANCH  17  18
HETATM   18  C   UNL     1      34.205  50.907  42.410  1.00  0.00     0.002 C 
HETATM   19  C   UNL     1      35.700  51.197  42.554  1.00  0.00     0.011 C 
HETATM   20  C   UNL     1      33.426  51.638  43.505  1.00  0.00     0.011 C 
ENDBRANCH  17  18
ENDBRANCH  16  17
ENDBRANCH  13  16
ENDBRANCH   7   9
ENDBRANCH   6   7
BRANCH   1  21
HETATM   21  C   UNL     1      27.273  48.014  39.872  1.00  0.00    -0.028 A 
HETATM   22  C   UNL     1      26.961  47.991  38.502  1.00  0.00     0.012 A 
HETATM   23  C   UNL     1      26.763  49.181  37.803  1.00  0.00     0.040 A 
HETATM   24  C   UNL     1      26.914  50.395  38.462  1.00  0.00     0.099 A 
HETATM   25  C   UNL     1      27.269  50.453  39.809  1.00  0.00     0.102 A 
HETATM   26  C   UNL     1      27.415  49.260  40.518  1.00  0.00     0.049 A 
BRANCH  24  27
HETATM   27  O   UNL     1      26.732  51.543  37.744  1.00  0.00    -0.358 OA
HETATM   28  H   UNL     1      25.940  51.969  38.127  1.00  0.00     0.218 HD
ENDBRANCH  24  27
BRANCH  25  29
HETATM   29  O   UNL     1      27.441  51.711  40.324  1.00  0.00    -0.349 OA
BRANCH  29  30
HETATM   30  C   UNL     1      28.593  51.898  41.152  1.00  0.00     0.171 C 
HETATM   31  C   UNL     1      29.386  53.075  40.615  1.00  0.00     0.034 C 
ENDBRANCH  29  30
ENDBRANCH  25  29
ENDBRANCH   1  21
BRANCH   5  32
HETATM   32  O   UNL     1      28.851  43.485  39.534  1.00  0.00    -0.355 OA
HETATM   33  H   UNL     1      29.615  43.342  40.124  1.00  0.00     0.218 HD
ENDBRANCH   5  32
BRANCH   2  34
HETATM   34  C   UNL     1      25.152  46.156  41.416  1.00  0.00     0.129 C 
BRANCH  34  35
HETATM   35  C   UNL     1      23.927  46.273  40.506  1.00  0.00     0.048 C 
BRANCH  35  36
HETATM   36  C   UNL     1      22.823  47.246  40.932  1.00  0.00     0.236 C 
BRANCH  36  37
HETATM   37  N   UNL     1      22.385  48.273  39.912  1.00  0.00    -0.067 N 
HETATM   38  H   UNL     1      21.635  47.797  39.391  1.00  0.00     0.280 HD
HETATM   39  C   UNL     1      21.708  49.513  40.484  1.00  0.00     0.261 C 
HETATM   40  C   UNL     1      21.134  50.357  39.337  1.00  0.00     0.195 C 
HETATM   41  O   UNL     1      22.149  50.700  38.386  1.00  0.00    -0.388 OA
HETATM   42  C   UNL     1      22.744  49.539  37.796  1.00  0.00     0.195 C 
HETATM   43  C   UNL     1      23.416  48.666  38.864  1.00  0.00     0.261 C 
ENDBRANCH  36  37
ENDBRANCH  35  36
ENDBRANCH  34  35
ENDBRANCH   2  34
TORSDOF 14
ENDMDL
MODEL 10
REMARK VINA RESULT:      -6.9      6.193     10.399
REMARK  14 active torsions:
REMARK  status: ('A' for Active; 'I' for Inactive)
REMARK    1  A    between atoms: C_2  and  O_3 
REMARK    2  A    between atoms: O_3  and  C_4 
REMARK    3  A    between atoms: C_5  and  O_6 
REMARK    4  A    between atoms: C_9  and  C_10 
REMARK    5  A    between atoms: N_11  and  C_12 
REMARK    6  A    between atoms: C_12  and  C_13 
REMARK    7  A    between atoms: C_13  and  C_14 
REMARK    8  A    between atoms: C_14  and  N_15 
REMARK    9  A    between atoms: C_24  and  O_25 
REMARK   10  A    between atoms: C_26  and  C_27 
REMARK   11  A    between atoms: C_27  and  C_28 
REMARK   12  A    between atoms: C_32  and  O_33 
REMARK   13  A    between atoms: O_33  and  C_34 
REMARK   14  A    between atoms: C_34  and  C_35 
ROOT
HETATM    1  C   UNL     1      27.783  42.980  50.610  1.00  0.00     0.161 C 
HETATM    2  N   UNL     1      28.393  42.497  51.848  1.00  0.00    -0.333 N 
HETATM    3  C   UNL     1      28.283  41.121  51.939  1.00  0.00     0.278 C 
HETATM    4  O   UNL     1      28.771  40.387  52.780  1.00  0.00    -0.265 OA
HETATM    5  C   UNL     1      27.401  40.666  50.852  1.00  0.00     0.146 C 
HETATM    6  C   UNL     1      27.094  41.744  50.121  1.00  0.00     0.059 C 
ENDROOT
BRANCH   6   7
HETATM    7  C   UNL     1      26.039  41.712  49.092  1.00  0.00     0.193 C 
HETATM    8  O   UNL     1      24.907  42.107  49.354  1.00  0.00    -0.287 OA
BRANCH   7   9
HETATM    9  C   UNL     1      26.375  41.330  47.699  1.00  0.00     0.015 A 
HETATM   10  C   UNL     1      25.313  41.116  46.812  1.00  0.00     0.025 A 
HETATM   11  C   UNL     1      25.553  40.743  45.482  1.00  0.00    -0.028 A 
HETATM   12  C   UNL     1      24.391  40.510  44.554  1.00  0.00     0.051 C 
HETATM   13  C   UNL     1      26.875  40.592  45.033  1.00  0.00     0.074 A 
HETATM   14  C   UNL     1      27.935  40.789  45.925  1.00  0.00     0.038 A 
HETATM   15  C   UNL     1      27.688  41.146  47.258  1.00  0.00     0.018 A 
BRANCH  13  16
HETATM   16  O   UNL     1      27.004  40.246  43.717  1.00  0.00    -0.350 OA
BRANCH  16  17
HETATM   17  C   UNL     1      28.282  40.368  43.097  1.00  0.00     0.179 C 
BRANCH  17  18
HETATM   18  C   UNL     1      28.704  39.002  42.531  1.00  0.00     0.002 C 
HETATM   19  C   UNL     1      29.469  39.163  41.215  1.00  0.00     0.011 C 
HETATM   20  C   UNL     1      29.554  38.218  43.533  1.00  0.00     0.011 C 
ENDBRANCH  17  18
ENDBRANCH  16  17
ENDBRANCH  13  16
ENDBRANCH   7   9
ENDBRANCH   6   7
BRANCH   1  21
HETATM   21  C   UNL     1      26.889  44.186  50.793  1.00  0.00    -0.028 A 
HETATM   22  C   UNL     1      25.864  44.212  51.755  1.00  0.00     0.012 A 
HETATM   23  C   UNL     1      25.031  45.324  51.869  1.00  0.00     0.040 A 
HETATM   24  C   UNL     1      25.196  46.395  50.999  1.00  0.00     0.099 A 
HETATM   25  C   UNL     1      26.173  46.380  50.003  1.00  0.00     0.102 A 
HETATM   26  C   UNL     1      27.038  45.288  49.926  1.00  0.00     0.049 A 
BRANCH  24  27
HETATM   27  O   UNL     1      24.352  47.462  51.123  1.00  0.00    -0.358 OA
HETATM   28  H   UNL     1      23.450  47.093  51.047  1.00  0.00     0.218 HD
ENDBRANCH  24  27
BRANCH  25  29
HETATM   29  O   UNL     1      26.194  47.472  49.176  1.00  0.00    -0.349 OA
BRANCH  29  30
HETATM   30  C   UNL     1      27.422  48.205  49.134  1.00  0.00     0.171 C 
HETATM   31  C   UNL     1      27.114  49.638  48.741  1.00  0.00     0.034 C 
ENDBRANCH  29  30
ENDBRANCH  25  29
ENDBRANCH   1  21
BRANCH   5  32
HETATM   32  O   UNL     1      26.982  39.380  50.712  1.00  0.00    -0.355 OA
HETATM   33  H   UNL     1      26.046  39.406  50.434  1.00  0.00     0.218 HD
ENDBRANCH   5  32
BRANCH   2  34
HETATM   34  C   UNL     1      29.364  43.257  52.622  1.00  0.00     0.129 C 
BRANCH  34  35
HETATM   35  C   UNL     1      29.278  43.049  54.136  1.00  0.00     0.048 C 
BRANCH  35  36
HETATM   36  C   UNL     1      30.532  43.350  54.961  1.00  0.00     0.236 C 
BRANCH  36  37
HETATM   37  N   UNL     1      30.341  44.147  56.232  1.00  0.00    -0.067 N 
HETATM   38  H   UNL     1      29.640  43.605  56.758  1.00  0.00     0.280 HD
HETATM   39  C   UNL     1      31.548  44.191  57.163  1.00  0.00     0.261 C 
HETATM   40  C   UNL     1      31.145  44.847  58.492  1.00  0.00     0.195 C 
HETATM   41  O   UNL     1      30.591  46.151  58.280  1.00  0.00    -0.388 OA
HETATM   42  C   UNL     1      29.418  46.108  57.460  1.00  0.00     0.195 C 
HETATM   43  C   UNL     1      29.741  45.536  56.074  1.00  0.00     0.261 C 
ENDBRANCH  36  37
ENDBRANCH  35  36
ENDBRANCH  34  35
ENDBRANCH   2  34
TORSDOF 14
ENDMDL
