MODEL 1
REMARK VINA RESULT:      -8.9      0.000      0.000
REMARK  10 active torsions:
REMARK  status: ('A' for Active; 'I' for Inactive)
REMARK    1  A    between atoms: C_2  and  C_3 
REMARK    2  A    between atoms: C_4  and  O_5 
REMARK    3  A    between atoms: C_6  and  C_7 
REMARK    4  A    between atoms: C_12  and  C_13 
REMARK    5  A    between atoms: N_14  and  N_15 
REMARK       I    between atoms: N_15  and  C_16 
REMARK    6  A    between atoms: C_16  and  C_17 
REMARK    7  A    between atoms: N_20  and  C_21 
REMARK    8  A    between atoms: C_25  and  N_26 
REMARK    9  A    between atoms: C_27  and  C_28 
REMARK   10  A    between atoms: C_28  and  N_29 
ROOT
HETATM    1  N   UNL     1      25.291  49.241  49.239  1.00  0.00    -0.145 NA
HETATM    2  C   UNL     1      24.237  49.667  48.439  1.00  0.00     0.273 C 
HETATM    3  O   UNL     1      24.449  50.082  47.295  1.00  0.00    -0.270 OA
HETATM    4  H   UNL     1      26.149  49.249  48.689  1.00  0.00     0.158 HD
ENDROOT
BRANCH   1   5
HETATM    5  N   UNL     1      25.172  48.061  49.933  1.00  0.00    -0.205 NA
HETATM    6  C   UNL     1      26.196  47.275  49.796  1.00  0.00     0.144 C 
BRANCH   6   7
HETATM    7  C   UNL     1      26.266  45.954  50.450  1.00  0.00    -0.016 A 
HETATM    8  C   UNL     1      26.076  44.784  49.716  1.00  0.00     0.023 A 
HETATM    9  C   UNL     1      26.163  43.523  50.330  1.00  0.00    -0.016 A 
HETATM   10  C   UNL     1      26.412  43.507  51.729  1.00  0.00     0.079 A 
HETATM   11  C   UNL     1      26.567  44.680  52.515  1.00  0.00    -0.016 A 
HETATM   12  C   UNL     1      26.523  45.903  51.821  1.00  0.00     0.023 A 
BRANCH   9  13
HETATM   13  C   UNL     1      26.004  42.225  49.497  1.00  0.00    -0.021 C 
HETATM   14  C   UNL     1      27.373  41.777  48.938  1.00  0.00     0.019 C 
HETATM   15  C   UNL     1      25.456  41.024  50.315  1.00  0.00     0.019 C 
HETATM   16  C   UNL     1      25.002  42.433  48.337  1.00  0.00     0.019 C 
ENDBRANCH   9  13
BRANCH  10  17
HETATM   17  O   UNL     1      26.490  42.274  52.316  1.00  0.00    -0.360 OA
HETATM   18  H   UNL     1      25.601  41.891  52.342  1.00  0.00     0.217 HD
ENDBRANCH  10  17
BRANCH  11  19
HETATM   19  C   UNL     1      26.763  44.677  54.055  1.00  0.00    -0.021 C 
HETATM   20  C   UNL     1      26.724  46.125  54.585  1.00  0.00     0.019 C 
HETATM   21  C   UNL     1      28.085  43.993  54.478  1.00  0.00     0.019 C 
HETATM   22  C   UNL     1      25.648  43.899  54.811  1.00  0.00     0.019 C 
ENDBRANCH  11  19
ENDBRANCH   6   7
ENDBRANCH   1   5
BRANCH   2  23
HETATM   23  C   UNL     1      22.875  49.652  48.977  1.00  0.00     0.170 C 
HETATM   24  N   UNL     1      22.352  50.634  49.767  1.00  0.00    -0.124 NA
HETATM   25  N   UNL     1      21.090  50.347  50.018  1.00  0.00    -0.058 NA
HETATM   26  N   UNL     1      20.739  49.238  49.322  1.00  0.00    -0.191 N 
HETATM   27  C   UNL     1      21.891  48.693  48.739  1.00  0.00     0.101 C 
BRANCH  26  28
HETATM   28  C   UNL     1      19.391  48.810  49.232  1.00  0.00     0.229 A 
HETATM   29  N   UNL     1      18.755  48.825  48.059  1.00  0.00    -0.081 NA
HETATM   30  O   UNL     1      17.469  48.379  48.371  1.00  0.00    -0.103 OA
HETATM   31  N   UNL     1      17.350  48.097  49.725  1.00  0.00    -0.083 NA
HETATM   32  C   UNL     1      18.538  48.369  50.260  1.00  0.00     0.201 A 
BRANCH  32  33
HETATM   33  N   UNL     1      18.840  48.221  51.560  1.00  0.00    -0.379 N 
HETATM   34  H   UNL     1      18.882  47.290  51.968  1.00  0.00     0.158 HD
HETATM   35  H   UNL     1      18.789  48.980  52.236  1.00  0.00     0.158 HD
ENDBRANCH  32  33
ENDBRANCH  26  28
BRANCH  27  36
HETATM   36  C   UNL     1      21.890  47.423  47.968  1.00  0.00     0.295 C 
BRANCH  36  37
HETATM   37  N   UNL     1      21.553  46.177  48.752  1.00  0.00    -0.073 N 
HETATM   38  H   UNL     1      21.368  46.481  49.729  1.00  0.00     0.279 HD
HETATM   39  C   UNL     1      20.327  45.468  48.259  1.00  0.00     0.269 C 
HETATM   40  C   UNL     1      22.727  45.243  48.848  1.00  0.00     0.269 C 
ENDBRANCH  36  37
ENDBRANCH  27  36
ENDBRANCH   2  23
TORSDOF 10
ENDMDL
MODEL 2
REMARK VINA RESULT:      -8.8      0.125      3.103
REMARK  10 active torsions:
REMARK  status: ('A' for Active; 'I' for Inactive)
REMARK    1  A    between atoms: C_2  and  C_3 
REMARK    2  A    between atoms: C_4  and  O_5 
REMARK    3  A    between atoms: C_6  and  C_7 
REMARK    4  A    between atoms: C_12  and  C_13 
REMARK    5  A    between atoms: N_14  and  N_15 
REMARK       I    between atoms: N_15  and  C_16 
REMARK    6  A    between atoms: C_16  and  C_17 
REMARK    7  A    between atoms: N_20  and  C_21 
REMARK    8  A    between atoms: C_25  and  N_26 
REMARK    9  A    between atoms: C_27  and  C_28 
REMARK   10  A    between atoms: C_28  and  N_29 
ROOT
HETATM    1  N   UNL     1      25.303  49.220  49.263  1.00  0.00    -0.145 NA
HETATM    2  C   UNL     1      24.250  49.630  48.456  1.00  0.00     0.273 C 
HETATM    3  O   UNL     1      24.462  50.032  47.308  1.00  0.00    -0.270 OA
HETATM    4  H   UNL     1      26.163  49.226  48.715  1.00  0.00     0.158 HD
ENDROOT
BRANCH   1   5
HETATM    5  N   UNL     1      25.188  48.048  49.972  1.00  0.00    -0.205 NA
HETATM    6  C   UNL     1      26.232  47.281  49.877  1.00  0.00     0.144 C 
BRANCH   6   7
HETATM    7  C   UNL     1      26.311  45.972  50.553  1.00  0.00    -0.016 A 
HETATM    8  C   UNL     1      26.630  45.887  51.907  1.00  0.00     0.023 A 
HETATM    9  C   UNL     1      26.685  44.644  52.561  1.00  0.00    -0.016 A 
HETATM   10  C   UNL     1      26.442  43.491  51.767  1.00  0.00     0.079 A 
HETATM   11  C   UNL     1      26.156  43.538  50.376  1.00  0.00    -0.016 A 
HETATM   12  C   UNL     1      26.062  44.820  49.804  1.00  0.00     0.023 A 
BRANCH   9  13
HETATM   13  C   UNL     1      26.988  44.562  54.079  1.00  0.00    -0.021 C 
HETATM   14  C   UNL     1      27.071  45.981  54.685  1.00  0.00     0.019 C 
HETATM   15  C   UNL     1      25.899  43.808  54.890  1.00  0.00     0.019 C 
HETATM   16  C   UNL     1      28.307  43.799  54.339  1.00  0.00     0.019 C 
ENDBRANCH   9  13
BRANCH  10  17
HETATM   17  O   UNL     1      26.502  42.288  52.413  1.00  0.00    -0.360 OA
HETATM   18  H   UNL     1      26.644  41.593  51.753  1.00  0.00     0.217 HD
ENDBRANCH  10  17
BRANCH  11  19
HETATM   19  C   UNL     1      25.965  42.283  49.484  1.00  0.00    -0.021 C 
HETATM   20  C   UNL     1      27.329  41.834  48.920  1.00  0.00     0.019 C 
HETATM   21  C   UNL     1      24.968  42.531  48.326  1.00  0.00     0.019 C 
HETATM   22  C   UNL     1      25.385  41.065  50.259  1.00  0.00     0.019 C 
ENDBRANCH  11  19
ENDBRANCH   6   7
ENDBRANCH   1   5
BRANCH   2  23
HETATM   23  C   UNL     1      22.886  49.615  48.990  1.00  0.00     0.170 C 
HETATM   24  N   UNL     1      22.364  50.593  49.785  1.00  0.00    -0.124 NA
HETATM   25  N   UNL     1      21.100  50.307  50.031  1.00  0.00    -0.058 NA
HETATM   26  N   UNL     1      20.748  49.204  49.327  1.00  0.00    -0.191 N 
HETATM   27  C   UNL     1      21.900  48.661  48.742  1.00  0.00     0.101 C 
BRANCH  26  28
HETATM   28  C   UNL     1      19.400  48.780  49.230  1.00  0.00     0.229 A 
HETATM   29  N   UNL     1      18.774  48.782  48.051  1.00  0.00    -0.081 NA
HETATM   30  O   UNL     1      17.483  48.345  48.357  1.00  0.00    -0.103 OA
HETATM   31  N   UNL     1      17.351  48.083  49.714  1.00  0.00    -0.083 NA
HETATM   32  C   UNL     1      18.535  48.357  50.256  1.00  0.00     0.201 A 
BRANCH  32  33
HETATM   33  N   UNL     1      18.824  48.226  51.561  1.00  0.00    -0.379 N 
HETATM   34  H   UNL     1      19.472  47.504  51.866  1.00  0.00     0.158 HD
HETATM   35  H   UNL     1      18.257  48.631  52.303  1.00  0.00     0.158 HD
ENDBRANCH  32  33
ENDBRANCH  26  28
BRANCH  27  36
HETATM   36  C   UNL     1      21.898  47.396  47.962  1.00  0.00     0.295 C 
BRANCH  36  37
HETATM   37  N   UNL     1      21.526  46.149  48.730  1.00  0.00    -0.073 N 
HETATM   38  H   UNL     1      21.297  46.453  49.697  1.00  0.00     0.279 HD
HETATM   39  C   UNL     1      20.323  45.440  48.181  1.00  0.00     0.269 C 
HETATM   40  C   UNL     1      22.694  45.216  48.878  1.00  0.00     0.269 C 
ENDBRANCH  36  37
ENDBRANCH  27  36
ENDBRANCH   2  23
TORSDOF 10
ENDMDL
MODEL 3
REMARK VINA RESULT:      -8.4      1.367      2.644
REMARK  10 active torsions:
REMARK  status: ('A' for Active; 'I' for Inactive)
REMARK    1  A    between atoms: C_2  and  C_3 
REMARK    2  A    between atoms: C_4  and  O_5 
REMARK    3  A    between atoms: C_6  and  C_7 
REMARK    4  A    between atoms: C_12  and  C_13 
REMARK    5  A    between atoms: N_14  and  N_15 
REMARK       I    between atoms: N_15  and  C_16 
REMARK    6  A    between atoms: C_16  and  C_17 
REMARK    7  A    between atoms: N_20  and  C_21 
REMARK    8  A    between atoms: C_25  and  N_26 
REMARK    9  A    between atoms: C_27  and  C_28 
REMARK   10  A    between atoms: C_28  and  N_29 
ROOT
HETATM    1  N   UNL     1      23.901  49.325  49.401  1.00  0.00    -0.145 NA
HETATM    2  C   UNL     1      23.380  49.454  48.120  1.00  0.00     0.273 C 
HETATM    3  O   UNL     1      23.933  50.184  47.291  1.00  0.00    -0.270 OA
HETATM    4  H   UNL     1      24.789  49.824  49.451  1.00  0.00     0.158 HD
ENDROOT
BRANCH   1   5
HETATM    5  N   UNL     1      24.018  48.073  49.955  1.00  0.00    -0.205 NA
HETATM    6  C   UNL     1      25.243  47.648  50.020  1.00  0.00     0.144 C 
BRANCH   6   7
HETATM    7  C   UNL     1      25.589  46.324  50.572  1.00  0.00    -0.016 A 
HETATM    8  C   UNL     1      25.380  45.164  49.826  1.00  0.00     0.023 A 
HETATM    9  C   UNL     1      25.727  43.903  50.339  1.00  0.00    -0.016 A 
HETATM   10  C   UNL     1      26.257  43.870  51.657  1.00  0.00     0.079 A 
HETATM   11  C   UNL     1      26.442  45.027  52.461  1.00  0.00    -0.016 A 
HETATM   12  C   UNL     1      26.125  46.258  51.859  1.00  0.00     0.023 A 
BRANCH   9  13
HETATM   13  C   UNL     1      25.542  42.623  49.483  1.00  0.00    -0.021 C 
HETATM   14  C   UNL     1      24.604  42.910  48.290  1.00  0.00     0.019 C 
HETATM   15  C   UNL     1      26.866  42.086  48.874  1.00  0.00     0.019 C 
HETATM   16  C   UNL     1      24.974  41.465  50.336  1.00  0.00     0.019 C 
ENDBRANCH   9  13
BRANCH  10  17
HETATM   17  O   UNL     1      26.587  42.636  52.146  1.00  0.00    -0.360 OA
HETATM   18  H   UNL     1      26.216  42.552  53.037  1.00  0.00     0.217 HD
ENDBRANCH  10  17
BRANCH  11  19
HETATM   19  C   UNL     1      26.948  44.996  53.928  1.00  0.00    -0.021 C 
HETATM   20  C   UNL     1      26.040  44.074  54.769  1.00  0.00     0.019 C 
HETATM   21  C   UNL     1      27.003  46.407  54.561  1.00  0.00     0.019 C 
HETATM   22  C   UNL     1      28.392  44.437  54.065  1.00  0.00     0.019 C 
ENDBRANCH  11  19
ENDBRANCH   6   7
ENDBRANCH   1   5
BRANCH   2  23
HETATM   23  C   UNL     1      22.149  48.741  47.769  1.00  0.00     0.170 C 
HETATM   24  N   UNL     1      22.100  47.425  47.416  1.00  0.00    -0.124 NA
HETATM   25  N   UNL     1      20.839  47.083  47.232  1.00  0.00    -0.058 NA
HETATM   26  N   UNL     1      20.044  48.131  47.555  1.00  0.00    -0.191 N 
HETATM   27  C   UNL     1      20.852  49.252  47.788  1.00  0.00     0.101 C 
BRANCH  26  28
HETATM   28  C   UNL     1      18.636  47.997  47.654  1.00  0.00     0.229 A 
HETATM   29  N   UNL     1      17.872  48.080  46.563  1.00  0.00    -0.081 NA
HETATM   30  O   UNL     1      16.572  47.939  47.055  1.00  0.00    -0.103 OA
HETATM   31  N   UNL     1      16.573  47.767  48.432  1.00  0.00    -0.083 NA
HETATM   32  C   UNL     1      17.850  47.809  48.805  1.00  0.00     0.201 A 
BRANCH  32  33
HETATM   33  N   UNL     1      18.279  47.675  50.070  1.00  0.00    -0.379 N 
HETATM   34  H   UNL     1      17.872  46.963  50.671  1.00  0.00     0.158 HD
HETATM   35  H   UNL     1      18.808  48.393  50.560  1.00  0.00     0.158 HD
ENDBRANCH  32  33
ENDBRANCH  26  28
BRANCH  27  36
HETATM   36  C   UNL     1      20.307  50.602  48.088  1.00  0.00     0.295 C 
BRANCH  36  37
HETATM   37  N   UNL     1      19.826  50.817  49.503  1.00  0.00    -0.073 N 
HETATM   38  H   UNL     1      19.307  49.958  49.776  1.00  0.00     0.279 HD
HETATM   39  C   UNL     1      20.936  51.008  50.494  1.00  0.00     0.269 C 
HETATM   40  C   UNL     1      18.817  51.927  49.588  1.00  0.00     0.269 C 
ENDBRANCH  36  37
ENDBRANCH  27  36
ENDBRANCH   2  23
TORSDOF 10
ENDMDL
MODEL 4
REMARK VINA RESULT:      -8.3      1.430      4.068
REMARK  10 active torsions:
REMARK  status: ('A' for Active; 'I' for Inactive)
REMARK    1  A    between atoms: C_2  and  C_3 
REMARK    2  A    between atoms: C_4  and  O_5 
REMARK    3  A    between atoms: C_6  and  C_7 
REMARK    4  A    between atoms: C_12  and  C_13 
REMARK    5  A    between atoms: N_14  and  N_15 
REMARK       I    between atoms: N_15  and  C_16 
REMARK    6  A    between atoms: C_16  and  C_17 
REMARK    7  A    between atoms: N_20  and  C_21 
REMARK    8  A    between atoms: C_25  and  N_26 
REMARK    9  A    between atoms: C_27  and  C_28 
REMARK   10  A    between atoms: C_28  and  N_29 
ROOT
HETATM    1  N   UNL     1      24.018  49.435  49.428  1.00  0.00    -0.145 NA
HETATM    2  C   UNL     1      23.495  49.406  48.141  1.00  0.00     0.273 C 
HETATM    3  O   UNL     1      24.041  50.038  47.231  1.00  0.00    -0.270 OA
HETATM    4  H   UNL     1      24.901  49.945  49.416  1.00  0.00     0.158 HD
ENDROOT
BRANCH   1   5
HETATM    5  N   UNL     1      24.147  48.259  50.127  1.00  0.00    -0.205 NA
HETATM    6  C   UNL     1      25.257  47.631  49.883  1.00  0.00     0.144 C 
BRANCH   6   7
HETATM    7  C   UNL     1      25.589  46.343  50.522  1.00  0.00    -0.016 A 
HETATM    8  C   UNL     1      26.098  46.302  51.819  1.00  0.00     0.023 A 
HETATM    9  C   UNL     1      26.396  45.077  52.441  1.00  0.00    -0.016 A 
HETATM   10  C   UNL     1      26.191  43.901  51.670  1.00  0.00     0.079 A 
HETATM   11  C   UNL     1      25.715  43.909  50.331  1.00  0.00    -0.016 A 
HETATM   12  C   UNL     1      25.386  45.168  49.797  1.00  0.00     0.023 A 
BRANCH   9  13
HETATM   13  C   UNL     1      26.910  45.036  53.903  1.00  0.00    -0.021 C 
HETATM   14  C   UNL     1      26.024  44.101  54.755  1.00  0.00     0.019 C 
HETATM   15  C   UNL     1      28.361  44.499  54.037  1.00  0.00     0.019 C 
HETATM   16  C   UNL     1      26.931  46.454  54.521  1.00  0.00     0.019 C 
ENDBRANCH   9  13
BRANCH  10  17
HETATM   17  O   UNL     1      26.488  42.716  52.284  1.00  0.00    -0.360 OA
HETATM   18  H   UNL     1      25.700  42.413  52.760  1.00  0.00     0.217 HD
ENDBRANCH  10  17
BRANCH  11  19
HETATM   19  C   UNL     1      25.561  42.638  49.455  1.00  0.00    -0.021 C 
HETATM   20  C   UNL     1      24.634  42.942  48.260  1.00  0.00     0.019 C 
HETATM   21  C   UNL     1      25.013  41.433  50.257  1.00  0.00     0.019 C 
HETATM   22  C   UNL     1      26.907  42.142  48.854  1.00  0.00     0.019 C 
ENDBRANCH  11  19
ENDBRANCH   6   7
ENDBRANCH   1   5
BRANCH   2  23
HETATM   23  C   UNL     1      22.270  48.647  47.879  1.00  0.00     0.170 C 
HETATM   24  N   UNL     1      22.246  47.325  47.542  1.00  0.00    -0.124 NA
HETATM   25  N   UNL     1      20.989  46.937  47.445  1.00  0.00    -0.058 NA
HETATM   26  N   UNL     1      20.179  47.959  47.813  1.00  0.00    -0.191 N 
HETATM   27  C   UNL     1      20.959  49.110  47.981  1.00  0.00     0.101 C 
BRANCH  26  28
HETATM   28  C   UNL     1      18.787  47.775  48.006  1.00  0.00     0.229 A 
HETATM   29  N   UNL     1      18.247  47.932  49.216  1.00  0.00    -0.081 NA
HETATM   30  O   UNL     1      16.896  47.638  49.020  1.00  0.00    -0.103 OA
HETATM   31  N   UNL     1      16.641  47.312  47.695  1.00  0.00    -0.083 NA
HETATM   32  C   UNL     1      17.812  47.391  47.067  1.00  0.00     0.201 A 
BRANCH  32  33
HETATM   33  N   UNL     1      17.993  47.154  45.758  1.00  0.00    -0.379 N 
HETATM   34  H   UNL     1      17.908  47.914  45.089  1.00  0.00     0.158 HD
HETATM   35  H   UNL     1      17.964  46.222  45.350  1.00  0.00     0.158 HD
ENDBRANCH  32  33
ENDBRANCH  26  28
BRANCH  27  36
HETATM   36  C   UNL     1      20.387  50.443  48.305  1.00  0.00     0.295 C 
BRANCH  36  37
HETATM   37  N   UNL     1      19.999  50.658  49.749  1.00  0.00    -0.073 N 
HETATM   38  H   UNL     1      19.621  49.753  50.094  1.00  0.00     0.279 HD
HETATM   39  C   UNL     1      21.151  51.034  50.633  1.00  0.00     0.269 C 
HETATM   40  C   UNL     1      18.863  51.633  49.883  1.00  0.00     0.269 C 
ENDBRANCH  36  37
ENDBRANCH  27  36
ENDBRANCH   2  23
TORSDOF 10
ENDMDL
MODEL 5
REMARK VINA RESULT:      -8.2      1.701      2.234
REMARK  10 active torsions:
REMARK  status: ('A' for Active; 'I' for Inactive)
REMARK    1  A    between atoms: C_2  and  C_3 
REMARK    2  A    between atoms: C_4  and  O_5 
REMARK    3  A    between atoms: C_6  and  C_7 
REMARK    4  A    between atoms: C_12  and  C_13 
REMARK    5  A    between atoms: N_14  and  N_15 
REMARK       I    between atoms: N_15  and  C_16 
REMARK    6  A    between atoms: C_16  and  C_17 
REMARK    7  A    between atoms: N_20  and  C_21 
REMARK    8  A    between atoms: C_25  and  N_26 
REMARK    9  A    between atoms: C_27  and  C_28 
REMARK   10  A    between atoms: C_28  and  N_29 
ROOT
HETATM    1  N   UNL     1      24.955  49.652  48.904  1.00  0.00    -0.145 NA
HETATM    2  C   UNL     1      23.920  50.428  48.397  1.00  0.00     0.273 C 
HETATM    3  O   UNL     1      24.048  51.012  47.316  1.00  0.00    -0.270 OA
HETATM    4  H   UNL     1      25.701  49.601  48.211  1.00  0.00     0.158 HD
ENDROOT
BRANCH   1   5
HETATM    5  N   UNL     1      24.675  48.405  49.408  1.00  0.00    -0.205 NA
HETATM    6  C   UNL     1      25.725  47.769  49.829  1.00  0.00     0.144 C 
BRANCH   6   7
HETATM    7  C   UNL     1      25.646  46.410  50.398  1.00  0.00    -0.016 A 
HETATM    8  C   UNL     1      24.997  45.386  49.710  1.00  0.00     0.023 A 
HETATM    9  C   UNL     1      24.937  44.084  50.238  1.00  0.00    -0.016 A 
HETATM   10  C   UNL     1      25.531  43.882  51.513  1.00  0.00     0.079 A 
HETATM   11  C   UNL     1      26.162  44.912  52.261  1.00  0.00    -0.016 A 
HETATM   12  C   UNL     1      26.232  46.174  51.644  1.00  0.00     0.023 A 
BRANCH   9  13
HETATM   13  C   UNL     1      24.261  42.939  49.441  1.00  0.00    -0.021 C 
HETATM   14  C   UNL     1      23.932  43.407  48.007  1.00  0.00     0.019 C 
HETATM   15  C   UNL     1      25.152  41.676  49.291  1.00  0.00     0.019 C 
HETATM   16  C   UNL     1      22.973  42.459  50.149  1.00  0.00     0.019 C 
ENDBRANCH   9  13
BRANCH  10  17
HETATM   17  O   UNL     1      25.463  42.613  52.017  1.00  0.00    -0.360 OA
HETATM   18  H   UNL     1      26.091  42.542  52.751  1.00  0.00     0.217 HD
ENDBRANCH  10  17
BRANCH  11  19
HETATM   19  C   UNL     1      26.745  44.720  53.686  1.00  0.00    -0.021 C 
HETATM   20  C   UNL     1      25.664  44.125  54.612  1.00  0.00     0.019 C 
HETATM   21  C   UNL     1      27.285  46.042  54.283  1.00  0.00     0.019 C 
HETATM   22  C   UNL     1      27.950  43.738  53.726  1.00  0.00     0.019 C 
ENDBRANCH  11  19
ENDBRANCH   6   7
ENDBRANCH   1   5
BRANCH   2  23
HETATM   23  C   UNL     1      22.685  50.575  49.171  1.00  0.00     0.170 C 
HETATM   24  N   UNL     1      22.631  51.076  50.439  1.00  0.00    -0.124 NA
HETATM   25  N   UNL     1      21.369  51.136  50.816  1.00  0.00    -0.058 NA
HETATM   26  N   UNL     1      20.577  50.774  49.778  1.00  0.00    -0.191 N 
HETATM   27  C   UNL     1      21.389  50.290  48.744  1.00  0.00     0.101 C 
BRANCH  26  28
HETATM   28  C   UNL     1      19.170  50.939  49.820  1.00  0.00     0.229 A 
HETATM   29  N   UNL     1      18.416  50.119  50.556  1.00  0.00    -0.081 NA
HETATM   30  O   UNL     1      17.113  50.562  50.319  1.00  0.00    -0.103 OA
HETATM   31  N   UNL     1      17.101  51.644  49.449  1.00  0.00    -0.083 NA
HETATM   32  C   UNL     1      18.374  51.874  49.135  1.00  0.00     0.201 A 
BRANCH  32  33
HETATM   33  N   UNL     1      18.791  52.851  48.313  1.00  0.00    -0.379 N 
HETATM   34  H   UNL     1      18.213  53.132  47.525  1.00  0.00     0.158 HD
HETATM   35  H   UNL     1      19.757  53.169  48.268  1.00  0.00     0.158 HD
ENDBRANCH  32  33
ENDBRANCH  26  28
BRANCH  27  36
HETATM   36  C   UNL     1      20.848  49.729  47.478  1.00  0.00     0.295 C 
BRANCH  36  37
HETATM   37  N   UNL     1      20.238  48.351  47.577  1.00  0.00    -0.073 N 
HETATM   38  H   UNL     1      19.526  48.394  48.334  1.00  0.00     0.279 HD
HETATM   39  C   UNL     1      19.540  47.909  46.325  1.00  0.00     0.269 C 
HETATM   40  C   UNL     1      21.238  47.329  48.038  1.00  0.00     0.269 C 
ENDBRANCH  36  37
ENDBRANCH  27  36
ENDBRANCH   2  23
TORSDOF 10
ENDMDL
MODEL 6
REMARK VINA RESULT:      -8.1      1.666      3.656
REMARK  10 active torsions:
REMARK  status: ('A' for Active; 'I' for Inactive)
REMARK    1  A    between atoms: C_2  and  C_3 
REMARK    2  A    between atoms: C_4  and  O_5 
REMARK    3  A    between atoms: C_6  and  C_7 
REMARK    4  A    between atoms: C_12  and  C_13 
REMARK    5  A    between atoms: N_14  and  N_15 
REMARK       I    between atoms: N_15  and  C_16 
REMARK    6  A    between atoms: C_16  and  C_17 
REMARK    7  A    between atoms: N_20  and  C_21 
REMARK    8  A    between atoms: C_25  and  N_26 
REMARK    9  A    between atoms: C_27  and  C_28 
REMARK   10  A    between atoms: C_28  and  N_29 
ROOT
HETATM    1  N   UNL     1      23.456  49.974  49.240  1.00  0.00    -0.145 NA
HETATM    2  C   UNL     1      22.399  50.229  48.377  1.00  0.00     0.273 C 
HETATM    3  O   UNL     1      22.610  50.667  47.242  1.00  0.00    -0.270 OA
HETATM    4  H   UNL     1      24.334  50.112  48.740  1.00  0.00     0.158 HD
ENDROOT
BRANCH   1   5
HETATM    5  N   UNL     1      23.480  48.792  49.942  1.00  0.00    -0.205 NA
HETATM    6  C   UNL     1      24.499  48.041  49.656  1.00  0.00     0.144 C 
BRANCH   6   7
HETATM    7  C   UNL     1      24.708  46.725  50.290  1.00  0.00    -0.016 A 
HETATM    8  C   UNL     1      25.273  46.628  51.561  1.00  0.00     0.023 A 
HETATM    9  C   UNL     1      25.455  45.379  52.179  1.00  0.00    -0.016 A 
HETATM   10  C   UNL     1      25.076  44.232  51.429  1.00  0.00     0.079 A 
HETATM   11  C   UNL     1      24.538  44.292  50.116  1.00  0.00    -0.016 A 
HETATM   12  C   UNL     1      24.333  45.579  49.587  1.00  0.00     0.023 A 
BRANCH   9  13
HETATM   13  C   UNL     1      26.033  45.283  53.614  1.00  0.00    -0.021 C 
HETATM   14  C   UNL     1      27.454  44.679  53.579  1.00  0.00     0.019 C 
HETATM   15  C   UNL     1      26.164  46.657  54.325  1.00  0.00     0.019 C 
HETATM   16  C   UNL     1      25.118  44.428  54.522  1.00  0.00     0.019 C 
ENDBRANCH   9  13
BRANCH  10  17
HETATM   17  O   UNL     1      25.261  43.022  52.039  1.00  0.00    -0.360 OA
HETATM   18  H   UNL     1      24.846  42.338  51.493  1.00  0.00     0.217 HD
ENDBRANCH  10  17
BRANCH  11  19
HETATM   19  C   UNL     1      24.192  43.045  49.260  1.00  0.00    -0.021 C 
HETATM   20  C   UNL     1      22.961  42.332  49.857  1.00  0.00     0.019 C 
HETATM   21  C   UNL     1      25.378  42.055  49.155  1.00  0.00     0.019 C 
HETATM   22  C   UNL     1      23.829  43.394  47.789  1.00  0.00     0.019 C 
ENDBRANCH  11  19
ENDBRANCH   6   7
ENDBRANCH   1   5
BRANCH   2  23
HETATM   23  C   UNL     1      21.025  50.007  48.836  1.00  0.00     0.170 C 
HETATM   24  N   UNL     1      20.408  50.755  49.794  1.00  0.00    -0.124 NA
HETATM   25  N   UNL     1      19.163  50.338  49.920  1.00  0.00    -0.058 NA
HETATM   26  N   UNL     1      18.917  49.387  48.986  1.00  0.00    -0.191 N 
HETATM   27  C   UNL     1      20.123  49.060  48.352  1.00  0.00     0.101 C 
BRANCH  26  28
HETATM   28  C   UNL     1      17.608  48.900  48.744  1.00  0.00     0.229 A 
HETATM   29  N   UNL     1      17.300  47.630  49.011  1.00  0.00    -0.081 NA
HETATM   30  O   UNL     1      15.965  47.520  48.615  1.00  0.00    -0.103 OA
HETATM   31  N   UNL     1      15.488  48.726  48.121  1.00  0.00    -0.083 NA
HETATM   32  C   UNL     1      16.506  49.580  48.194  1.00  0.00     0.201 A 
BRANCH  32  33
HETATM   33  N   UNL     1      16.450  50.866  47.814  1.00  0.00    -0.379 N 
HETATM   34  H   UNL     1      15.549  51.327  47.716  1.00  0.00     0.158 HD
HETATM   35  H   UNL     1      17.228  51.354  47.375  1.00  0.00     0.158 HD
ENDBRANCH  32  33
ENDBRANCH  26  28
BRANCH  27  36
HETATM   36  C   UNL     1      20.240  47.992  47.325  1.00  0.00     0.295 C 
BRANCH  36  37
HETATM   37  N   UNL     1      21.129  46.826  47.688  1.00  0.00    -0.073 N 
HETATM   38  H   UNL     1      21.971  47.225  48.149  1.00  0.00     0.279 HD
HETATM   39  C   UNL     1      20.498  45.865  48.652  1.00  0.00     0.269 C 
HETATM   40  C   UNL     1      21.648  46.119  46.468  1.00  0.00     0.269 C 
ENDBRANCH  36  37
ENDBRANCH  27  36
ENDBRANCH   2  23
TORSDOF 10
ENDMDL
MODEL 7
REMARK VINA RESULT:      -8.0      3.127      8.586
REMARK  10 active torsions:
REMARK  status: ('A' for Active; 'I' for Inactive)
REMARK    1  A    between atoms: C_2  and  C_3 
REMARK    2  A    between atoms: C_4  and  O_5 
REMARK    3  A    between atoms: C_6  and  C_7 
REMARK    4  A    between atoms: C_12  and  C_13 
REMARK    5  A    between atoms: N_14  and  N_15 
REMARK       I    between atoms: N_15  and  C_16 
REMARK    6  A    between atoms: C_16  and  C_17 
REMARK    7  A    between atoms: N_20  and  C_21 
REMARK    8  A    between atoms: C_25  and  N_26 
REMARK    9  A    between atoms: C_27  and  C_28 
REMARK   10  A    between atoms: C_28  and  N_29 
ROOT
HETATM    1  N   UNL     1      25.341  48.169  50.280  1.00  0.00    -0.145 NA
HETATM    2  C   UNL     1      25.970  47.242  51.102  1.00  0.00     0.273 C 
HETATM    3  O   UNL     1      26.300  47.550  52.252  1.00  0.00    -0.270 OA
HETATM    4  H   UNL     1      25.147  49.013  50.819  1.00  0.00     0.158 HD
ENDROOT
BRANCH   1   5
HETATM    5  N   UNL     1      24.234  47.788  49.561  1.00  0.00    -0.205 NA
HETATM    6  C   UNL     1      23.447  48.775  49.259  1.00  0.00     0.144 C 
BRANCH   6   7
HETATM    7  C   UNL     1      22.197  48.581  48.499  1.00  0.00    -0.016 A 
HETATM    8  C   UNL     1      22.002  47.436  47.729  1.00  0.00     0.023 A 
HETATM    9  C   UNL     1      20.805  47.236  47.020  1.00  0.00    -0.016 A 
HETATM   10  C   UNL     1      19.834  48.271  47.097  1.00  0.00     0.079 A 
HETATM   11  C   UNL     1      20.018  49.470  47.837  1.00  0.00    -0.016 A 
HETATM   12  C   UNL     1      21.217  49.573  48.565  1.00  0.00     0.023 A 
BRANCH   9  13
HETATM   13  C   UNL     1      20.574  45.934  46.210  1.00  0.00    -0.021 C 
HETATM   14  C   UNL     1      19.452  45.093  46.858  1.00  0.00     0.019 C 
HETATM   15  C   UNL     1      20.134  46.186  44.742  1.00  0.00     0.019 C 
HETATM   16  C   UNL     1      21.874  45.102  46.119  1.00  0.00     0.019 C 
ENDBRANCH   9  13
BRANCH  10  17
HETATM   17  O   UNL     1      18.676  48.066  46.400  1.00  0.00    -0.360 OA
HETATM   18  H   UNL     1      17.957  47.929  47.036  1.00  0.00     0.217 HD
ENDBRANCH  10  17
BRANCH  11  19
HETATM   19  C   UNL     1      18.998  50.639  47.866  1.00  0.00    -0.021 C 
HETATM   20  C   UNL     1      17.783  50.245  48.732  1.00  0.00     0.019 C 
HETATM   21  C   UNL     1      18.528  51.045  46.448  1.00  0.00     0.019 C 
HETATM   22  C   UNL     1      19.579  51.941  48.486  1.00  0.00     0.019 C 
ENDBRANCH  11  19
ENDBRANCH   6   7
ENDBRANCH   1   5
BRANCH   2  23
HETATM   23  C   UNL     1      26.269  45.906  50.582  1.00  0.00     0.170 C 
HETATM   24  N   UNL     1      27.007  45.669  49.459  1.00  0.00    -0.124 NA
HETATM   25  N   UNL     1      27.144  44.365  49.311  1.00  0.00    -0.058 NA
HETATM   26  N   UNL     1      26.590  43.737  50.377  1.00  0.00    -0.191 N 
HETATM   27  C   UNL     1      25.911  44.685  51.153  1.00  0.00     0.101 C 
BRANCH  26  28
HETATM   28  C   UNL     1      26.765  42.348  50.597  1.00  0.00     0.229 A 
HETATM   29  N   UNL     1      27.824  41.899  51.274  1.00  0.00    -0.081 NA
HETATM   30  O   UNL     1      27.671  40.511  51.252  1.00  0.00    -0.103 OA
HETATM   31  N   UNL     1      26.521  40.144  50.567  1.00  0.00    -0.083 NA
HETATM   32  C   UNL     1      25.962  41.280  50.156  1.00  0.00     0.201 A 
BRANCH  32  33
HETATM   33  N   UNL     1      24.819  41.357  49.455  1.00  0.00    -0.379 N 
HETATM   34  H   UNL     1      24.026  40.775  49.713  1.00  0.00     0.158 HD
HETATM   35  H   UNL     1      24.758  41.773  48.528  1.00  0.00     0.158 HD
ENDBRANCH  32  33
ENDBRANCH  26  28
BRANCH  27  36
HETATM   36  C   UNL     1      25.117  44.334  52.359  1.00  0.00     0.295 C 
BRANCH  36  37
HETATM   37  N   UNL     1      25.707  44.761  53.683  1.00  0.00    -0.073 N 
HETATM   38  H   UNL     1      25.646  45.798  53.715  1.00  0.00     0.279 HD
HETATM   39  C   UNL     1      24.966  44.227  54.873  1.00  0.00     0.269 C 
HETATM   40  C   UNL     1      27.175  44.453  53.766  1.00  0.00     0.269 C 
ENDBRANCH  36  37
ENDBRANCH  27  36
ENDBRANCH   2  23
TORSDOF 10
ENDMDL
MODEL 8
REMARK VINA RESULT:      -7.9      3.129      8.872
REMARK  10 active torsions:
REMARK  status: ('A' for Active; 'I' for Inactive)
REMARK    1  A    between atoms: C_2  and  C_3 
REMARK    2  A    between atoms: C_4  and  O_5 
REMARK    3  A    between atoms: C_6  and  C_7 
REMARK    4  A    between atoms: C_12  and  C_13 
REMARK    5  A    between atoms: N_14  and  N_15 
REMARK       I    between atoms: N_15  and  C_16 
REMARK    6  A    between atoms: C_16  and  C_17 
REMARK    7  A    between atoms: N_20  and  C_21 
REMARK    8  A    between atoms: C_25  and  N_26 
REMARK    9  A    between atoms: C_27  and  C_28 
REMARK   10  A    between atoms: C_28  and  N_29 
ROOT
HETATM    1  N   UNL     1      25.314  48.160  50.333  1.00  0.00    -0.145 NA
HETATM    2  C   UNL     1      25.929  47.217  51.146  1.00  0.00     0.273 C 
HETATM    3  O   UNL     1      26.244  47.502  52.306  1.00  0.00    -0.270 OA
HETATM    4  H   UNL     1      25.113  48.994  50.885  1.00  0.00     0.158 HD
ENDROOT
BRANCH   1   5
HETATM    5  N   UNL     1      24.216  47.793  49.593  1.00  0.00    -0.205 NA
HETATM    6  C   UNL     1      23.438  48.789  49.294  1.00  0.00     0.144 C 
BRANCH   6   7
HETATM    7  C   UNL     1      22.198  48.611  48.512  1.00  0.00    -0.016 A 
HETATM    8  C   UNL     1      21.209  49.593  48.513  1.00  0.00     0.023 A 
HETATM    9  C   UNL     1      20.036  49.439  47.753  1.00  0.00    -0.016 A 
HETATM   10  C   UNL     1      19.898  48.225  47.027  1.00  0.00     0.079 A 
HETATM   11  C   UNL     1      20.866  47.185  47.039  1.00  0.00    -0.016 A 
HETATM   12  C   UNL     1      22.038  47.436  47.776  1.00  0.00     0.023 A 
BRANCH   9  13
HETATM   13  C   UNL     1      18.965  50.559  47.716  1.00  0.00    -0.021 C 
HETATM   14  C   UNL     1      19.484  51.819  48.443  1.00  0.00     0.019 C 
HETATM   15  C   UNL     1      18.588  51.011  46.280  1.00  0.00     0.019 C 
HETATM   16  C   UNL     1      17.644  50.082  48.364  1.00  0.00     0.019 C 
ENDBRANCH   9  13
BRANCH  10  17
HETATM   17  O   UNL     1      18.751  48.085  46.296  1.00  0.00    -0.360 OA
HETATM   18  H   UNL     1      18.064  47.719  46.872  1.00  0.00     0.217 HD
ENDBRANCH  10  17
BRANCH  11  19
HETATM   19  C   UNL     1      20.692  45.825  46.312  1.00  0.00    -0.021 C 
HETATM   20  C   UNL     1      19.425  45.117  46.836  1.00  0.00     0.019 C 
HETATM   21  C   UNL     1      21.924  44.904  46.484  1.00  0.00     0.019 C 
HETATM   22  C   UNL     1      20.511  45.972  44.775  1.00  0.00     0.019 C 
ENDBRANCH  11  19
ENDBRANCH   6   7
ENDBRANCH   1   5
BRANCH   2  23
HETATM   23  C   UNL     1      26.234  45.890  50.606  1.00  0.00     0.170 C 
HETATM   24  N   UNL     1      26.952  45.673  49.466  1.00  0.00    -0.124 NA
HETATM   25  N   UNL     1      27.101  44.373  49.301  1.00  0.00    -0.058 NA
HETATM   26  N   UNL     1      26.576  43.727  50.370  1.00  0.00    -0.191 N 
HETATM   27  C   UNL     1      25.902  44.659  51.170  1.00  0.00     0.101 C 
BRANCH  26  28
HETATM   28  C   UNL     1      26.772  42.338  50.571  1.00  0.00     0.229 A 
HETATM   29  N   UNL     1      27.835  41.896  51.246  1.00  0.00    -0.081 NA
HETATM   30  O   UNL     1      27.704  40.506  51.204  1.00  0.00    -0.103 OA
HETATM   31  N   UNL     1      26.562  40.131  50.509  1.00  0.00    -0.083 NA
HETATM   32  C   UNL     1      25.988  41.264  50.112  1.00  0.00     0.201 A 
BRANCH  32  33
HETATM   33  N   UNL     1      24.846  41.333  49.408  1.00  0.00    -0.379 N 
HETATM   34  H   UNL     1      24.879  41.472  48.401  1.00  0.00     0.158 HD
HETATM   35  H   UNL     1      23.937  41.506  49.832  1.00  0.00     0.158 HD
ENDBRANCH  32  33
ENDBRANCH  26  28
BRANCH  27  36
HETATM   36  C   UNL     1      25.137  44.285  52.388  1.00  0.00     0.295 C 
BRANCH  36  37
HETATM   37  N   UNL     1      25.726  44.743  53.702  1.00  0.00    -0.073 N 
HETATM   38  H   UNL     1      25.677  45.782  53.704  1.00  0.00     0.279 HD
HETATM   39  C   UNL     1      24.973  44.253  54.903  1.00  0.00     0.269 C 
HETATM   40  C   UNL     1      27.190  44.420  53.801  1.00  0.00     0.269 C 
ENDBRANCH  36  37
ENDBRANCH  27  36
ENDBRANCH   2  23
TORSDOF 10
ENDMDL
MODEL 9
REMARK VINA RESULT:      -7.8      2.455      4.421
REMARK  10 active torsions:
REMARK  status: ('A' for Active; 'I' for Inactive)
REMARK    1  A    between atoms: C_2  and  C_3 
REMARK    2  A    between atoms: C_4  and  O_5 
REMARK    3  A    between atoms: C_6  and  C_7 
REMARK    4  A    between atoms: C_12  and  C_13 
REMARK    5  A    between atoms: N_14  and  N_15 
REMARK       I    between atoms: N_15  and  C_16 
REMARK    6  A    between atoms: C_16  and  C_17 
REMARK    7  A    between atoms: N_20  and  C_21 
REMARK    8  A    between atoms: C_25  and  N_26 
REMARK    9  A    between atoms: C_27  and  C_28 
REMARK   10  A    between atoms: C_28  and  N_29 
ROOT
HETATM    1  N   UNL     1      23.408  43.287  47.900  1.00  0.00    -0.145 NA
HETATM    2  C   UNL     1      22.431  44.176  48.329  1.00  0.00     0.273 C 
HETATM    3  O   UNL     1      21.242  43.842  48.339  1.00  0.00    -0.270 OA
HETATM    4  H   UNL     1      22.977  42.379  47.724  1.00  0.00     0.158 HD
ENDROOT
BRANCH   1   5
HETATM    5  N   UNL     1      24.556  43.141  48.641  1.00  0.00    -0.205 NA
HETATM    6  C   UNL     1      24.845  41.905  48.911  1.00  0.00     0.144 C 
BRANCH   6   7
HETATM    7  C   UNL     1      26.031  41.529  49.705  1.00  0.00    -0.016 A 
HETATM    8  C   UNL     1      26.705  40.335  49.456  1.00  0.00     0.023 A 
HETATM    9  C   UNL     1      27.848  39.983  50.195  1.00  0.00    -0.016 A 
HETATM   10  C   UNL     1      28.249  40.879  51.222  1.00  0.00     0.079 A 
HETATM   11  C   UNL     1      27.560  42.082  51.531  1.00  0.00    -0.016 A 
HETATM   12  C   UNL     1      26.459  42.395  50.713  1.00  0.00     0.023 A 
BRANCH   9  13
HETATM   13  C   UNL     1      28.624  38.679  49.876  1.00  0.00    -0.021 C 
HETATM   14  C   UNL     1      29.563  38.897  48.669  1.00  0.00     0.019 C 
HETATM   15  C   UNL     1      29.525  38.190  51.043  1.00  0.00     0.019 C 
HETATM   16  C   UNL     1      27.650  37.514  49.584  1.00  0.00     0.019 C 
ENDBRANCH   9  13
BRANCH  10  17
HETATM   17  O   UNL     1      29.360  40.523  51.936  1.00  0.00    -0.360 OA
HETATM   18  H   UNL     1      29.632  41.281  52.474  1.00  0.00     0.217 HD
ENDBRANCH  10  17
BRANCH  11  19
HETATM   19  C   UNL     1      27.943  43.029  52.699  1.00  0.00    -0.021 C 
HETATM   20  C   UNL     1      27.079  44.305  52.637  1.00  0.00     0.019 C 
HETATM   21  C   UNL     1      29.445  43.405  52.684  1.00  0.00     0.019 C 
HETATM   22  C   UNL     1      27.700  42.400  54.101  1.00  0.00     0.019 C 
ENDBRANCH  11  19
ENDBRANCH   6   7
ENDBRANCH   1   5
BRANCH   2  23
HETATM   23  C   UNL     1      22.819  45.528  48.738  1.00  0.00     0.170 C 
HETATM   24  N   UNL     1      23.748  45.801  49.699  1.00  0.00    -0.124 NA
HETATM   25  N   UNL     1      23.910  47.108  49.772  1.00  0.00    -0.058 NA
HETATM   26  N   UNL     1      23.173  47.701  48.802  1.00  0.00    -0.191 N 
HETATM   27  C   UNL     1      22.365  46.730  48.196  1.00  0.00     0.101 C 
BRANCH  26  28
HETATM   28  C   UNL     1      23.305  49.080  48.504  1.00  0.00     0.229 A 
HETATM   29  N   UNL     1      24.179  49.491  47.583  1.00  0.00    -0.081 NA
HETATM   30  O   UNL     1      24.050  50.882  47.597  1.00  0.00    -0.103 OA
HETATM   31  N   UNL     1      23.098  51.288  48.522  1.00  0.00    -0.083 NA
HETATM   32  C   UNL     1      22.641  50.174  49.088  1.00  0.00     0.201 A 
BRANCH  32  33
HETATM   33  N   UNL     1      21.695  50.136  50.040  1.00  0.00    -0.379 N 
HETATM   34  H   UNL     1      20.730  49.935  49.789  1.00  0.00     0.158 HD
HETATM   35  H   UNL     1      21.818  50.538  50.968  1.00  0.00     0.158 HD
ENDBRANCH  32  33
ENDBRANCH  26  28
BRANCH  27  36
HETATM   36  C   UNL     1      21.366  47.044  47.141  1.00  0.00     0.295 C 
BRANCH  36  37
HETATM   37  N   UNL     1      19.988  47.421  47.631  1.00  0.00    -0.073 N 
HETATM   38  H   UNL     1      19.314  46.825  47.112  1.00  0.00     0.279 HD
HETATM   39  C   UNL     1      19.780  47.171  49.095  1.00  0.00     0.269 C 
HETATM   40  C   UNL     1      19.631  48.832  47.259  1.00  0.00     0.269 C 
ENDBRANCH  36  37
ENDBRANCH  27  36
ENDBRANCH   2  23
TORSDOF 10
ENDMDL
MODEL 10
REMARK VINA RESULT:      -7.8      2.498      5.398
REMARK  10 active torsions:
REMARK  status: ('A' for Active; 'I' for Inactive)
REMARK    1  A    between atoms: C_2  and  C_3 
REMARK    2  A    between atoms: C_4  and  O_5 
REMARK    3  A    between atoms: C_6  and  C_7 
REMARK    4  A    between atoms: C_12  and  C_13 
REMARK    5  A    between atoms: N_14  and  N_15 
REMARK       I    between atoms: N_15  and  C_16 
REMARK    6  A    between atoms: C_16  and  C_17 
REMARK    7  A    between atoms: N_20  and  C_21 
REMARK    8  A    between atoms: C_25  and  N_26 
REMARK    9  A    between atoms: C_27  and  C_28 
REMARK   10  A    between atoms: C_28  and  N_29 
ROOT
HETATM    1  N   UNL     1      23.204  43.240  47.704  1.00  0.00    -0.145 NA
HETATM    2  C   UNL     1      22.288  44.180  48.158  1.00  0.00     0.273 C 
HETATM    3  O   UNL     1      21.081  43.919  48.173  1.00  0.00    -0.270 OA
HETATM    4  H   UNL     1      22.717  42.365  47.516  1.00  0.00     0.158 HD
ENDROOT
BRANCH   1   5
HETATM    5  N   UNL     1      24.348  43.011  48.431  1.00  0.00    -0.205 NA
HETATM    6  C   UNL     1      24.588  41.752  48.635  1.00  0.00     0.144 C 
BRANCH   6   7
HETATM    7  C   UNL     1      25.760  41.289  49.403  1.00  0.00    -0.016 A 
HETATM    8  C   UNL     1      26.229  42.016  50.496  1.00  0.00     0.023 A 
HETATM    9  C   UNL     1      27.331  41.568  51.244  1.00  0.00    -0.016 A 
HETATM   10  C   UNL     1      27.960  40.372  50.805  1.00  0.00     0.079 A 
HETATM   11  C   UNL     1      27.536  39.629  49.670  1.00  0.00    -0.016 A 
HETATM   12  C   UNL     1      26.392  40.109  49.006  1.00  0.00     0.023 A 
BRANCH   9  13
HETATM   13  C   UNL     1      27.813  42.354  52.490  1.00  0.00    -0.021 C 
HETATM   14  C   UNL     1      26.793  43.455  52.855  1.00  0.00     0.019 C 
HETATM   15  C   UNL     1      27.970  41.472  53.759  1.00  0.00     0.019 C 
HETATM   16  C   UNL     1      29.204  42.983  52.244  1.00  0.00     0.019 C 
ENDBRANCH   9  13
BRANCH  10  17
HETATM   17  O   UNL     1      29.034  39.949  51.538  1.00  0.00    -0.360 OA
HETATM   18  H   UNL     1      28.846  39.058  51.869  1.00  0.00     0.217 HD
ENDBRANCH  10  17
BRANCH  11  19
HETATM   19  C   UNL     1      28.260  38.365  49.137  1.00  0.00    -0.021 C 
HETATM   20  C   UNL     1      27.800  37.128  49.936  1.00  0.00     0.019 C 
HETATM   21  C   UNL     1      29.801  38.497  49.206  1.00  0.00     0.019 C 
HETATM   22  C   UNL     1      27.949  38.066  47.643  1.00  0.00     0.019 C 
ENDBRANCH  11  19
ENDBRANCH   6   7
ENDBRANCH   1   5
BRANCH   2  23
HETATM   23  C   UNL     1      22.761  45.497  48.588  1.00  0.00     0.170 C 
HETATM   24  N   UNL     1      23.834  45.696  49.408  1.00  0.00    -0.124 NA
HETATM   25  N   UNL     1      24.030  46.994  49.539  1.00  0.00    -0.058 NA
HETATM   26  N   UNL     1      23.163  47.658  48.737  1.00  0.00    -0.191 N 
HETATM   27  C   UNL     1      22.252  46.737  48.203  1.00  0.00     0.101 C 
BRANCH  26  28
HETATM   28  C   UNL     1      23.275  49.053  48.512  1.00  0.00     0.229 A 
HETATM   29  N   UNL     1      24.100  49.521  47.574  1.00  0.00    -0.081 NA
HETATM   30  O   UNL     1      23.966  50.908  47.673  1.00  0.00    -0.103 OA
HETATM   31  N   UNL     1      23.059  51.254  48.666  1.00  0.00    -0.083 NA
HETATM   32  C   UNL     1      22.635  50.107  49.190  1.00  0.00     0.201 A 
BRANCH  32  33
HETATM   33  N   UNL     1      21.738  50.008  50.183  1.00  0.00    -0.379 N 
HETATM   34  H   UNL     1      20.818  50.430  50.080  1.00  0.00     0.158 HD
HETATM   35  H   UNL     1      21.985  49.757  51.138  1.00  0.00     0.158 HD
ENDBRANCH  32  33
ENDBRANCH  26  28
BRANCH  27  36
HETATM   36  C   UNL     1      21.108  47.130  47.340  1.00  0.00     0.295 C 
BRANCH  36  37
HETATM   37  N   UNL     1      19.905  47.695  48.058  1.00  0.00    -0.073 N 
HETATM   38  H   UNL     1      20.221  47.945  49.016  1.00  0.00     0.279 HD
HETATM   39  C   UNL     1      19.353  48.937  47.424  1.00  0.00     0.269 C 
HETATM   40  C   UNL     1      18.836  46.658  48.257  1.00  0.00     0.269 C 
ENDBRANCH  36  37
ENDBRANCH  27  36
ENDBRANCH   2  23
TORSDOF 10
ENDMDL
