MODEL 1
REMARK VINA RESULT:      -8.3      0.000      0.000
REMARK  5 active torsions:
REMARK  status: ('A' for Active; 'I' for Inactive)
REMARK    1  A    between atoms: C_2  and  N_3 
REMARK    2  A    between atoms: N_3  and  C_6 
REMARK    3  A    between atoms: C_6  and  C_7 
REMARK    4  A    between atoms: C_8  and  N_9 
REMARK       I    between atoms: N_9  and  C_10 
REMARK    5  A    between atoms: C_10  and  C_11 
ROOT
HETATM    1  N   UNL     1      26.034  46.670  50.680  1.00  0.00    -0.326 N 
HETATM    2  C   UNL     1      26.674  45.454  50.561  1.00  0.00     0.231 C 
HETATM    3  O   UNL     1      27.441  45.165  49.646  1.00  0.00    -0.272 OA
HETATM    4  H   UNL     1      25.363  46.709  51.443  1.00  0.00     0.169 HD
ENDROOT
BRANCH   1   5
HETATM    5  C   UNL     1      26.022  47.818  49.842  1.00  0.00     0.042 A 
HETATM    6  C   UNL     1      24.928  48.478  49.239  1.00  0.00    -0.006 A 
HETATM    7  C   UNL     1      25.184  49.656  48.486  1.00  0.00     0.011 A 
HETATM    8  C   UNL     1      26.471  50.156  48.304  1.00  0.00     0.001 A 
HETATM    9  C   UNL     1      27.542  49.491  48.868  1.00  0.00     0.002 A 
HETATM   10  C   UNL     1      27.318  48.339  49.622  1.00  0.00     0.030 A 
BRANCH   6  11
HETATM   11  C   UNL     1      23.480  48.057  49.268  1.00  0.00     0.273 C 
BRANCH  11  12
HETATM   12  N   UNL     1      22.583  49.129  49.776  1.00  0.00    -0.072 N 
HETATM   13  H   UNL     1      23.123  49.929  50.120  1.00  0.00     0.277 HD
HETATM   14  H   UNL     1      22.142  48.692  50.609  1.00  0.00     0.277 HD
BRANCH  12  15
HETATM   15  C   UNL     1      21.480  49.535  48.872  1.00  0.00     0.228 C 
HETATM   16  C   UNL     1      21.620  51.013  48.565  1.00  0.00     0.034 C 
ENDBRANCH  12  15
ENDBRANCH  11  12
ENDBRANCH   6  11
ENDBRANCH   1   5
BRANCH   2  17
HETATM   17  C   UNL     1      26.249  44.423  51.618  1.00  0.00     0.122 C 
HETATM   18  C   UNL     1      27.442  44.015  52.455  1.00  0.00    -0.028 A 
HETATM   19  C   UNL     1      27.568  44.725  53.656  1.00  0.00     0.007 A 
HETATM   20  C   UNL     1      28.409  43.078  52.095  1.00  0.00     0.009 A 
HETATM   21  C   UNL     1      28.656  44.540  54.493  1.00  0.00     0.019 A 
HETATM   22  S   UNL     1      26.206  45.814  53.942  1.00  0.00    -0.128 SA
HETATM   23  C   UNL     1      29.631  43.611  54.127  1.00  0.00     0.001 A 
HETATM   24  C   UNL     1      29.503  42.879  52.939  1.00  0.00     0.001 A 
HETATM   25  C   UNL     1      25.239  45.037  52.606  1.00  0.00     0.098 C 
ENDBRANCH   2  17
TORSDOF 5
ENDMDL
MODEL 2
REMARK VINA RESULT:      -7.9      3.242      6.558
REMARK  5 active torsions:
REMARK  status: ('A' for Active; 'I' for Inactive)
REMARK    1  A    between atoms: C_2  and  N_3 
REMARK    2  A    between atoms: N_3  and  C_6 
REMARK    3  A    between atoms: C_6  and  C_7 
REMARK    4  A    between atoms: C_8  and  N_9 
REMARK       I    between atoms: N_9  and  C_10 
REMARK    5  A    between atoms: C_10  and  C_11 
ROOT
HETATM    1  N   UNL     1      27.342  44.530  53.384  1.00  0.00    -0.326 N 
HETATM    2  C   UNL     1      26.013  44.254  53.628  1.00  0.00     0.231 C 
HETATM    3  O   UNL     1      25.571  43.903  54.719  1.00  0.00    -0.272 OA
HETATM    4  H   UNL     1      27.552  44.714  52.406  1.00  0.00     0.169 HD
ENDROOT
BRANCH   1   5
HETATM    5  C   UNL     1      28.493  44.446  54.214  1.00  0.00     0.042 A 
HETATM    6  C   UNL     1      28.859  45.237  55.326  1.00  0.00    -0.006 A 
HETATM    7  C   UNL     1      30.048  44.902  56.029  1.00  0.00     0.011 A 
HETATM    8  C   UNL     1      30.869  43.848  55.639  1.00  0.00     0.001 A 
HETATM    9  C   UNL     1      30.526  43.096  54.532  1.00  0.00     0.002 A 
HETATM   10  C   UNL     1      29.358  43.394  53.832  1.00  0.00     0.030 A 
BRANCH   6  11
HETATM   11  C   UNL     1      28.139  46.451  55.857  1.00  0.00     0.273 C 
BRANCH  11  12
HETATM   12  N   UNL     1      27.784  47.421  54.787  1.00  0.00    -0.072 N 
HETATM   13  H   UNL     1      28.034  47.055  53.862  1.00  0.00     0.277 HD
HETATM   14  H   UNL     1      28.423  48.219  54.970  1.00  0.00     0.277 HD
BRANCH  12  15
HETATM   15  C   UNL     1      26.403  47.958  54.830  1.00  0.00     0.228 C 
HETATM   16  C   UNL     1      26.252  48.814  56.071  1.00  0.00     0.034 C 
ENDBRANCH  12  15
ENDBRANCH  11  12
ENDBRANCH   6  11
ENDBRANCH   1   5
BRANCH   2  17
HETATM   17  C   UNL     1      25.128  44.305  52.373  1.00  0.00     0.122 C 
HETATM   18  C   UNL     1      25.594  45.413  51.453  1.00  0.00    -0.028 A 
HETATM   19  C   UNL     1      26.460  44.987  50.439  1.00  0.00     0.007 A 
HETATM   20  C   UNL     1      25.287  46.765  51.585  1.00  0.00     0.009 A 
HETATM   21  C   UNL     1      27.052  45.890  49.570  1.00  0.00     0.019 A 
HETATM   22  S   UNL     1      26.664  43.232  50.417  1.00  0.00    -0.128 SA
HETATM   23  C   UNL     1      26.755  47.246  49.709  1.00  0.00     0.001 A 
HETATM   24  C   UNL     1      25.871  47.679  50.706  1.00  0.00     0.001 A 
HETATM   25  C   UNL     1      25.261  43.004  51.558  1.00  0.00     0.098 C 
ENDBRANCH   2  17
TORSDOF 5
ENDMDL
MODEL 3
REMARK VINA RESULT:      -7.7      3.440      5.611
REMARK  5 active torsions:
REMARK  status: ('A' for Active; 'I' for Inactive)
REMARK    1  A    between atoms: C_2  and  N_3 
REMARK    2  A    between atoms: N_3  and  C_6 
REMARK    3  A    between atoms: C_6  and  C_7 
REMARK    4  A    between atoms: C_8  and  N_9 
REMARK       I    between atoms: N_9  and  C_10 
REMARK    5  A    between atoms: C_10  and  C_11 
ROOT
HETATM    1  N   UNL     1      27.226  41.809  51.862  1.00  0.00    -0.326 N 
HETATM    2  C   UNL     1      27.670  42.951  52.496  1.00  0.00     0.231 C 
HETATM    3  O   UNL     1      28.292  43.851  51.938  1.00  0.00    -0.272 OA
HETATM    4  H   UNL     1      26.812  41.124  52.490  1.00  0.00     0.169 HD
ENDROOT
BRANCH   1   5
HETATM    5  C   UNL     1      27.385  41.345  50.528  1.00  0.00     0.042 A 
HETATM    6  C   UNL     1      26.830  41.850  49.330  1.00  0.00    -0.006 A 
HETATM    7  C   UNL     1      27.200  41.231  48.104  1.00  0.00     0.011 A 
HETATM    8  C   UNL     1      28.060  40.138  48.054  1.00  0.00     0.001 A 
HETATM    9  C   UNL     1      28.574  39.626  49.229  1.00  0.00     0.002 A 
HETATM   10  C   UNL     1      28.238  40.221  50.445  1.00  0.00     0.030 A 
BRANCH   6  11
HETATM   11  C   UNL     1      25.839  42.977  49.187  1.00  0.00     0.273 C 
BRANCH  11  12
HETATM   12  N   UNL     1      26.467  44.315  49.350  1.00  0.00    -0.072 N 
HETATM   13  H   UNL     1      27.023  44.563  48.526  1.00  0.00     0.277 HD
HETATM   14  H   UNL     1      27.141  44.167  50.126  1.00  0.00     0.277 HD
BRANCH  12  15
HETATM   15  C   UNL     1      25.561  45.410  49.773  1.00  0.00     0.228 C 
HETATM   16  C   UNL     1      24.836  44.983  51.033  1.00  0.00     0.034 C 
ENDBRANCH  12  15
ENDBRANCH  11  12
ENDBRANCH   6  11
ENDBRANCH   1   5
BRANCH   2  17
HETATM   17  C   UNL     1      27.426  42.953  54.013  1.00  0.00     0.122 C 
HETATM   18  C   UNL     1      28.586  43.615  54.725  1.00  0.00    -0.028 A 
HETATM   19  C   UNL     1      28.382  44.971  55.010  1.00  0.00     0.007 A 
HETATM   20  C   UNL     1      29.803  43.014  55.036  1.00  0.00     0.009 A 
HETATM   21  C   UNL     1      29.381  45.748  55.574  1.00  0.00     0.019 A 
HETATM   22  S   UNL     1      26.753  45.513  54.587  1.00  0.00    -0.128 SA
HETATM   23  C   UNL     1      30.605  45.149  55.875  1.00  0.00     0.001 A 
HETATM   24  C   UNL     1      30.810  43.788  55.614  1.00  0.00     0.001 A 
HETATM   25  C   UNL     1      26.185  43.795  54.366  1.00  0.00     0.098 C 
ENDBRANCH   2  17
TORSDOF 5
ENDMDL
MODEL 4
REMARK VINA RESULT:      -7.7      3.469      8.039
REMARK  5 active torsions:
REMARK  status: ('A' for Active; 'I' for Inactive)
REMARK    1  A    between atoms: C_2  and  N_3 
REMARK    2  A    between atoms: N_3  and  C_6 
REMARK    3  A    between atoms: C_6  and  C_7 
REMARK    4  A    between atoms: C_8  and  N_9 
REMARK       I    between atoms: N_9  and  C_10 
REMARK    5  A    between atoms: C_10  and  C_11 
ROOT
HETATM    1  N   UNL     1      22.772  48.195  49.466  1.00  0.00    -0.326 N 
HETATM    2  C   UNL     1      21.872  47.821  48.490  1.00  0.00     0.231 C 
HETATM    3  O   UNL     1      22.189  47.501  47.347  1.00  0.00    -0.272 OA
HETATM    4  H   UNL     1      22.336  48.519  50.326  1.00  0.00     0.169 HD
ENDROOT
BRANCH   1   5
HETATM    5  C   UNL     1      24.183  48.364  49.437  1.00  0.00     0.042 A 
HETATM    6  C   UNL     1      25.192  47.607  50.076  1.00  0.00    -0.006 A 
HETATM    7  C   UNL     1      26.549  47.953  49.831  1.00  0.00     0.011 A 
HETATM    8  C   UNL     1      26.908  49.021  49.014  1.00  0.00     0.001 A 
HETATM    9  C   UNL     1      25.919  49.778  48.416  1.00  0.00     0.002 A 
HETATM   10  C   UNL     1      24.579  49.454  48.629  1.00  0.00     0.030 A 
BRANCH   6  11
HETATM   11  C   UNL     1      25.002  46.464  51.040  1.00  0.00     0.273 C 
BRANCH  11  12
HETATM   12  N   UNL     1      26.149  46.305  51.973  1.00  0.00    -0.072 N 
HETATM   13  H   UNL     1      26.860  47.025  51.808  1.00  0.00     0.277 HD
HETATM   14  H   UNL     1      26.571  45.403  51.675  1.00  0.00     0.277 HD
BRANCH  12  15
HETATM   15  C   UNL     1      25.805  46.165  53.408  1.00  0.00     0.228 C 
HETATM   16  C   UNL     1      26.061  47.487  54.102  1.00  0.00     0.034 C 
ENDBRANCH  12  15
ENDBRANCH  11  12
ENDBRANCH   6  11
ENDBRANCH   1   5
BRANCH   2  17
HETATM   17  C   UNL     1      20.402  47.955  48.918  1.00  0.00     0.122 C 
HETATM   18  C   UNL     1      19.965  49.401  48.831  1.00  0.00    -0.028 A 
HETATM   19  C   UNL     1      19.317  49.731  47.634  1.00  0.00     0.007 A 
HETATM   20  C   UNL     1      20.214  50.387  49.783  1.00  0.00     0.009 A 
HETATM   21  C   UNL     1      18.937  51.034  47.355  1.00  0.00     0.019 A 
HETATM   22  S   UNL     1      19.053  48.324  46.599  1.00  0.00    -0.128 SA
HETATM   23  C   UNL     1      19.197  52.025  48.304  1.00  0.00     0.001 A 
HETATM   24  C   UNL     1      19.825  51.700  49.514  1.00  0.00     0.001 A 
HETATM   25  C   UNL     1      19.480  47.183  47.955  1.00  0.00     0.098 C 
ENDBRANCH   2  17
TORSDOF 5
ENDMDL
MODEL 5
REMARK VINA RESULT:      -7.4      3.344      7.559
REMARK  5 active torsions:
REMARK  status: ('A' for Active; 'I' for Inactive)
REMARK    1  A    between atoms: C_2  and  N_3 
REMARK    2  A    between atoms: N_3  and  C_6 
REMARK    3  A    between atoms: C_6  and  C_7 
REMARK    4  A    between atoms: C_8  and  N_9 
REMARK       I    between atoms: N_9  and  C_10 
REMARK    5  A    between atoms: C_10  and  C_11 
ROOT
HETATM    1  N   UNL     1      23.612  49.791  48.254  1.00  0.00    -0.326 N 
HETATM    2  C   UNL     1      22.584  50.434  48.911  1.00  0.00     0.231 C 
HETATM    3  O   UNL     1      22.629  50.782  50.088  1.00  0.00    -0.272 OA
HETATM    4  H   UNL     1      23.375  49.490  47.312  1.00  0.00     0.169 HD
ENDROOT
BRANCH   1   5
HETATM    5  C   UNL     1      24.880  49.331  48.703  1.00  0.00     0.042 A 
HETATM    6  C   UNL     1      25.204  48.179  49.454  1.00  0.00    -0.006 A 
HETATM    7  C   UNL     1      26.574  47.913  49.723  1.00  0.00     0.011 A 
HETATM    8  C   UNL     1      27.592  48.762  49.299  1.00  0.00     0.001 A 
HETATM    9  C   UNL     1      27.271  49.905  48.592  1.00  0.00     0.002 A 
HETATM   10  C   UNL     1      25.935  50.183  48.303  1.00  0.00     0.030 A 
BRANCH   6  11
HETATM   11  C   UNL     1      24.244  47.181  50.051  1.00  0.00     0.273 C 
BRANCH  11  12
HETATM   12  N   UNL     1      24.687  46.688  51.383  1.00  0.00    -0.072 N 
HETATM   13  H   UNL     1      24.181  47.162  52.138  1.00  0.00     0.277 HD
HETATM   14  H   UNL     1      25.672  47.013  51.440  1.00  0.00     0.277 HD
BRANCH  12  15
HETATM   15  C   UNL     1      24.712  45.215  51.554  1.00  0.00     0.228 C 
HETATM   16  C   UNL     1      25.332  44.891  52.898  1.00  0.00     0.034 C 
ENDBRANCH  12  15
ENDBRANCH  11  12
ENDBRANCH   6  11
ENDBRANCH   1   5
BRANCH   2  17
HETATM   17  C   UNL     1      21.304  50.576  48.072  1.00  0.00     0.122 C 
HETATM   18  C   UNL     1      20.469  49.318  48.180  1.00  0.00    -0.028 A 
HETATM   19  C   UNL     1      19.461  49.385  49.150  1.00  0.00     0.007 A 
HETATM   20  C   UNL     1      20.671  48.140  47.466  1.00  0.00     0.009 A 
HETATM   21  C   UNL     1      18.668  48.287  49.443  1.00  0.00     0.019 A 
HETATM   22  S   UNL     1      19.341  50.985  49.892  1.00  0.00    -0.128 SA
HETATM   23  C   UNL     1      18.878  47.103  48.736  1.00  0.00     0.001 A 
HETATM   24  C   UNL     1      19.869  47.033  47.748  1.00  0.00     0.001 A 
HETATM   25  C   UNL     1      20.418  51.713  48.614  1.00  0.00     0.098 C 
ENDBRANCH   2  17
TORSDOF 5
ENDMDL
MODEL 6
REMARK VINA RESULT:      -7.2      4.707      6.920
REMARK  5 active torsions:
REMARK  status: ('A' for Active; 'I' for Inactive)
REMARK    1  A    between atoms: C_2  and  N_3 
REMARK    2  A    between atoms: N_3  and  C_6 
REMARK    3  A    between atoms: C_6  and  C_7 
REMARK    4  A    between atoms: C_8  and  N_9 
REMARK       I    between atoms: N_9  and  C_10 
REMARK    5  A    between atoms: C_10  and  C_11 
ROOT
HETATM    1  N   UNL     1      28.800  42.744  51.753  1.00  0.00    -0.326 N 
HETATM    2  C   UNL     1      28.035  41.649  51.406  1.00  0.00     0.231 C 
HETATM    3  O   UNL     1      27.345  41.011  52.197  1.00  0.00    -0.272 OA
HETATM    4  H   UNL     1      29.382  43.095  50.997  1.00  0.00     0.169 HD
ENDROOT
BRANCH   1   5
HETATM    5  C   UNL     1      29.045  43.367  53.007  1.00  0.00     0.042 A 
HETATM    6  C   UNL     1      28.273  44.327  53.699  1.00  0.00    -0.006 A 
HETATM    7  C   UNL     1      28.716  44.749  54.982  1.00  0.00     0.011 A 
HETATM    8  C   UNL     1      29.890  44.270  55.557  1.00  0.00     0.001 A 
HETATM    9  C   UNL     1      30.659  43.355  54.864  1.00  0.00     0.002 A 
HETATM   10  C   UNL     1      30.241  42.914  53.609  1.00  0.00     0.030 A 
BRANCH   6  11
HETATM   11  C   UNL     1      27.017  45.006  53.217  1.00  0.00     0.273 C 
BRANCH  11  12
HETATM   12  N   UNL     1      26.282  45.696  54.311  1.00  0.00    -0.072 N 
HETATM   13  H   UNL     1      26.731  45.529  55.217  1.00  0.00     0.277 HD
HETATM   14  H   UNL     1      25.373  45.196  54.337  1.00  0.00     0.277 HD
BRANCH  12  15
HETATM   15  C   UNL     1      25.978  47.129  54.085  1.00  0.00     0.228 C 
HETATM   16  C   UNL     1      26.725  47.955  55.113  1.00  0.00     0.034 C 
ENDBRANCH  12  15
ENDBRANCH  11  12
ENDBRANCH   6  11
ENDBRANCH   1   5
BRANCH   2  17
HETATM   17  C   UNL     1      28.211  41.208  49.944  1.00  0.00     0.122 C 
HETATM   18  C   UNL     1      28.107  39.701  49.840  1.00  0.00    -0.028 A 
HETATM   19  C   UNL     1      26.831  39.240  49.494  1.00  0.00     0.007 A 
HETATM   20  C   UNL     1      29.125  38.792  50.119  1.00  0.00     0.009 A 
HETATM   21  C   UNL     1      26.542  37.886  49.448  1.00  0.00     0.019 A 
HETATM   22  S   UNL     1      25.712  40.558  49.126  1.00  0.00    -0.128 SA
HETATM   23  C   UNL     1      27.558  36.974  49.739  1.00  0.00     0.001 A 
HETATM   24  C   UNL     1      28.843  37.426  50.064  1.00  0.00     0.001 A 
HETATM   25  C   UNL     1      27.076  41.766  49.064  1.00  0.00     0.098 C 
ENDBRANCH   2  17
TORSDOF 5
ENDMDL
MODEL 7
REMARK VINA RESULT:      -7.1     10.621     12.239
REMARK  5 active torsions:
REMARK  status: ('A' for Active; 'I' for Inactive)
REMARK    1  A    between atoms: C_2  and  N_3 
REMARK    2  A    between atoms: N_3  and  C_6 
REMARK    3  A    between atoms: C_6  and  C_7 
REMARK    4  A    between atoms: C_8  and  N_9 
REMARK       I    between atoms: N_9  and  C_10 
REMARK    5  A    between atoms: C_10  and  C_11 
ROOT
HETATM    1  N   UNL     1      28.739  48.109  40.166  1.00  0.00    -0.326 N 
HETATM    2  C   UNL     1      29.419  48.589  41.266  1.00  0.00     0.231 C 
HETATM    3  O   UNL     1      28.879  49.128  42.229  1.00  0.00    -0.272 OA
HETATM    4  H   UNL     1      29.345  47.779  39.419  1.00  0.00     0.169 HD
ENDROOT
BRANCH   1   5
HETATM    5  C   UNL     1      27.361  48.139  39.818  1.00  0.00     0.042 A 
HETATM    6  C   UNL     1      26.541  49.242  39.491  1.00  0.00    -0.006 A 
HETATM    7  C   UNL     1      25.193  48.991  39.118  1.00  0.00     0.011 A 
HETATM    8  C   UNL     1      24.655  47.708  39.095  1.00  0.00     0.001 A 
HETATM    9  C   UNL     1      25.450  46.634  39.446  1.00  0.00     0.002 A 
HETATM   10  C   UNL     1      26.781  46.850  39.804  1.00  0.00     0.030 A 
BRANCH   6  11
HETATM   11  C   UNL     1      26.921  50.701  39.520  1.00  0.00     0.273 C 
BRANCH  11  12
HETATM   12  N   UNL     1      26.895  51.272  40.894  1.00  0.00    -0.072 N 
HETATM   13  H   UNL     1      26.901  50.529  41.601  1.00  0.00     0.277 HD
HETATM   14  H   UNL     1      25.959  51.720  40.946  1.00  0.00     0.277 HD
BRANCH  12  15
HETATM   15  C   UNL     1      27.894  52.330  41.175  1.00  0.00     0.228 C 
HETATM   16  C   UNL     1      28.712  52.574  39.923  1.00  0.00     0.034 C 
ENDBRANCH  12  15
ENDBRANCH  11  12
ENDBRANCH   6  11
ENDBRANCH   1   5
BRANCH   2  17
HETATM   17  C   UNL     1      30.948  48.504  41.136  1.00  0.00     0.122 C 
HETATM   18  C   UNL     1      31.468  49.678  40.335  1.00  0.00    -0.028 A 
HETATM   19  C   UNL     1      31.912  50.751  41.118  1.00  0.00     0.007 A 
HETATM   20  C   UNL     1      31.469  49.781  38.946  1.00  0.00     0.009 A 
HETATM   21  C   UNL     1      32.330  51.939  40.541  1.00  0.00     0.019 A 
HETATM   22  S   UNL     1      31.880  50.385  42.846  1.00  0.00    -0.128 SA
HETATM   23  C   UNL     1      32.321  52.048  39.150  1.00  0.00     0.001 A 
HETATM   24  C   UNL     1      31.900  50.972  38.358  1.00  0.00     0.001 A 
HETATM   25  C   UNL     1      31.621  48.611  42.518  1.00  0.00     0.098 C 
ENDBRANCH   2  17
TORSDOF 5
ENDMDL
MODEL 8
REMARK VINA RESULT:      -7.0      3.892      6.647
REMARK  5 active torsions:
REMARK  status: ('A' for Active; 'I' for Inactive)
REMARK    1  A    between atoms: C_2  and  N_3 
REMARK    2  A    between atoms: N_3  and  C_6 
REMARK    3  A    between atoms: C_6  and  C_7 
REMARK    4  A    between atoms: C_8  and  N_9 
REMARK       I    between atoms: N_9  and  C_10 
REMARK    5  A    between atoms: C_10  and  C_11 
ROOT
HETATM    1  N   UNL     1      27.818  43.982  51.633  1.00  0.00    -0.326 N 
HETATM    2  C   UNL     1      26.962  43.130  50.966  1.00  0.00     0.231 C 
HETATM    3  O   UNL     1      26.635  42.020  51.376  1.00  0.00    -0.272 OA
HETATM    4  H   UNL     1      28.056  44.820  51.110  1.00  0.00     0.169 HD
ENDROOT
BRANCH   1   5
HETATM    5  C   UNL     1      28.552  43.828  52.841  1.00  0.00     0.042 A 
HETATM    6  C   UNL     1      28.233  44.262  54.148  1.00  0.00    -0.006 A 
HETATM    7  C   UNL     1      29.121  43.924  55.205  1.00  0.00     0.011 A 
HETATM    8  C   UNL     1      30.297  43.211  54.988  1.00  0.00     0.001 A 
HETATM    9  C   UNL     1      30.623  42.816  53.705  1.00  0.00     0.002 A 
HETATM   10  C   UNL     1      29.763  43.124  52.650  1.00  0.00     0.030 A 
BRANCH   6  11
HETATM   11  C   UNL     1      27.048  45.093  54.568  1.00  0.00     0.273 C 
BRANCH  11  12
HETATM   12  N   UNL     1      27.440  46.434  55.079  1.00  0.00    -0.072 N 
HETATM   13  H   UNL     1      28.458  46.505  55.180  1.00  0.00     0.277 HD
HETATM   14  H   UNL     1      27.048  46.444  56.040  1.00  0.00     0.277 HD
BRANCH  12  15
HETATM   15  C   UNL     1      26.859  47.595  54.365  1.00  0.00     0.228 C 
HETATM   16  C   UNL     1      25.924  47.087  53.286  1.00  0.00     0.034 C 
ENDBRANCH  12  15
ENDBRANCH  11  12
ENDBRANCH   6  11
ENDBRANCH   1   5
BRANCH   2  17
HETATM   17  C   UNL     1      26.534  43.642  49.581  1.00  0.00     0.122 C 
HETATM   18  C   UNL     1      25.342  42.854  49.082  1.00  0.00    -0.028 A 
HETATM   19  C   UNL     1      24.107  43.463  49.337  1.00  0.00     0.007 A 
HETATM   20  C   UNL     1      25.388  41.599  48.479  1.00  0.00     0.009 A 
HETATM   21  C   UNL     1      22.914  42.831  49.030  1.00  0.00     0.019 A 
HETATM   22  S   UNL     1      24.282  45.070  50.052  1.00  0.00    -0.128 SA
HETATM   23  C   UNL     1      22.959  41.569  48.437  1.00  0.00     0.001 A 
HETATM   24  C   UNL     1      24.190  40.961  48.156  1.00  0.00     0.001 A 
HETATM   25  C   UNL     1      26.062  45.106  49.661  1.00  0.00     0.098 C 
ENDBRANCH   2  17
TORSDOF 5
ENDMDL
MODEL 9
REMARK VINA RESULT:      -7.0      3.556      6.371
REMARK  5 active torsions:
REMARK  status: ('A' for Active; 'I' for Inactive)
REMARK    1  A    between atoms: C_2  and  N_3 
REMARK    2  A    between atoms: N_3  and  C_6 
REMARK    3  A    between atoms: C_6  and  C_7 
REMARK    4  A    between atoms: C_8  and  N_9 
REMARK       I    between atoms: N_9  and  C_10 
REMARK    5  A    between atoms: C_10  and  C_11 
ROOT
HETATM    1  N   UNL     1      21.082  49.281  48.641  1.00  0.00    -0.326 N 
HETATM    2  C   UNL     1      22.386  49.247  49.089  1.00  0.00     0.231 C 
HETATM    3  O   UNL     1      22.837  49.990  49.956  1.00  0.00    -0.272 OA
HETATM    4  H   UNL     1      20.900  48.663  47.855  1.00  0.00     0.169 HD
ENDROOT
BRANCH   1   5
HETATM    5  C   UNL     1      19.992  50.134  48.968  1.00  0.00     0.042 A 
HETATM    6  C   UNL     1      18.889  49.897  49.819  1.00  0.00    -0.006 A 
HETATM    7  C   UNL     1      17.959  50.951  50.025  1.00  0.00     0.011 A 
HETATM    8  C   UNL     1      18.085  52.187  49.397  1.00  0.00     0.001 A 
HETATM    9  C   UNL     1      19.147  52.405  48.540  1.00  0.00     0.002 A 
HETATM   10  C   UNL     1      20.082  51.392  48.330  1.00  0.00     0.030 A 
BRANCH   6  11
HETATM   11  C   UNL     1      18.548  48.613  50.532  1.00  0.00     0.273 C 
BRANCH  11  12
HETATM   12  N   UNL     1      18.240  47.501  49.594  1.00  0.00    -0.072 N 
HETATM   13  H   UNL     1      18.529  46.599  49.986  1.00  0.00     0.277 HD
HETATM   14  H   UNL     1      18.873  47.688  48.792  1.00  0.00     0.277 HD
BRANCH  12  15
HETATM   15  C   UNL     1      16.860  47.470  49.055  1.00  0.00     0.228 C 
HETATM   16  C   UNL     1      16.912  47.745  47.565  1.00  0.00     0.034 C 
ENDBRANCH  12  15
ENDBRANCH  11  12
ENDBRANCH   6  11
ENDBRANCH   1   5
BRANCH   2  17
HETATM   17  C   UNL     1      23.281  48.265  48.316  1.00  0.00     0.122 C 
HETATM   18  C   UNL     1      24.270  47.612  49.257  1.00  0.00    -0.028 A 
HETATM   19  C   UNL     1      23.859  46.362  49.740  1.00  0.00     0.007 A 
HETATM   20  C   UNL     1      25.464  48.172  49.703  1.00  0.00     0.009 A 
HETATM   21  C   UNL     1      24.604  45.674  50.683  1.00  0.00     0.019 A 
HETATM   22  S   UNL     1      22.350  45.816  49.000  1.00  0.00    -0.128 SA
HETATM   23  C   UNL     1      25.794  46.240  51.140  1.00  0.00     0.001 A 
HETATM   24  C   UNL     1      26.225  47.479  50.646  1.00  0.00     0.001 A 
HETATM   25  C   UNL     1      22.446  47.114  47.724  1.00  0.00     0.098 C 
ENDBRANCH   2  17
TORSDOF 5
ENDMDL
MODEL 10
REMARK VINA RESULT:      -6.9      3.907      7.967
REMARK  5 active torsions:
REMARK  status: ('A' for Active; 'I' for Inactive)
REMARK    1  A    between atoms: C_2  and  N_3 
REMARK    2  A    between atoms: N_3  and  C_6 
REMARK    3  A    between atoms: C_6  and  C_7 
REMARK    4  A    between atoms: C_8  and  N_9 
REMARK       I    between atoms: N_9  and  C_10 
REMARK    5  A    between atoms: C_10  and  C_11 
ROOT
HETATM    1  N   UNL     1      22.245  46.359  49.219  1.00  0.00    -0.326 N 
HETATM    2  C   UNL     1      21.638  47.232  48.340  1.00  0.00     0.231 C 
HETATM    3  O   UNL     1      22.209  47.766  47.393  1.00  0.00    -0.272 OA
HETATM    4  H   UNL     1      21.655  46.084  50.000  1.00  0.00     0.169 HD
ENDROOT
BRANCH   1   5
HETATM    5  C   UNL     1      23.587  45.904  49.323  1.00  0.00     0.042 A 
HETATM    6  C   UNL     1      24.757  46.623  49.655  1.00  0.00    -0.006 A 
HETATM    7  C   UNL     1      25.983  45.909  49.750  1.00  0.00     0.011 A 
HETATM    8  C   UNL     1      26.067  44.543  49.498  1.00  0.00     0.001 A 
HETATM    9  C   UNL     1      24.928  43.848  49.142  1.00  0.00     0.002 A 
HETATM   10  C   UNL     1      23.710  44.521  49.054  1.00  0.00     0.030 A 
BRANCH   6  11
HETATM   11  C   UNL     1      24.878  48.106  49.898  1.00  0.00     0.273 C 
BRANCH  11  12
HETATM   12  N   UNL     1      24.729  48.905  48.652  1.00  0.00    -0.072 N 
HETATM   13  H   UNL     1      23.804  49.344  48.605  1.00  0.00     0.277 HD
HETATM   14  H   UNL     1      24.749  48.182  47.906  1.00  0.00     0.277 HD
BRANCH  12  15
HETATM   15  C   UNL     1      25.826  49.857  48.357  1.00  0.00     0.228 C 
HETATM   16  C   UNL     1      27.133  49.259  48.836  1.00  0.00     0.034 C 
ENDBRANCH  12  15
ENDBRANCH  11  12
ENDBRANCH   6  11
ENDBRANCH   1   5
BRANCH   2  17
HETATM   17  C   UNL     1      20.191  47.586  48.718  1.00  0.00     0.122 C 
HETATM   18  C   UNL     1      20.015  49.089  48.752  1.00  0.00    -0.028 A 
HETATM   19  C   UNL     1      19.502  49.630  47.566  1.00  0.00     0.007 A 
HETATM   20  C   UNL     1      20.375  49.929  49.803  1.00  0.00     0.009 A 
HETATM   21  C   UNL     1      19.368  50.999  47.397  1.00  0.00     0.019 A 
HETATM   22  S   UNL     1      19.058  48.386  46.392  1.00  0.00    -0.128 SA
HETATM   23  C   UNL     1      19.740  51.842  48.445  1.00  0.00     0.001 A 
HETATM   24  C   UNL     1      20.233  51.309  49.643  1.00  0.00     0.001 A 
HETATM   25  C   UNL     1      19.206  47.075  47.649  1.00  0.00     0.098 C 
ENDBRANCH   2  17
TORSDOF 5
ENDMDL
