MODEL 1
REMARK VINA RESULT:      -8.4      0.000      0.000
REMARK  7 active torsions:
REMARK  status: ('A' for Active; 'I' for Inactive)
REMARK    1  A    between atoms: C_2  and  C_3 
REMARK    2  A    between atoms: C_3  and  N_4 
REMARK    3  A    between atoms: C_3  and  C_20 
REMARK       I    between atoms: N_4  and  C_5 
REMARK       I    between atoms: C_5  and  N_6 
REMARK    4  A    between atoms: N_6  and  C_7 
REMARK    5  A    between atoms: C_7  and  C_8 
REMARK    6  A    between atoms: C_10  and  O_11 
REMARK    7  A    between atoms: O_11  and  C_12 
ROOT
HETATM    1  N   UNL     1      27.345  44.692  52.459  1.00  0.00    -0.334 N 
HETATM    2  C   UNL     1      27.096  44.522  51.137  1.00  0.00     0.316 C 
HETATM    3  N   UNL     1      26.381  45.494  50.522  1.00  0.00    -0.339 N 
HETATM    4  O   UNL     1      27.471  43.551  50.487  1.00  0.00    -0.247 OA
HETATM    5  H   UNL     1      26.892  45.440  52.953  1.00  0.00     0.165 HD
HETATM    6  H   UNL     1      26.212  45.288  49.545  1.00  0.00     0.164 HD
ENDROOT
BRANCH   3   7
HETATM    7  C   UNL     1      25.979  46.796  51.005  1.00  0.00     0.163 C 
BRANCH   7   8
HETATM    8  C   UNL     1      26.103  47.907  49.994  1.00  0.00    -0.035 A 
HETATM    9  C   UNL     1      25.020  48.413  49.267  1.00  0.00     0.066 A 
HETATM   10  C   UNL     1      25.254  49.405  48.325  1.00  0.00     0.164 A 
HETATM   11  N   UNL     1      26.466  49.939  48.073  1.00  0.00    -0.237 NA
HETATM   12  C   UNL     1      27.496  49.453  48.792  1.00  0.00     0.120 A 
HETATM   13  C   UNL     1      27.368  48.454  49.745  1.00  0.00     0.028 A 
BRANCH  10  14
HETATM   14  O   UNL     1      24.159  49.851  47.609  1.00  0.00    -0.329 OA
BRANCH  14  15
HETATM   15  C   UNL     1      22.920  49.946  48.346  1.00  0.00     0.130 C 
HETATM   16  C   UNL     1      22.688  51.249  49.157  1.00  0.00     0.032 C 
HETATM   17  C   UNL     1      21.219  51.200  48.703  1.00  0.00     0.005 C 
HETATM   18  C   UNL     1      21.689  50.364  47.500  1.00  0.00     0.032 C 
ENDBRANCH  14  15
ENDBRANCH  10  14
ENDBRANCH   7   8
ENDBRANCH   3   7
BRANCH   1  19
HETATM   19  C   UNL     1      28.191  43.783  53.217  1.00  0.00     0.119 C 
BRANCH  19  20
HETATM   20  C   UNL     1      27.397  42.554  53.696  1.00  0.00     0.025 C 
HETATM   21  C   UNL     1      28.074  41.244  53.316  1.00  0.00     0.007 C 
ENDBRANCH  19  20
BRANCH  19  22
HETATM   22  C   UNL     1      28.821  44.513  54.391  1.00  0.00    -0.033 A 
HETATM   23  C   UNL     1      29.973  43.999  54.998  1.00  0.00     0.028 A 
HETATM   24  C   UNL     1      30.520  44.675  56.078  1.00  0.00     0.116 A 
HETATM   25  N   UNL     1      30.008  45.815  56.589  1.00  0.00    -0.273 NA
HETATM   26  C   UNL     1      28.903  46.302  55.987  1.00  0.00     0.116 A 
HETATM   27  C   UNL     1      28.280  45.697  54.906  1.00  0.00     0.028 A 
ENDBRANCH  19  22
ENDBRANCH   1  19
TORSDOF 7
ENDMDL
MODEL 2
REMARK VINA RESULT:      -8.2      1.905      2.832
REMARK  7 active torsions:
REMARK  status: ('A' for Active; 'I' for Inactive)
REMARK    1  A    between atoms: C_2  and  C_3 
REMARK    2  A    between atoms: C_3  and  N_4 
REMARK    3  A    between atoms: C_3  and  C_20 
REMARK       I    between atoms: N_4  and  C_5 
REMARK       I    between atoms: C_5  and  N_6 
REMARK    4  A    between atoms: N_6  and  C_7 
REMARK    5  A    between atoms: C_7  and  C_8 
REMARK    6  A    between atoms: C_10  and  O_11 
REMARK    7  A    between atoms: O_11  and  C_12 
ROOT
HETATM    1  N   UNL     1      26.599  45.595  53.553  1.00  0.00    -0.334 N 
HETATM    2  C   UNL     1      25.464  44.858  53.464  1.00  0.00     0.316 C 
HETATM    3  N   UNL     1      24.995  44.610  52.219  1.00  0.00    -0.339 N 
HETATM    4  O   UNL     1      24.851  44.422  54.434  1.00  0.00    -0.247 OA
HETATM    5  H   UNL     1      26.969  46.032  52.727  1.00  0.00     0.165 HD
HETATM    6  H   UNL     1      24.134  44.078  52.230  1.00  0.00     0.164 HD
ENDROOT
BRANCH   3   7
HETATM    7  C   UNL     1      25.609  44.852  50.932  1.00  0.00     0.163 C 
BRANCH   7   8
HETATM    8  C   UNL     1      25.362  46.228  50.367  1.00  0.00    -0.035 A 
HETATM    9  C   UNL     1      24.092  46.704  50.021  1.00  0.00     0.066 A 
HETATM   10  C   UNL     1      23.983  47.970  49.463  1.00  0.00     0.164 A 
HETATM   11  N   UNL     1      25.028  48.795  49.248  1.00  0.00    -0.237 NA
HETATM   12  C   UNL     1      26.242  48.329  49.601  1.00  0.00     0.120 A 
HETATM   13  C   UNL     1      26.456  47.075  50.152  1.00  0.00     0.028 A 
BRANCH  10  14
HETATM   14  O   UNL     1      22.713  48.385  49.109  1.00  0.00    -0.329 OA
BRANCH  14  15
HETATM   15  C   UNL     1      22.492  49.813  49.114  1.00  0.00     0.130 C 
HETATM   16  C   UNL     1      22.075  50.458  47.764  1.00  0.00     0.032 C 
HETATM   17  C   UNL     1      21.096  51.341  48.558  1.00  0.00     0.005 C 
HETATM   18  C   UNL     1      21.105  50.256  49.648  1.00  0.00     0.032 C 
ENDBRANCH  14  15
ENDBRANCH  10  14
ENDBRANCH   7   8
ENDBRANCH   3   7
BRANCH   1  19
HETATM   19  C   UNL     1      27.271  45.844  54.820  1.00  0.00     0.119 C 
BRANCH  19  20
HETATM   20  C   UNL     1      27.669  47.324  54.956  1.00  0.00     0.025 C 
HETATM   21  C   UNL     1      26.489  48.208  55.340  1.00  0.00     0.007 C 
ENDBRANCH  19  20
BRANCH  19  22
HETATM   22  C   UNL     1      28.486  44.942  54.953  1.00  0.00    -0.033 A 
HETATM   23  C   UNL     1      29.508  45.270  55.850  1.00  0.00     0.028 A 
HETATM   24  C   UNL     1      30.614  44.439  55.941  1.00  0.00     0.116 A 
HETATM   25  N   UNL     1      30.771  43.314  55.212  1.00  0.00    -0.273 NA
HETATM   26  C   UNL     1      29.774  43.006  54.357  1.00  0.00     0.116 A 
HETATM   27  C   UNL     1      28.632  43.775  54.191  1.00  0.00     0.028 A 
ENDBRANCH  19  22
ENDBRANCH   1  19
TORSDOF 7
ENDMDL
MODEL 3
REMARK VINA RESULT:      -8.2      1.793      2.762
REMARK  7 active torsions:
REMARK  status: ('A' for Active; 'I' for Inactive)
REMARK    1  A    between atoms: C_2  and  C_3 
REMARK    2  A    between atoms: C_3  and  N_4 
REMARK    3  A    between atoms: C_3  and  C_20 
REMARK       I    between atoms: N_4  and  C_5 
REMARK       I    between atoms: C_5  and  N_6 
REMARK    4  A    between atoms: N_6  and  C_7 
REMARK    5  A    between atoms: C_7  and  C_8 
REMARK    6  A    between atoms: C_10  and  O_11 
REMARK    7  A    between atoms: O_11  and  C_12 
ROOT
HETATM    1  N   UNL     1      26.720  46.156  53.024  1.00  0.00    -0.334 N 
HETATM    2  C   UNL     1      25.568  45.857  52.375  1.00  0.00     0.316 C 
HETATM    3  N   UNL     1      25.364  46.468  51.184  1.00  0.00    -0.339 N 
HETATM    4  O   UNL     1      24.717  45.085  52.806  1.00  0.00    -0.247 OA
HETATM    5  H   UNL     1      27.303  46.897  52.677  1.00  0.00     0.165 HD
HETATM    6  H   UNL     1      24.475  46.218  50.770  1.00  0.00     0.164 HD
ENDROOT
BRANCH   3   7
HETATM    7  C   UNL     1      26.267  47.267  50.385  1.00  0.00     0.163 C 
BRANCH   7   8
HETATM    8  C   UNL     1      25.589  48.251  49.465  1.00  0.00    -0.035 A 
HETATM    9  C   UNL     1      24.204  48.300  49.273  1.00  0.00     0.066 A 
HETATM   10  C   UNL     1      23.688  49.214  48.366  1.00  0.00     0.164 A 
HETATM   11  N   UNL     1      24.437  50.086  47.661  1.00  0.00    -0.237 NA
HETATM   12  C   UNL     1      25.767  50.038  47.868  1.00  0.00     0.120 A 
HETATM   13  C   UNL     1      26.380  49.152  48.742  1.00  0.00     0.028 A 
BRANCH  10  14
HETATM   14  O   UNL     1      22.318  49.204  48.186  1.00  0.00    -0.329 OA
BRANCH  14  15
HETATM   15  C   UNL     1      21.697  50.496  48.001  1.00  0.00     0.130 C 
HETATM   16  C   UNL     1      20.236  50.499  47.474  1.00  0.00     0.032 C 
HETATM   17  C   UNL     1      19.948  51.648  48.456  1.00  0.00     0.005 C 
HETATM   18  C   UNL     1      21.134  51.140  49.294  1.00  0.00     0.032 C 
ENDBRANCH  14  15
ENDBRANCH  10  14
ENDBRANCH   7   8
ENDBRANCH   3   7
BRANCH   1  19
HETATM   19  C   UNL     1      27.116  45.492  54.257  1.00  0.00     0.119 C 
BRANCH  19  20
HETATM   20  C   UNL     1      27.535  46.513  55.329  1.00  0.00     0.025 C 
HETATM   21  C   UNL     1      26.722  47.799  55.252  1.00  0.00     0.007 C 
ENDBRANCH  19  20
BRANCH  19  22
HETATM   22  C   UNL     1      28.238  44.505  53.981  1.00  0.00    -0.033 A 
HETATM   23  C   UNL     1      29.210  44.258  54.957  1.00  0.00     0.028 A 
HETATM   24  C   UNL     1      30.233  43.366  54.675  1.00  0.00     0.116 A 
HETATM   25  N   UNL     1      30.354  42.706  53.504  1.00  0.00    -0.273 NA
HETATM   26  C   UNL     1      29.405  42.949  52.575  1.00  0.00     0.116 A 
HETATM   27  C   UNL     1      28.347  43.826  52.761  1.00  0.00     0.028 A 
ENDBRANCH  19  22
ENDBRANCH   1  19
TORSDOF 7
ENDMDL
MODEL 4
REMARK VINA RESULT:      -8.0      1.893      2.729
REMARK  7 active torsions:
REMARK  status: ('A' for Active; 'I' for Inactive)
REMARK    1  A    between atoms: C_2  and  C_3 
REMARK    2  A    between atoms: C_3  and  N_4 
REMARK    3  A    between atoms: C_3  and  C_20 
REMARK       I    between atoms: N_4  and  C_5 
REMARK       I    between atoms: C_5  and  N_6 
REMARK    4  A    between atoms: N_6  and  C_7 
REMARK    5  A    between atoms: C_7  and  C_8 
REMARK    6  A    between atoms: C_10  and  O_11 
REMARK    7  A    between atoms: O_11  and  C_12 
ROOT
HETATM    1  N   UNL     1      27.071  43.779  52.637  1.00  0.00    -0.334 N 
HETATM    2  C   UNL     1      27.274  42.975  51.564  1.00  0.00     0.316 C 
HETATM    3  N   UNL     1      27.277  43.572  50.348  1.00  0.00    -0.339 N 
HETATM    4  O   UNL     1      27.444  41.762  51.637  1.00  0.00    -0.247 OA
HETATM    5  H   UNL     1      26.803  44.737  52.492  1.00  0.00     0.165 HD
HETATM    6  H   UNL     1      27.408  42.910  49.594  1.00  0.00     0.164 HD
ENDROOT
BRANCH   3   7
HETATM    7  C   UNL     1      27.276  44.977  50.005  1.00  0.00     0.163 C 
BRANCH   7   8
HETATM    8  C   UNL     1      25.913  45.552  49.714  1.00  0.00    -0.035 A 
HETATM    9  C   UNL     1      25.561  46.879  49.985  1.00  0.00     0.066 A 
HETATM   10  C   UNL     1      24.262  47.292  49.722  1.00  0.00     0.164 A 
HETATM   11  N   UNL     1      23.307  46.498  49.197  1.00  0.00    -0.237 NA
HETATM   12  C   UNL     1      23.665  45.228  48.927  1.00  0.00     0.120 A 
HETATM   13  C   UNL     1      24.932  44.716  49.166  1.00  0.00     0.028 A 
BRANCH  10  14
HETATM   14  O   UNL     1      23.953  48.602  50.034  1.00  0.00    -0.329 OA
BRANCH  14  15
HETATM   15  C   UNL     1      23.126  49.300  49.076  1.00  0.00     0.130 C 
HETATM   16  C   UNL     1      22.427  50.595  49.572  1.00  0.00     0.032 C 
HETATM   17  C   UNL     1      22.749  51.220  48.203  1.00  0.00     0.005 C 
HETATM   18  C   UNL     1      23.901  50.208  48.086  1.00  0.00     0.032 C 
ENDBRANCH  14  15
ENDBRANCH  10  14
ENDBRANCH   7   8
ENDBRANCH   3   7
BRANCH   1  19
HETATM   19  C   UNL     1      27.151  43.289  54.005  1.00  0.00     0.119 C 
BRANCH  19  20
HETATM   20  C   UNL     1      25.942  43.757  54.835  1.00  0.00     0.025 C 
HETATM   21  C   UNL     1      25.100  44.790  54.098  1.00  0.00     0.007 C 
ENDBRANCH  19  20
BRANCH  19  22
HETATM   22  C   UNL     1      28.454  43.737  54.644  1.00  0.00    -0.033 A 
HETATM   23  C   UNL     1      28.546  45.003  55.235  1.00  0.00     0.028 A 
HETATM   24  C   UNL     1      29.751  45.394  55.797  1.00  0.00     0.116 A 
HETATM   25  N   UNL     1      30.858  44.623  55.816  1.00  0.00    -0.273 NA
HETATM   26  C   UNL     1      30.752  43.402  55.250  1.00  0.00     0.116 A 
HETATM   27  C   UNL     1      29.593  42.922  54.659  1.00  0.00     0.028 A 
ENDBRANCH  19  22
ENDBRANCH   1  19
TORSDOF 7
ENDMDL
MODEL 5
REMARK VINA RESULT:      -7.8      2.443      8.845
REMARK  7 active torsions:
REMARK  status: ('A' for Active; 'I' for Inactive)
REMARK    1  A    between atoms: C_2  and  C_3 
REMARK    2  A    between atoms: C_3  and  N_4 
REMARK    3  A    between atoms: C_3  and  C_20 
REMARK       I    between atoms: N_4  and  C_5 
REMARK       I    between atoms: C_5  and  N_6 
REMARK    4  A    between atoms: N_6  and  C_7 
REMARK    5  A    between atoms: C_7  and  C_8 
REMARK    6  A    between atoms: C_10  and  O_11 
REMARK    7  A    between atoms: O_11  and  C_12 
ROOT
HETATM    1  N   UNL     1      24.924  46.364  50.628  1.00  0.00    -0.334 N 
HETATM    2  C   UNL     1      25.475  46.404  51.866  1.00  0.00     0.316 C 
HETATM    3  N   UNL     1      26.238  45.345  52.227  1.00  0.00    -0.339 N 
HETATM    4  O   UNL     1      25.315  47.326  52.659  1.00  0.00    -0.247 OA
HETATM    5  H   UNL     1      24.986  45.518  50.088  1.00  0.00     0.165 HD
HETATM    6  H   UNL     1      26.594  45.431  53.171  1.00  0.00     0.164 HD
ENDROOT
BRANCH   3   7
HETATM    7  C   UNL     1      26.719  44.235  51.435  1.00  0.00     0.163 C 
BRANCH   7   8
HETATM    8  C   UNL     1      27.707  43.341  52.140  1.00  0.00    -0.035 A 
HETATM    9  C   UNL     1      28.736  43.822  52.957  1.00  0.00     0.066 A 
HETATM   10  C   UNL     1      29.622  42.914  53.520  1.00  0.00     0.164 A 
HETATM   11  N   UNL     1      29.546  41.578  53.349  1.00  0.00    -0.237 NA
HETATM   12  C   UNL     1      28.541  41.129  52.573  1.00  0.00     0.120 A 
HETATM   13  C   UNL     1      27.615  41.957  51.955  1.00  0.00     0.028 A 
BRANCH  10  14
HETATM   14  O   UNL     1      30.640  43.437  54.293  1.00  0.00    -0.329 OA
BRANCH  14  15
HETATM   15  C   UNL     1      30.329  43.640  55.690  1.00  0.00     0.130 C 
HETATM   16  C   UNL     1      31.406  43.192  56.716  1.00  0.00     0.032 C 
HETATM   17  C   UNL     1      31.083  44.463  57.520  1.00  0.00     0.005 C 
HETATM   18  C   UNL     1      30.570  45.083  56.208  1.00  0.00     0.032 C 
ENDBRANCH  14  15
ENDBRANCH  10  14
ENDBRANCH   7   8
ENDBRANCH   3   7
BRANCH   1  19
HETATM   19  C   UNL     1      24.174  47.480  50.071  1.00  0.00     0.119 C 
BRANCH  19  20
HETATM   20  C   UNL     1      23.059  46.987  49.132  1.00  0.00     0.025 C 
HETATM   21  C   UNL     1      23.169  45.497  48.835  1.00  0.00     0.007 C 
ENDBRANCH  19  20
BRANCH  19  22
HETATM   22  C   UNL     1      25.112  48.429  49.346  1.00  0.00    -0.033 A 
HETATM   23  C   UNL     1      26.496  48.320  49.526  1.00  0.00     0.028 A 
HETATM   24  C   UNL     1      27.331  49.209  48.867  1.00  0.00     0.116 A 
HETATM   25  N   UNL     1      26.890  50.187  48.047  1.00  0.00    -0.273 NA
HETATM   26  C   UNL     1      25.554  50.275  47.877  1.00  0.00     0.116 A 
HETATM   27  C   UNL     1      24.640  49.436  48.496  1.00  0.00     0.028 A 
ENDBRANCH  19  22
ENDBRANCH   1  19
TORSDOF 7
ENDMDL
MODEL 6
REMARK VINA RESULT:      -7.8      2.310      8.026
REMARK  7 active torsions:
REMARK  status: ('A' for Active; 'I' for Inactive)
REMARK    1  A    between atoms: C_2  and  C_3 
REMARK    2  A    between atoms: C_3  and  N_4 
REMARK    3  A    between atoms: C_3  and  C_20 
REMARK       I    between atoms: N_4  and  C_5 
REMARK       I    between atoms: C_5  and  N_6 
REMARK    4  A    between atoms: N_6  and  C_7 
REMARK    5  A    between atoms: C_7  and  C_8 
REMARK    6  A    between atoms: C_10  and  O_11 
REMARK    7  A    between atoms: O_11  and  C_12 
ROOT
HETATM    1  N   UNL     1      26.203  46.052  51.749  1.00  0.00    -0.334 N 
HETATM    2  C   UNL     1      25.298  45.562  52.633  1.00  0.00     0.316 C 
HETATM    3  N   UNL     1      25.551  45.777  53.946  1.00  0.00    -0.339 N 
HETATM    4  O   UNL     1      24.290  44.941  52.310  1.00  0.00    -0.247 OA
HETATM    5  H   UNL     1      27.070  46.428  52.090  1.00  0.00     0.165 HD
HETATM    6  H   UNL     1      24.849  45.363  54.545  1.00  0.00     0.164 HD
ENDROOT
BRANCH   3   7
HETATM    7  C   UNL     1      26.552  46.612  54.572  1.00  0.00     0.163 C 
BRANCH   7   8
HETATM    8  C   UNL     1      27.820  45.892  54.955  1.00  0.00    -0.035 A 
HETATM    9  C   UNL     1      28.146  44.609  54.503  1.00  0.00     0.066 A 
HETATM   10  C   UNL     1      29.317  44.019  54.956  1.00  0.00     0.164 A 
HETATM   11  N   UNL     1      30.187  44.612  55.798  1.00  0.00    -0.237 NA
HETATM   12  C   UNL     1      29.867  45.853  56.213  1.00  0.00     0.120 A 
HETATM   13  C   UNL     1      28.715  46.522  55.828  1.00  0.00     0.028 A 
BRANCH  10  14
HETATM   14  O   UNL     1      29.582  42.739  54.506  1.00  0.00    -0.329 OA
BRANCH  14  15
HETATM   15  C   UNL     1      28.624  42.187  53.576  1.00  0.00     0.130 C 
HETATM   16  C   UNL     1      28.957  42.328  52.066  1.00  0.00     0.032 C 
HETATM   17  C   UNL     1      28.419  40.899  51.875  1.00  0.00     0.005 C 
HETATM   18  C   UNL     1      28.732  40.655  53.362  1.00  0.00     0.032 C 
ENDBRANCH  14  15
ENDBRANCH  10  14
ENDBRANCH   7   8
ENDBRANCH   3   7
BRANCH   1  19
HETATM   19  C   UNL     1      26.002  45.987  50.310  1.00  0.00     0.119 C 
BRANCH  19  20
HETATM   20  C   UNL     1      26.971  44.985  49.657  1.00  0.00     0.025 C 
HETATM   21  C   UNL     1      26.387  43.581  49.581  1.00  0.00     0.007 C 
ENDBRANCH  19  20
BRANCH  19  22
HETATM   22  C   UNL     1      26.158  47.369  49.698  1.00  0.00    -0.033 A 
HETATM   23  C   UNL     1      27.435  47.892  49.465  1.00  0.00     0.028 A 
HETATM   24  C   UNL     1      27.551  49.162  48.921  1.00  0.00     0.116 A 
HETATM   25  N   UNL     1      26.497  49.939  48.594  1.00  0.00    -0.273 NA
HETATM   26  C   UNL     1      25.272  49.418  48.818  1.00  0.00     0.116 A 
HETATM   27  C   UNL     1      25.054  48.161  49.361  1.00  0.00     0.028 A 
ENDBRANCH  19  22
ENDBRANCH   1  19
TORSDOF 7
ENDMDL
MODEL 7
REMARK VINA RESULT:      -7.7      3.233      5.197
REMARK  7 active torsions:
REMARK  status: ('A' for Active; 'I' for Inactive)
REMARK    1  A    between atoms: C_2  and  C_3 
REMARK    2  A    between atoms: C_3  and  N_4 
REMARK    3  A    between atoms: C_3  and  C_20 
REMARK       I    between atoms: N_4  and  C_5 
REMARK       I    between atoms: C_5  and  N_6 
REMARK    4  A    between atoms: N_6  and  C_7 
REMARK    5  A    between atoms: C_7  and  C_8 
REMARK    6  A    between atoms: C_10  and  O_11 
REMARK    7  A    between atoms: O_11  and  C_12 
ROOT
HETATM    1  N   UNL     1      28.146  44.300  54.595  1.00  0.00    -0.334 N 
HETATM    2  C   UNL     1      27.018  43.551  54.670  1.00  0.00     0.316 C 
HETATM    3  N   UNL     1      26.910  42.522  53.796  1.00  0.00    -0.339 N 
HETATM    4  O   UNL     1      26.108  43.759  55.467  1.00  0.00    -0.247 OA
HETATM    5  H   UNL     1      28.783  44.156  53.831  1.00  0.00     0.165 HD
HETATM    6  H   UNL     1      26.034  42.025  53.893  1.00  0.00     0.164 HD
ENDROOT
BRANCH   3   7
HETATM    7  C   UNL     1      27.894  41.965  52.894  1.00  0.00     0.163 C 
BRANCH   7   8
HETATM    8  C   UNL     1      27.574  42.139  51.431  1.00  0.00    -0.035 A 
HETATM    9  C   UNL     1      26.864  43.232  50.921  1.00  0.00     0.066 A 
HETATM   10  C   UNL     1      26.582  43.270  49.562  1.00  0.00     0.164 A 
HETATM   11  N   UNL     1      26.968  42.323  48.683  1.00  0.00    -0.237 NA
HETATM   12  C   UNL     1      27.663  41.285  49.186  1.00  0.00     0.120 A 
HETATM   13  C   UNL     1      27.983  41.150  50.529  1.00  0.00     0.028 A 
BRANCH  10  14
HETATM   14  O   UNL     1      25.853  44.352  49.110  1.00  0.00    -0.329 OA
BRANCH  14  15
HETATM   15  C   UNL     1      25.778  45.482  50.007  1.00  0.00     0.130 C 
HETATM   16  C   UNL     1      26.686  46.698  49.676  1.00  0.00     0.032 C 
HETATM   17  C   UNL     1      25.515  47.608  50.083  1.00  0.00     0.005 C 
HETATM   18  C   UNL     1      24.576  46.431  49.762  1.00  0.00     0.032 C 
ENDBRANCH  14  15
ENDBRANCH  10  14
ENDBRANCH   7   8
ENDBRANCH   3   7
BRANCH   1  19
HETATM   19  C   UNL     1      28.440  45.365  55.541  1.00  0.00     0.119 C 
BRANCH  19  20
HETATM   20  C   UNL     1      28.711  46.695  54.815  1.00  0.00     0.025 C 
HETATM   21  C   UNL     1      27.463  47.563  54.714  1.00  0.00     0.007 C 
ENDBRANCH  19  20
BRANCH  19  22
HETATM   22  C   UNL     1      29.620  44.975  56.415  1.00  0.00    -0.033 A 
HETATM   23  C   UNL     1      29.844  45.639  57.627  1.00  0.00     0.028 A 
HETATM   24  C   UNL     1      30.937  45.275  58.399  1.00  0.00     0.116 A 
HETATM   25  N   UNL     1      31.812  44.307  58.055  1.00  0.00    -0.273 NA
HETATM   26  C   UNL     1      31.578  43.670  56.888  1.00  0.00     0.116 A 
HETATM   27  C   UNL     1      30.517  43.965  56.046  1.00  0.00     0.028 A 
ENDBRANCH  19  22
ENDBRANCH   1  19
TORSDOF 7
ENDMDL
MODEL 8
REMARK VINA RESULT:      -7.7      1.699      2.288
REMARK  7 active torsions:
REMARK  status: ('A' for Active; 'I' for Inactive)
REMARK    1  A    between atoms: C_2  and  C_3 
REMARK    2  A    between atoms: C_3  and  N_4 
REMARK    3  A    between atoms: C_3  and  C_20 
REMARK       I    between atoms: N_4  and  C_5 
REMARK       I    between atoms: C_5  and  N_6 
REMARK    4  A    between atoms: N_6  and  C_7 
REMARK    5  A    between atoms: C_7  and  C_8 
REMARK    6  A    between atoms: C_10  and  O_11 
REMARK    7  A    between atoms: O_11  and  C_12 
ROOT
HETATM    1  N   UNL     1      26.152  45.362  51.597  1.00  0.00    -0.334 N 
HETATM    2  C   UNL     1      26.335  45.482  50.258  1.00  0.00     0.316 C 
HETATM    3  N   UNL     1      25.403  46.191  49.577  1.00  0.00    -0.339 N 
HETATM    4  O   UNL     1      27.276  44.987  49.647  1.00  0.00    -0.247 OA
HETATM    5  H   UNL     1      25.290  45.677  52.006  1.00  0.00     0.165 HD
HETATM    6  H   UNL     1      25.590  46.217  48.583  1.00  0.00     0.164 HD
ENDROOT
BRANCH   3   7
HETATM    7  C   UNL     1      24.316  47.007  50.071  1.00  0.00     0.163 C 
BRANCH   7   8
HETATM    8  C   UNL     1      24.073  48.271  49.285  1.00  0.00    -0.035 A 
HETATM    9  C   UNL     1      22.797  48.762  48.989  1.00  0.00     0.066 A 
HETATM   10  C   UNL     1      22.685  49.910  48.217  1.00  0.00     0.164 A 
HETATM   11  N   UNL     1      23.737  50.608  47.743  1.00  0.00    -0.237 NA
HETATM   12  C   UNL     1      24.960  50.132  48.049  1.00  0.00     0.120 A 
HETATM   13  C   UNL     1      25.175  48.987  48.802  1.00  0.00     0.028 A 
BRANCH  10  14
HETATM   14  O   UNL     1      21.405  50.339  47.924  1.00  0.00    -0.329 OA
BRANCH  14  15
HETATM   15  C   UNL     1      20.826  51.278  48.859  1.00  0.00     0.130 C 
HETATM   16  C   UNL     1      19.590  52.079  48.366  1.00  0.00     0.032 C 
HETATM   17  C   UNL     1      18.984  51.888  49.767  1.00  0.00     0.005 C 
HETATM   18  C   UNL     1      19.880  50.647  49.914  1.00  0.00     0.032 C 
ENDBRANCH  14  15
ENDBRANCH  10  14
ENDBRANCH   7   8
ENDBRANCH   3   7
BRANCH   1  19
HETATM   19  C   UNL     1      27.130  44.723  52.463  1.00  0.00     0.119 C 
BRANCH  19  20
HETATM   20  C   UNL     1      26.687  43.300  52.847  1.00  0.00     0.025 C 
HETATM   21  C   UNL     1      27.653  42.237  52.340  1.00  0.00     0.007 C 
ENDBRANCH  19  20
BRANCH  19  22
HETATM   22  C   UNL     1      27.363  45.571  53.702  1.00  0.00    -0.033 A 
HETATM   23  C   UNL     1      28.337  45.196  54.635  1.00  0.00     0.028 A 
HETATM   24  C   UNL     1      28.519  45.978  55.765  1.00  0.00     0.116 A 
HETATM   25  N   UNL     1      27.809  47.095  56.030  1.00  0.00    -0.273 NA
HETATM   26  C   UNL     1      26.879  47.447  55.118  1.00  0.00     0.116 A 
HETATM   27  C   UNL     1      26.620  46.729  53.960  1.00  0.00     0.028 A 
ENDBRANCH  19  22
ENDBRANCH   1  19
TORSDOF 7
ENDMDL
MODEL 9
REMARK VINA RESULT:      -7.5      2.538      9.175
REMARK  7 active torsions:
REMARK  status: ('A' for Active; 'I' for Inactive)
REMARK    1  A    between atoms: C_2  and  C_3 
REMARK    2  A    between atoms: C_3  and  N_4 
REMARK    3  A    between atoms: C_3  and  C_20 
REMARK       I    between atoms: N_4  and  C_5 
REMARK       I    between atoms: C_5  and  N_6 
REMARK    4  A    between atoms: N_6  and  C_7 
REMARK    5  A    between atoms: C_7  and  C_8 
REMARK    6  A    between atoms: C_10  and  O_11 
REMARK    7  A    between atoms: O_11  and  C_12 
ROOT
HETATM    1  N   UNL     1      23.779  48.195  49.382  1.00  0.00    -0.334 N 
HETATM    2  C   UNL     1      23.658  46.844  49.402  1.00  0.00     0.316 C 
HETATM    3  N   UNL     1      24.335  46.186  50.372  1.00  0.00    -0.339 N 
HETATM    4  O   UNL     1      22.986  46.203  48.599  1.00  0.00    -0.247 OA
HETATM    5  H   UNL     1      24.451  48.638  49.983  1.00  0.00     0.165 HD
HETATM    6  H   UNL     1      24.219  45.183  50.310  1.00  0.00     0.164 HD
ENDROOT
BRANCH   3   7
HETATM    7  C   UNL     1      25.041  46.703  51.524  1.00  0.00     0.163 C 
BRANCH   7   8
HETATM    8  C   UNL     1      26.055  45.757  52.116  1.00  0.00    -0.035 A 
HETATM    9  C   UNL     1      26.363  45.712  53.480  1.00  0.00     0.066 A 
HETATM   10  C   UNL     1      27.348  44.836  53.913  1.00  0.00     0.164 A 
HETATM   11  N   UNL     1      28.025  43.997  53.102  1.00  0.00    -0.237 NA
HETATM   12  C   UNL     1      27.706  44.041  51.794  1.00  0.00     0.120 A 
HETATM   13  C   UNL     1      26.747  44.890  51.262  1.00  0.00     0.028 A 
BRANCH  10  14
HETATM   14  O   UNL     1      27.640  44.848  55.263  1.00  0.00    -0.329 OA
BRANCH  14  15
HETATM   15  C   UNL     1      28.762  45.668  55.658  1.00  0.00     0.130 C 
HETATM   16  C   UNL     1      28.810  46.117  57.144  1.00  0.00     0.032 C 
HETATM   17  C   UNL     1      30.327  45.863  57.110  1.00  0.00     0.005 C 
HETATM   18  C   UNL     1      30.070  44.887  55.949  1.00  0.00     0.032 C 
ENDBRANCH  14  15
ENDBRANCH  10  14
ENDBRANCH   7   8
ENDBRANCH   3   7
BRANCH   1  19
HETATM   19  C   UNL     1      23.022  49.033  48.464  1.00  0.00     0.119 C 
BRANCH  19  20
HETATM   20  C   UNL     1      23.854  50.240  47.998  1.00  0.00     0.025 C 
HETATM   21  C   UNL     1      25.351  49.960  48.036  1.00  0.00     0.007 C 
ENDBRANCH  19  20
BRANCH  19  22
HETATM   22  C   UNL     1      21.728  49.487  49.119  1.00  0.00    -0.033 A 
HETATM   23  C   UNL     1      20.599  48.660  49.089  1.00  0.00     0.028 A 
HETATM   24  C   UNL     1      19.426  49.103  49.679  1.00  0.00     0.116 A 
HETATM   25  N   UNL     1      19.299  50.298  50.293  1.00  0.00    -0.273 NA
HETATM   26  C   UNL     1      20.398  51.082  50.321  1.00  0.00     0.116 A 
HETATM   27  C   UNL     1      21.613  50.729  49.756  1.00  0.00     0.028 A 
ENDBRANCH  19  22
ENDBRANCH   1  19
TORSDOF 7
ENDMDL
MODEL 10
REMARK VINA RESULT:      -7.5      2.110      2.770
REMARK  7 active torsions:
REMARK  status: ('A' for Active; 'I' for Inactive)
REMARK    1  A    between atoms: C_2  and  C_3 
REMARK    2  A    between atoms: C_3  and  N_4 
REMARK    3  A    between atoms: C_3  and  C_20 
REMARK       I    between atoms: N_4  and  C_5 
REMARK       I    between atoms: C_5  and  N_6 
REMARK    4  A    between atoms: N_6  and  C_7 
REMARK    5  A    between atoms: C_7  and  C_8 
REMARK    6  A    between atoms: C_10  and  O_11 
REMARK    7  A    between atoms: O_11  and  C_12 
ROOT
HETATM    1  N   UNL     1      27.182  43.680  51.261  1.00  0.00    -0.334 N 
HETATM    2  C   UNL     1      26.841  43.696  49.948  1.00  0.00     0.316 C 
HETATM    3  N   UNL     1      25.958  44.647  49.559  1.00  0.00    -0.339 N 
HETATM    4  O   UNL     1      27.276  42.905  49.116  1.00  0.00    -0.247 OA
HETATM    5  H   UNL     1      26.683  44.268  51.906  1.00  0.00     0.165 HD
HETATM    6  H   UNL     1      25.732  44.582  48.575  1.00  0.00     0.164 HD
ENDROOT
BRANCH   3   7
HETATM    7  C   UNL     1      25.441  45.784  50.287  1.00  0.00     0.163 C 
BRANCH   7   8
HETATM    8  C   UNL     1      24.219  46.420  49.673  1.00  0.00    -0.035 A 
HETATM    9  C   UNL     1      23.924  47.783  49.776  1.00  0.00     0.066 A 
HETATM   10  C   UNL     1      22.747  48.257  49.214  1.00  0.00     0.164 A 
HETATM   11  N   UNL     1      21.864  47.486  48.547  1.00  0.00    -0.237 NA
HETATM   12  C   UNL     1      22.169  46.178  48.442  1.00  0.00     0.120 A 
HETATM   13  C   UNL     1      23.313  45.608  48.981  1.00  0.00     0.028 A 
BRANCH  10  14
HETATM   14  O   UNL     1      22.483  49.604  49.368  1.00  0.00    -0.329 OA
BRANCH  14  15
HETATM   15  C   UNL     1      21.099  49.995  49.233  1.00  0.00     0.130 C 
HETATM   16  C   UNL     1      20.556  51.012  50.275  1.00  0.00     0.032 C 
HETATM   17  C   UNL     1      19.790  51.689  49.125  1.00  0.00     0.005 C 
HETATM   18  C   UNL     1      20.831  51.088  48.165  1.00  0.00     0.032 C 
ENDBRANCH  14  15
ENDBRANCH  10  14
ENDBRANCH   7   8
ENDBRANCH   3   7
BRANCH   1  19
HETATM   19  C   UNL     1      28.198  42.785  51.792  1.00  0.00     0.119 C 
BRANCH  19  20
HETATM   20  C   UNL     1      27.629  41.374  52.026  1.00  0.00     0.025 C 
HETATM   21  C   UNL     1      28.378  40.310  51.235  1.00  0.00     0.007 C 
ENDBRANCH  19  20
BRANCH  19  22
HETATM   22  C   UNL     1      28.776  43.356  53.076  1.00  0.00    -0.033 A 
HETATM   23  C   UNL     1      28.155  44.444  53.701  1.00  0.00     0.028 A 
HETATM   24  C   UNL     1      28.711  44.956  54.863  1.00  0.00     0.116 A 
HETATM   25  N   UNL     1      29.828  44.467  55.442  1.00  0.00    -0.273 NA
HETATM   26  C   UNL     1      30.410  43.413  54.833  1.00  0.00     0.116 A 
HETATM   27  C   UNL     1      29.933  42.833  53.667  1.00  0.00     0.028 A 
ENDBRANCH  19  22
ENDBRANCH   1  19
TORSDOF 7
ENDMDL
