MODEL 1
REMARK VINA RESULT:      -9.9      0.000      0.000
REMARK  9 active torsions:
REMARK  status: ('A' for Active; 'I' for Inactive)
REMARK    1  A    between atoms: C_4  and  O_5 
REMARK    2  A    between atoms: O_5  and  C_6 
REMARK    3  A    between atoms: C_6  and  C_7 
REMARK       I    between atoms: C_7  and  N_8 
REMARK    4  A    between atoms: N_8  and  C_9 
REMARK    5  A    between atoms: C_9  and  N_10 
REMARK    6  A    between atoms: N_10  and  C_11 
REMARK    7  A    between atoms: C_14  and  N_15 
REMARK    8  A    between atoms: N_18  and  C_20 
REMARK    9  A    between atoms: C_20  and  C_21 
ROOT
HETATM    1  C   UNL     1      23.744  46.274  49.617  1.00  0.00     0.034 A 
HETATM    2  C   UNL     1      23.512  44.908  49.739  1.00  0.00     0.032 A 
HETATM    3  C   UNL     1      24.080  44.174  50.791  1.00  0.00     0.031 A 
HETATM    4  C   UNL     1      24.865  44.785  51.772  1.00  0.00     0.030 A 
HETATM    5  C   UNL     1      25.129  46.154  51.605  1.00  0.00     0.031 A 
HETATM    6  C   UNL     1      24.598  46.884  50.535  1.00  0.00     0.032 A 
ENDROOT
BRANCH   1   7
HETATM    7  N   UNL     1      23.231  47.068  48.575  1.00  0.00    -0.333 N 
HETATM    8  H   UNL     1      23.929  47.586  48.038  1.00  0.00     0.168 HD
BRANCH   7   9
HETATM    9  C   UNL     1      21.934  47.372  48.227  1.00  0.00     0.178 C 
HETATM   10  S   UNL     1      21.016  46.736  46.981  1.00  0.00    -0.040 SA
BRANCH   9  11
HETATM   11  N   UNL     1      21.315  48.300  49.044  1.00  0.00    -0.302 N 
HETATM   12  C   UNL     1      21.609  49.648  49.219  1.00  0.00     0.248 C 
HETATM   13  O   UNL     1      22.605  50.197  48.751  1.00  0.00    -0.271 OA
HETATM   14  H   UNL     1      20.529  47.937  49.574  1.00  0.00     0.171 HD
BRANCH  12  15
HETATM   15  C   UNL     1      20.554  50.386  50.035  1.00  0.00     0.278 C 
BRANCH  15  16
HETATM   16  O   UNL     1      19.922  51.410  49.279  1.00  0.00    -0.342 OA
BRANCH  16  17
HETATM   17  C   UNL     1      18.559  51.356  49.161  1.00  0.00     0.070 A 
HETATM   18  C   UNL     1      17.828  50.357  48.514  1.00  0.00     0.043 A 
HETATM   19  C   UNL     1      16.427  50.409  48.478  1.00  0.00    -0.059 A 
HETATM   20  C   UNL     1      15.645  49.343  47.765  1.00  0.00     0.048 C 
HETATM   21  C   UNL     1      15.765  51.492  49.067  1.00  0.00     0.013 A 
HETATM   22  C   UNL     1      16.484  52.502  49.715  1.00  0.00    -0.059 A 
HETATM   23  C   UNL     1      17.882  52.429  49.747  1.00  0.00     0.043 A 
HETATM   24  C   UNL     1      15.759  53.665  50.327  1.00  0.00     0.048 C 
ENDBRANCH  16  17
ENDBRANCH  15  16
ENDBRANCH  12  15
ENDBRANCH   9  11
ENDBRANCH   7   9
ENDBRANCH   1   7
BRANCH   4  25
HETATM   25  N   UNL     1      25.404  44.112  52.871  1.00  0.00    -0.378 N 
HETATM   26  C   UNL     1      25.244  44.659  54.229  1.00  0.00     0.150 C 
HETATM   27  C   UNL     1      26.416  45.578  54.635  1.00  0.00     0.255 C 
HETATM   28  N   UNL     1      27.762  44.901  54.387  1.00  0.00    -0.064 N 
HETATM   29  H   UNL     1      27.803  44.071  54.994  1.00  0.00     0.280 HD
HETATM   30  C   UNL     1      27.870  44.395  52.947  1.00  0.00     0.255 C 
HETATM   31  C   UNL     1      26.699  43.444  52.625  1.00  0.00     0.150 C 
BRANCH  28  32
HETATM   32  C   UNL     1      28.936  45.773  54.764  1.00  0.00     0.275 C 
BRANCH  32  33
HETATM   33  C   UNL     1      29.758  45.223  55.899  1.00  0.00    -0.011 A 
HETATM   34  C   UNL     1      30.555  44.073  55.753  1.00  0.00     0.042 A 
HETATM   35 CL   UNL     1      30.611  43.212  54.255  1.00  0.00    -0.084 Cl
HETATM   36  C   UNL     1      31.300  43.577  56.824  1.00  0.00     0.024 A 
HETATM   37  C   UNL     1      31.260  44.224  58.057  1.00  0.00     0.002 A 
HETATM   38  C   UNL     1      30.478  45.364  58.220  1.00  0.00     0.001 A 
HETATM   39  C   UNL     1      29.733  45.864  57.150  1.00  0.00     0.010 A 
ENDBRANCH  32  33
ENDBRANCH  28  32
ENDBRANCH   4  25
TORSDOF 9
ENDMDL
MODEL 2
REMARK VINA RESULT:      -9.8      2.338      3.655
REMARK  9 active torsions:
REMARK  status: ('A' for Active; 'I' for Inactive)
REMARK    1  A    between atoms: C_4  and  O_5 
REMARK    2  A    between atoms: O_5  and  C_6 
REMARK    3  A    between atoms: C_6  and  C_7 
REMARK       I    between atoms: C_7  and  N_8 
REMARK    4  A    between atoms: N_8  and  C_9 
REMARK    5  A    between atoms: C_9  and  N_10 
REMARK    6  A    between atoms: N_10  and  C_11 
REMARK    7  A    between atoms: C_14  and  N_15 
REMARK    8  A    between atoms: N_18  and  C_20 
REMARK    9  A    between atoms: C_20  and  C_21 
ROOT
HETATM    1  C   UNL     1      21.830  45.419  48.625  1.00  0.00     0.034 A 
HETATM    2  C   UNL     1      22.310  46.721  48.720  1.00  0.00     0.032 A 
HETATM    3  C   UNL     1      23.593  46.979  49.225  1.00  0.00     0.031 A 
HETATM    4  C   UNL     1      24.449  45.945  49.615  1.00  0.00     0.030 A 
HETATM    5  C   UNL     1      23.930  44.642  49.558  1.00  0.00     0.031 A 
HETATM    6  C   UNL     1      22.635  44.382  49.093  1.00  0.00     0.032 A 
ENDROOT
BRANCH   1   7
HETATM    7  N   UNL     1      20.546  45.089  48.155  1.00  0.00    -0.333 N 
HETATM    8  H   UNL     1      19.894  44.755  48.868  1.00  0.00     0.168 HD
BRANCH   7   9
HETATM    9  C   UNL     1      20.044  45.013  46.875  1.00  0.00     0.178 C 
HETATM   10  S   UNL     1      20.220  43.776  45.762  1.00  0.00    -0.040 SA
BRANCH   9  11
HETATM   11  N   UNL     1      19.268  46.090  46.490  1.00  0.00    -0.302 N 
HETATM   12  C   UNL     1      18.547  46.978  47.279  1.00  0.00     0.248 C 
HETATM   13  O   UNL     1      18.375  46.834  48.489  1.00  0.00    -0.271 OA
HETATM   14  H   UNL     1      19.242  46.254  45.488  1.00  0.00     0.171 HD
BRANCH  12  15
HETATM   15  C   UNL     1      18.005  48.168  46.496  1.00  0.00     0.278 C 
BRANCH  15  16
HETATM   16  O   UNL     1      19.043  49.047  46.085  1.00  0.00    -0.342 OA
BRANCH  16  17
HETATM   17  C   UNL     1      19.553  49.902  47.024  1.00  0.00     0.070 A 
HETATM   18  C   UNL     1      20.887  49.978  47.431  1.00  0.00     0.043 A 
HETATM   19  C   UNL     1      21.288  50.914  48.395  1.00  0.00    -0.059 A 
HETATM   20  C   UNL     1      22.719  50.978  48.843  1.00  0.00     0.048 C 
HETATM   21  C   UNL     1      20.330  51.753  48.976  1.00  0.00     0.013 A 
HETATM   22  C   UNL     1      18.989  51.687  48.581  1.00  0.00    -0.059 A 
HETATM   23  C   UNL     1      18.610  50.750  47.612  1.00  0.00     0.043 A 
HETATM   24  C   UNL     1      17.973  52.583  49.226  1.00  0.00     0.048 C 
ENDBRANCH  16  17
ENDBRANCH  15  16
ENDBRANCH  12  15
ENDBRANCH   9  11
ENDBRANCH   7   9
ENDBRANCH   1   7
BRANCH   4  25
HETATM   25  N   UNL     1      25.756  46.144  50.067  1.00  0.00    -0.378 N 
HETATM   26  C   UNL     1      26.712  45.024  50.090  1.00  0.00     0.150 C 
HETATM   27  C   UNL     1      26.710  44.275  51.440  1.00  0.00     0.255 C 
HETATM   28  N   UNL     1      26.852  45.246  52.610  1.00  0.00    -0.064 N 
HETATM   29  H   UNL     1      27.770  45.703  52.519  1.00  0.00     0.280 HD
HETATM   30  C   UNL     1      25.802  46.356  52.541  1.00  0.00     0.255 C 
HETATM   31  C   UNL     1      25.893  47.094  51.190  1.00  0.00     0.150 C 
BRANCH  28  32
HETATM   32  C   UNL     1      26.846  44.552  53.952  1.00  0.00     0.275 C 
BRANCH  32  33
HETATM   33  C   UNL     1      28.207  44.447  54.586  1.00  0.00    -0.011 A 
HETATM   34  C   UNL     1      28.737  45.475  55.386  1.00  0.00     0.042 A 
HETATM   35 CL   UNL     1      27.854  46.934  55.663  1.00  0.00    -0.084 Cl
HETATM   36  C   UNL     1      30.007  45.358  55.954  1.00  0.00     0.024 A 
HETATM   37  C   UNL     1      30.766  44.210  55.732  1.00  0.00     0.002 A 
HETATM   38  C   UNL     1      30.256  43.182  54.943  1.00  0.00     0.001 A 
HETATM   39  C   UNL     1      28.986  43.295  54.375  1.00  0.00     0.010 A 
ENDBRANCH  32  33
ENDBRANCH  28  32
ENDBRANCH   4  25
TORSDOF 9
ENDMDL
MODEL 3
REMARK VINA RESULT:      -9.8      2.202      3.544
REMARK  9 active torsions:
REMARK  status: ('A' for Active; 'I' for Inactive)
REMARK    1  A    between atoms: C_4  and  O_5 
REMARK    2  A    between atoms: O_5  and  C_6 
REMARK    3  A    between atoms: C_6  and  C_7 
REMARK       I    between atoms: C_7  and  N_8 
REMARK    4  A    between atoms: N_8  and  C_9 
REMARK    5  A    between atoms: C_9  and  N_10 
REMARK    6  A    between atoms: N_10  and  C_11 
REMARK    7  A    between atoms: C_14  and  N_15 
REMARK    8  A    between atoms: N_18  and  C_20 
REMARK    9  A    between atoms: C_20  and  C_21 
ROOT
HETATM    1  C   UNL     1      21.829  45.792  48.636  1.00  0.00     0.034 A 
HETATM    2  C   UNL     1      22.621  44.681  48.908  1.00  0.00     0.032 A 
HETATM    3  C   UNL     1      23.943  44.833  49.354  1.00  0.00     0.031 A 
HETATM    4  C   UNL     1      24.501  46.095  49.577  1.00  0.00     0.030 A 
HETATM    5  C   UNL     1      23.704  47.204  49.250  1.00  0.00     0.031 A 
HETATM    6  C   UNL     1      22.398  47.058  48.767  1.00  0.00     0.032 A 
ENDROOT
BRANCH   1   7
HETATM    7  N   UNL     1      20.507  45.715  48.161  1.00  0.00    -0.333 N 
HETATM    8  H   UNL     1      19.784  45.715  48.884  1.00  0.00     0.168 HD
BRANCH   7   9
HETATM    9  C   UNL     1      20.013  45.510  46.892  1.00  0.00     0.178 C 
HETATM   10  S   UNL     1      20.142  44.144  45.935  1.00  0.00    -0.040 SA
BRANCH   9  11
HETATM   11  N   UNL     1      19.291  46.568  46.372  1.00  0.00    -0.302 N 
HETATM   12  C   UNL     1      18.109  47.134  46.835  1.00  0.00     0.248 C 
HETATM   13  O   UNL     1      17.430  46.655  47.742  1.00  0.00    -0.271 OA
HETATM   14  H   UNL     1      19.698  46.990  45.543  1.00  0.00     0.171 HD
BRANCH  12  15
HETATM   15  C   UNL     1      17.747  48.429  46.117  1.00  0.00     0.278 C 
BRANCH  15  16
HETATM   16  O   UNL     1      18.876  49.276  45.955  1.00  0.00    -0.342 OA
BRANCH  16  17
HETATM   17  C   UNL     1      19.203  50.099  47.000  1.00  0.00     0.070 A 
HETATM   18  C   UNL     1      18.311  50.869  47.751  1.00  0.00     0.043 A 
HETATM   19  C   UNL     1      18.772  51.661  48.813  1.00  0.00    -0.059 A 
HETATM   20  C   UNL     1      17.813  52.502  49.605  1.00  0.00     0.048 C 
HETATM   21  C   UNL     1      20.143  51.703  49.093  1.00  0.00     0.013 A 
HETATM   22  C   UNL     1      21.048  50.941  48.347  1.00  0.00    -0.059 A 
HETATM   23  C   UNL     1      20.568  50.150  47.295  1.00  0.00     0.043 A 
HETATM   24  C   UNL     1      22.516  51.010  48.651  1.00  0.00     0.048 C 
ENDBRANCH  16  17
ENDBRANCH  15  16
ENDBRANCH  12  15
ENDBRANCH   9  11
ENDBRANCH   7   9
ENDBRANCH   1   7
BRANCH   4  25
HETATM   25  N   UNL     1      25.789  46.300  50.077  1.00  0.00    -0.378 N 
HETATM   26  C   UNL     1      26.816  45.252  49.937  1.00  0.00     0.150 C 
HETATM   27  C   UNL     1      26.852  44.298  51.150  1.00  0.00     0.255 C 
HETATM   28  N   UNL     1      26.924  45.075  52.462  1.00  0.00    -0.064 N 
HETATM   29  H   UNL     1      27.811  45.597  52.461  1.00  0.00     0.280 HD
HETATM   30  C   UNL     1      25.805  46.114  52.554  1.00  0.00     0.255 C 
HETATM   31  C   UNL     1      25.858  47.064  51.339  1.00  0.00     0.150 C 
BRANCH  28  32
HETATM   32  C   UNL     1      26.953  44.175  53.676  1.00  0.00     0.275 C 
BRANCH  32  33
HETATM   33  C   UNL     1      28.256  44.216  54.428  1.00  0.00    -0.011 A 
HETATM   34  C   UNL     1      29.183  43.161  54.369  1.00  0.00     0.042 A 
HETATM   35 CL   UNL     1      28.859  41.740  53.439  1.00  0.00    -0.084 Cl
HETATM   36  C   UNL     1      30.381  43.218  55.084  1.00  0.00     0.024 A 
HETATM   37  C   UNL     1      30.669  44.332  55.870  1.00  0.00     0.002 A 
HETATM   38  C   UNL     1      29.763  45.387  55.940  1.00  0.00     0.001 A 
HETATM   39  C   UNL     1      28.565  45.333  55.223  1.00  0.00     0.010 A 
ENDBRANCH  32  33
ENDBRANCH  28  32
ENDBRANCH   4  25
TORSDOF 9
ENDMDL
MODEL 4
REMARK VINA RESULT:      -9.5      1.552      2.272
REMARK  9 active torsions:
REMARK  status: ('A' for Active; 'I' for Inactive)
REMARK    1  A    between atoms: C_4  and  O_5 
REMARK    2  A    between atoms: O_5  and  C_6 
REMARK    3  A    between atoms: C_6  and  C_7 
REMARK       I    between atoms: C_7  and  N_8 
REMARK    4  A    between atoms: N_8  and  C_9 
REMARK    5  A    between atoms: C_9  and  N_10 
REMARK    6  A    between atoms: N_10  and  C_11 
REMARK    7  A    between atoms: C_14  and  N_15 
REMARK    8  A    between atoms: N_18  and  C_20 
REMARK    9  A    between atoms: C_20  and  C_21 
ROOT
HETATM    1  C   UNL     1      23.880  45.926  49.742  1.00  0.00     0.034 A 
HETATM    2  C   UNL     1      23.927  44.538  49.665  1.00  0.00     0.032 A 
HETATM    3  C   UNL     1      24.554  43.784  50.669  1.00  0.00     0.031 A 
HETATM    4  C   UNL     1      25.119  44.387  51.795  1.00  0.00     0.030 A 
HETATM    5  C   UNL     1      25.106  45.791  51.832  1.00  0.00     0.031 A 
HETATM    6  C   UNL     1      24.517  46.551  50.814  1.00  0.00     0.032 A 
ENDROOT
BRANCH   1   7
HETATM    7  N   UNL     1      23.293  46.747  48.762  1.00  0.00    -0.333 N 
HETATM    8  H   UNL     1      23.139  46.300  47.856  1.00  0.00     0.168 HD
BRANCH   7   9
HETATM    9  C   UNL     1      23.004  48.093  48.766  1.00  0.00     0.178 C 
HETATM   10  S   UNL     1      24.018  49.375  48.407  1.00  0.00    -0.040 SA
BRANCH   9  11
HETATM   11  N   UNL     1      21.693  48.405  49.074  1.00  0.00    -0.302 N 
HETATM   12  C   UNL     1      20.561  47.602  49.001  1.00  0.00     0.248 C 
HETATM   13  O   UNL     1      20.546  46.484  48.488  1.00  0.00    -0.271 OA
HETATM   14  H   UNL     1      21.553  49.351  49.414  1.00  0.00     0.171 HD
BRANCH  12  15
HETATM   15  C   UNL     1      19.335  48.241  49.643  1.00  0.00     0.278 C 
BRANCH  15  16
HETATM   16  O   UNL     1      19.349  49.656  49.517  1.00  0.00    -0.342 OA
BRANCH  16  17
HETATM   17  C   UNL     1      18.153  50.281  49.286  1.00  0.00     0.070 A 
HETATM   18  C   UNL     1      17.750  51.509  49.816  1.00  0.00     0.043 A 
HETATM   19  C   UNL     1      16.500  52.052  49.487  1.00  0.00    -0.059 A 
HETATM   20  C   UNL     1      16.062  53.363  50.073  1.00  0.00     0.048 C 
HETATM   21  C   UNL     1      15.639  51.334  48.647  1.00  0.00     0.013 A 
HETATM   22  C   UNL     1      16.028  50.102  48.113  1.00  0.00    -0.059 A 
HETATM   23  C   UNL     1      17.283  49.579  48.448  1.00  0.00     0.043 A 
HETATM   24  C   UNL     1      15.087  49.338  47.227  1.00  0.00     0.048 C 
ENDBRANCH  16  17
ENDBRANCH  15  16
ENDBRANCH  12  15
ENDBRANCH   9  11
ENDBRANCH   7   9
ENDBRANCH   1   7
BRANCH   4  25
HETATM   25  N   UNL     1      25.700  43.679  52.850  1.00  0.00    -0.378 N 
HETATM   26  C   UNL     1      25.471  44.100  54.243  1.00  0.00     0.150 C 
HETATM   27  C   UNL     1      26.548  45.085  54.745  1.00  0.00     0.255 C 
HETATM   28  N   UNL     1      27.954  44.554  54.474  1.00  0.00    -0.064 N 
HETATM   29  H   UNL     1      28.062  43.685  55.015  1.00  0.00     0.280 HD
HETATM   30  C   UNL     1      28.129  44.177  53.002  1.00  0.00     0.255 C 
HETATM   31  C   UNL     1      27.055  43.153  52.581  1.00  0.00     0.150 C 
BRANCH  28  32
HETATM   32  C   UNL     1      29.038  45.495  54.944  1.00  0.00     0.275 C 
BRANCH  32  33
HETATM   33  C   UNL     1      30.003  44.869  55.915  1.00  0.00    -0.011 A 
HETATM   34  C   UNL     1      30.047  45.246  57.269  1.00  0.00     0.042 A 
HETATM   35 CL   UNL     1      29.001  46.476  57.887  1.00  0.00    -0.084 Cl
HETATM   36  C   UNL     1      30.959  44.658  58.147  1.00  0.00     0.024 A 
HETATM   37  C   UNL     1      31.840  43.683  57.685  1.00  0.00     0.002 A 
HETATM   38  C   UNL     1      31.811  43.296  56.347  1.00  0.00     0.001 A 
HETATM   39  C   UNL     1      30.898  43.882  55.467  1.00  0.00     0.010 A 
ENDBRANCH  32  33
ENDBRANCH  28  32
ENDBRANCH   4  25
TORSDOF 9
ENDMDL
MODEL 5
REMARK VINA RESULT:      -9.1      1.781      3.061
REMARK  9 active torsions:
REMARK  status: ('A' for Active; 'I' for Inactive)
REMARK    1  A    between atoms: C_4  and  O_5 
REMARK    2  A    between atoms: O_5  and  C_6 
REMARK    3  A    between atoms: C_6  and  C_7 
REMARK       I    between atoms: C_7  and  N_8 
REMARK    4  A    between atoms: N_8  and  C_9 
REMARK    5  A    between atoms: C_9  and  N_10 
REMARK    6  A    between atoms: N_10  and  C_11 
REMARK    7  A    between atoms: C_14  and  N_15 
REMARK    8  A    between atoms: N_18  and  C_20 
REMARK    9  A    between atoms: C_20  and  C_21 
ROOT
HETATM    1  C   UNL     1      22.594  47.410  48.742  1.00  0.00     0.034 A 
HETATM    2  C   UNL     1      23.665  47.821  49.527  1.00  0.00     0.032 A 
HETATM    3  C   UNL     1      24.674  46.919  49.895  1.00  0.00     0.031 A 
HETATM    4  C   UNL     1      24.664  45.590  49.462  1.00  0.00     0.030 A 
HETATM    5  C   UNL     1      23.550  45.181  48.712  1.00  0.00     0.031 A 
HETATM    6  C   UNL     1      22.520  46.067  48.374  1.00  0.00     0.032 A 
ENDROOT
BRANCH   1   7
HETATM    7  N   UNL     1      21.534  48.251  48.357  1.00  0.00    -0.333 N 
HETATM    8  H   UNL     1      21.799  49.043  47.768  1.00  0.00     0.168 HD
BRANCH   7   9
HETATM    9  C   UNL     1      20.211  48.271  48.739  1.00  0.00     0.178 C 
HETATM   10  S   UNL     1      19.042  47.099  48.496  1.00  0.00    -0.040 SA
BRANCH   9  11
HETATM   11  N   UNL     1      19.826  49.396  49.444  1.00  0.00    -0.302 N 
HETATM   12  C   UNL     1      19.927  50.734  49.081  1.00  0.00     0.248 C 
HETATM   13  O   UNL     1      20.537  51.131  48.090  1.00  0.00    -0.271 OA
HETATM   14  H   UNL     1      19.397  49.204  50.344  1.00  0.00     0.171 HD
BRANCH  12  15
HETATM   15  C   UNL     1      19.184  51.667  50.031  1.00  0.00     0.278 C 
BRANCH  15  16
HETATM   16  O   UNL     1      17.842  51.248  50.239  1.00  0.00    -0.342 OA
BRANCH  16  17
HETATM   17  C   UNL     1      16.856  51.951  49.600  1.00  0.00     0.070 A 
HETATM   18  C   UNL     1      16.172  53.058  50.108  1.00  0.00     0.043 A 
HETATM   19  C   UNL     1      15.190  53.703  49.342  1.00  0.00    -0.059 A 
HETATM   20  C   UNL     1      14.444  54.880  49.900  1.00  0.00     0.048 C 
HETATM   21  C   UNL     1      14.873  53.205  48.073  1.00  0.00     0.013 A 
HETATM   22  C   UNL     1      15.546  52.095  47.552  1.00  0.00    -0.059 A 
HETATM   23  C   UNL     1      16.529  51.469  48.329  1.00  0.00     0.043 A 
HETATM   24  C   UNL     1      15.183  51.565  46.196  1.00  0.00     0.048 C 
ENDBRANCH  16  17
ENDBRANCH  15  16
ENDBRANCH  12  15
ENDBRANCH   9  11
ENDBRANCH   7   9
ENDBRANCH   1   7
BRANCH   4  25
HETATM   25  N   UNL     1      25.673  44.669  49.750  1.00  0.00    -0.378 N 
HETATM   26  C   UNL     1      25.336  43.348  50.308  1.00  0.00     0.150 C 
HETATM   27  C   UNL     1      25.343  43.340  51.851  1.00  0.00     0.255 C 
HETATM   28  N   UNL     1      26.634  43.942  52.402  1.00  0.00    -0.064 N 
HETATM   29  H   UNL     1      27.409  43.339  52.093  1.00  0.00     0.280 HD
HETATM   30  C   UNL     1      26.896  45.328  51.810  1.00  0.00     0.255 C 
HETATM   31  C   UNL     1      26.927  45.254  50.269  1.00  0.00     0.150 C 
BRANCH  28  32
HETATM   32  C   UNL     1      26.675  43.961  53.912  1.00  0.00     0.275 C 
BRANCH  32  33
HETATM   33  C   UNL     1      28.070  44.001  54.478  1.00  0.00    -0.011 A 
HETATM   34  C   UNL     1      28.552  45.111  55.192  1.00  0.00     0.042 A 
HETATM   35 CL   UNL     1      27.568  46.511  55.436  1.00  0.00    -0.084 Cl
HETATM   36  C   UNL     1      29.853  45.128  55.699  1.00  0.00     0.024 A 
HETATM   37  C   UNL     1      30.691  44.032  55.499  1.00  0.00     0.002 A 
HETATM   38  C   UNL     1      30.230  42.923  54.795  1.00  0.00     0.001 A 
HETATM   39  C   UNL     1      28.928  42.903  54.289  1.00  0.00     0.010 A 
ENDBRANCH  32  33
ENDBRANCH  28  32
ENDBRANCH   4  25
TORSDOF 9
ENDMDL
MODEL 6
REMARK VINA RESULT:      -9.0      3.885     12.007
REMARK  9 active torsions:
REMARK  status: ('A' for Active; 'I' for Inactive)
REMARK    1  A    between atoms: C_4  and  O_5 
REMARK    2  A    between atoms: O_5  and  C_6 
REMARK    3  A    between atoms: C_6  and  C_7 
REMARK       I    between atoms: C_7  and  N_8 
REMARK    4  A    between atoms: N_8  and  C_9 
REMARK    5  A    between atoms: C_9  and  N_10 
REMARK    6  A    between atoms: N_10  and  C_11 
REMARK    7  A    between atoms: C_14  and  N_15 
REMARK    8  A    between atoms: N_18  and  C_20 
REMARK    9  A    between atoms: C_20  and  C_21 
ROOT
HETATM    1  C   UNL     1      23.692  45.264  48.656  1.00  0.00     0.034 A 
HETATM    2  C   UNL     1      23.017  46.478  48.729  1.00  0.00     0.032 A 
HETATM    3  C   UNL     1      21.797  46.662  48.062  1.00  0.00     0.031 A 
HETATM    4  C   UNL     1      21.197  45.632  47.332  1.00  0.00     0.030 A 
HETATM    5  C   UNL     1      21.916  44.431  47.229  1.00  0.00     0.031 A 
HETATM    6  C   UNL     1      23.153  44.254  47.861  1.00  0.00     0.032 A 
ENDROOT
BRANCH   1   7
HETATM    7  N   UNL     1      24.930  45.016  49.277  1.00  0.00    -0.333 N 
HETATM    8  H   UNL     1      25.462  44.234  48.890  1.00  0.00     0.168 HD
BRANCH   7   9
HETATM    9  C   UNL     1      25.502  45.564  50.403  1.00  0.00     0.178 C 
HETATM   10  S   UNL     1      25.727  47.180  50.773  1.00  0.00    -0.040 SA
BRANCH   9  11
HETATM   11  N   UNL     1      25.904  44.647  51.356  1.00  0.00    -0.302 N 
HETATM   12  C   UNL     1      26.759  43.559  51.219  1.00  0.00     0.248 C 
HETATM   13  O   UNL     1      27.187  43.157  50.139  1.00  0.00    -0.271 OA
HETATM   14  H   UNL     1      25.527  44.810  52.284  1.00  0.00     0.171 HD
BRANCH  12  15
HETATM   15  C   UNL     1      27.133  42.924  52.554  1.00  0.00     0.278 C 
BRANCH  15  16
HETATM   16  O   UNL     1      28.540  42.896  52.749  1.00  0.00    -0.342 OA
BRANCH  16  17
HETATM   17  C   UNL     1      29.038  43.556  53.841  1.00  0.00     0.070 A 
HETATM   18  C   UNL     1      30.070  43.112  54.671  1.00  0.00     0.043 A 
HETATM   19  C   UNL     1      30.502  43.894  55.752  1.00  0.00    -0.059 A 
HETATM   20  C   UNL     1      31.598  43.405  56.653  1.00  0.00     0.048 C 
HETATM   21  C   UNL     1      29.863  45.111  56.017  1.00  0.00     0.013 A 
HETATM   22  C   UNL     1      28.826  45.566  55.197  1.00  0.00    -0.059 A 
HETATM   23  C   UNL     1      28.414  44.775  54.118  1.00  0.00     0.043 A 
HETATM   24  C   UNL     1      28.142  46.866  55.504  1.00  0.00     0.048 C 
ENDBRANCH  16  17
ENDBRANCH  15  16
ENDBRANCH  12  15
ENDBRANCH   9  11
ENDBRANCH   7   9
ENDBRANCH   1   7
BRANCH   4  25
HETATM   25  N   UNL     1      19.956  45.746  46.700  1.00  0.00    -0.378 N 
HETATM   26  C   UNL     1      19.639  46.937  45.894  1.00  0.00     0.150 C 
HETATM   27  C   UNL     1      18.949  48.042  46.722  1.00  0.00     0.255 C 
HETATM   28  N   UNL     1      17.765  47.485  47.509  1.00  0.00    -0.064 N 
HETATM   29  H   UNL     1      17.075  47.144  46.825  1.00  0.00     0.280 HD
HETATM   30  C   UNL     1      18.179  46.277  48.352  1.00  0.00     0.255 C 
HETATM   31  C   UNL     1      18.814  45.193  47.456  1.00  0.00     0.150 C 
BRANCH  28  32
HETATM   32  C   UNL     1      17.066  48.534  48.341  1.00  0.00     0.275 C 
BRANCH  32  33
HETATM   33  C   UNL     1      17.889  49.776  48.564  1.00  0.00    -0.011 A 
HETATM   34  C   UNL     1      18.692  49.941  49.706  1.00  0.00     0.042 A 
HETATM   35 CL   UNL     1      18.757  48.727  50.935  1.00  0.00    -0.084 Cl
HETATM   36  C   UNL     1      19.438  51.106  49.895  1.00  0.00     0.024 A 
HETATM   37  C   UNL     1      19.391  52.123  48.944  1.00  0.00     0.002 A 
HETATM   38  C   UNL     1      18.602  51.976  47.806  1.00  0.00     0.001 A 
HETATM   39  C   UNL     1      17.857  50.811  47.614  1.00  0.00     0.010 A 
ENDBRANCH  32  33
ENDBRANCH  28  32
ENDBRANCH   4  25
TORSDOF 9
ENDMDL
MODEL 7
REMARK VINA RESULT:      -9.0      4.336     11.564
REMARK  9 active torsions:
REMARK  status: ('A' for Active; 'I' for Inactive)
REMARK    1  A    between atoms: C_4  and  O_5 
REMARK    2  A    between atoms: O_5  and  C_6 
REMARK    3  A    between atoms: C_6  and  C_7 
REMARK       I    between atoms: C_7  and  N_8 
REMARK    4  A    between atoms: N_8  and  C_9 
REMARK    5  A    between atoms: C_9  and  N_10 
REMARK    6  A    between atoms: N_10  and  C_11 
REMARK    7  A    between atoms: C_14  and  N_15 
REMARK    8  A    between atoms: N_18  and  C_20 
REMARK    9  A    between atoms: C_20  and  C_21 
ROOT
HETATM    1  C   UNL     1      24.627  44.032  48.803  1.00  0.00     0.034 A 
HETATM    2  C   UNL     1      23.917  44.991  49.518  1.00  0.00     0.032 A 
HETATM    3  C   UNL     1      22.610  45.341  49.148  1.00  0.00     0.031 A 
HETATM    4  C   UNL     1      21.960  44.722  48.078  1.00  0.00     0.030 A 
HETATM    5  C   UNL     1      22.709  43.793  47.338  1.00  0.00     0.031 A 
HETATM    6  C   UNL     1      24.028  43.467  47.679  1.00  0.00     0.032 A 
ENDROOT
BRANCH   1   7
HETATM    7  N   UNL     1      25.949  43.650  49.101  1.00  0.00    -0.333 N 
HETATM    8  H   UNL     1      26.629  44.413  49.116  1.00  0.00     0.168 HD
BRANCH   7   9
HETATM    9  C   UNL     1      26.517  42.405  49.251  1.00  0.00     0.178 C 
HETATM   10  S   UNL     1      26.516  41.126  48.173  1.00  0.00    -0.040 SA
BRANCH   9  11
HETATM   11  N   UNL     1      27.202  42.218  50.437  1.00  0.00    -0.302 N 
HETATM   12  C   UNL     1      26.851  42.610  51.723  1.00  0.00     0.248 C 
HETATM   13  O   UNL     1      25.896  43.344  51.979  1.00  0.00    -0.271 OA
HETATM   14  H   UNL     1      28.075  41.709  50.344  1.00  0.00     0.171 HD
BRANCH  12  15
HETATM   15  C   UNL     1      27.759  42.020  52.796  1.00  0.00     0.278 C 
BRANCH  15  16
HETATM   16  O   UNL     1      29.020  42.673  52.838  1.00  0.00    -0.342 OA
BRANCH  16  17
HETATM   17  C   UNL     1      29.256  43.519  53.889  1.00  0.00     0.070 A 
HETATM   18  C   UNL     1      28.584  44.716  54.149  1.00  0.00     0.043 A 
HETATM   19  C   UNL     1      28.910  45.488  55.274  1.00  0.00    -0.059 A 
HETATM   20  C   UNL     1      28.199  46.783  55.539  1.00  0.00     0.048 C 
HETATM   21  C   UNL     1      29.944  45.066  56.118  1.00  0.00     0.013 A 
HETATM   22  C   UNL     1      30.628  43.872  55.868  1.00  0.00    -0.059 A 
HETATM   23  C   UNL     1      30.283  43.111  54.744  1.00  0.00     0.043 A 
HETATM   24  C   UNL     1      31.744  43.442  56.776  1.00  0.00     0.048 C 
ENDBRANCH  16  17
ENDBRANCH  15  16
ENDBRANCH  12  15
ENDBRANCH   9  11
ENDBRANCH   7   9
ENDBRANCH   1   7
BRANCH   4  25
HETATM   25  N   UNL     1      20.641  44.991  47.706  1.00  0.00    -0.378 N 
HETATM   26  C   UNL     1      20.340  45.519  46.364  1.00  0.00     0.150 C 
HETATM   27  C   UNL     1      20.318  47.062  46.329  1.00  0.00     0.255 C 
HETATM   28  N   UNL     1      19.433  47.627  47.437  1.00  0.00    -0.064 N 
HETATM   29  H   UNL     1      18.472  47.306  47.256  1.00  0.00     0.280 HD
HETATM   30  C   UNL     1      19.830  47.066  48.804  1.00  0.00     0.255 C 
HETATM   31  C   UNL     1      19.782  45.524  48.783  1.00  0.00     0.150 C 
BRANCH  28  32
HETATM   32  C   UNL     1      19.392  49.137  47.442  1.00  0.00     0.275 C 
BRANCH  32  33
HETATM   33  C   UNL     1      20.573  49.773  48.126  1.00  0.00    -0.011 A 
HETATM   34  C   UNL     1      20.488  50.293  49.429  1.00  0.00     0.042 A 
HETATM   35 CL   UNL     1      19.002  50.251  50.311  1.00  0.00    -0.084 Cl
HETATM   36  C   UNL     1      21.595  50.887  50.038  1.00  0.00     0.024 A 
HETATM   37  C   UNL     1      22.805  50.969  49.351  1.00  0.00     0.002 A 
HETATM   38  C   UNL     1      22.908  50.458  48.060  1.00  0.00     0.001 A 
HETATM   39  C   UNL     1      21.803  49.861  47.450  1.00  0.00     0.010 A 
ENDBRANCH  32  33
ENDBRANCH  28  32
ENDBRANCH   4  25
TORSDOF 9
ENDMDL
MODEL 8
REMARK VINA RESULT:      -8.8      4.634     11.413
REMARK  9 active torsions:
REMARK  status: ('A' for Active; 'I' for Inactive)
REMARK    1  A    between atoms: C_4  and  O_5 
REMARK    2  A    between atoms: O_5  and  C_6 
REMARK    3  A    between atoms: C_6  and  C_7 
REMARK       I    between atoms: C_7  and  N_8 
REMARK    4  A    between atoms: N_8  and  C_9 
REMARK    5  A    between atoms: C_9  and  N_10 
REMARK    6  A    between atoms: N_10  and  C_11 
REMARK    7  A    between atoms: C_14  and  N_15 
REMARK    8  A    between atoms: N_18  and  C_20 
REMARK    9  A    between atoms: C_20  and  C_21 
ROOT
HETATM    1  C   UNL     1      25.824  45.903  53.061  1.00  0.00     0.034 A 
HETATM    2  C   UNL     1      26.122  47.114  52.445  1.00  0.00     0.032 A 
HETATM    3  C   UNL     1      25.636  47.406  51.162  1.00  0.00     0.031 A 
HETATM    4  C   UNL     1      24.811  46.515  50.470  1.00  0.00     0.030 A 
HETATM    5  C   UNL     1      24.562  45.279  51.086  1.00  0.00     0.031 A 
HETATM    6  C   UNL     1      25.077  44.966  52.351  1.00  0.00     0.032 A 
ENDROOT
BRANCH   1   7
HETATM    7  N   UNL     1      26.298  45.533  54.334  1.00  0.00    -0.333 N 
HETATM    8  H   UNL     1      25.582  45.454  55.058  1.00  0.00     0.168 HD
BRANCH   7   9
HETATM    9  C   UNL     1      27.580  45.379  54.811  1.00  0.00     0.178 C 
HETATM   10  S   UNL     1      28.398  46.331  55.917  1.00  0.00    -0.040 SA
BRANCH   9  11
HETATM   11  N   UNL     1      28.251  44.270  54.329  1.00  0.00    -0.302 N 
HETATM   12  C   UNL     1      27.802  42.961  54.202  1.00  0.00     0.248 C 
HETATM   13  O   UNL     1      26.733  42.557  54.659  1.00  0.00    -0.271 OA
HETATM   14  H   UNL     1      29.198  44.455  54.014  1.00  0.00     0.171 HD
BRANCH  12  15
HETATM   15  C   UNL     1      28.762  42.075  53.417  1.00  0.00     0.278 C 
BRANCH  15  16
HETATM   16  O   UNL     1      28.738  42.371  52.028  1.00  0.00    -0.342 OA
BRANCH  16  17
HETATM   17  C   UNL     1      27.999  41.548  51.221  1.00  0.00     0.070 A 
HETATM   18  C   UNL     1      28.372  40.277  50.778  1.00  0.00     0.043 A 
HETATM   19  C   UNL     1      27.513  39.524  49.964  1.00  0.00    -0.059 A 
HETATM   20  C   UNL     1      27.926  38.167  49.475  1.00  0.00     0.048 C 
HETATM   21  C   UNL     1      26.287  40.073  49.568  1.00  0.00     0.013 A 
HETATM   22  C   UNL     1      25.902  41.346  50.001  1.00  0.00    -0.059 A 
HETATM   23  C   UNL     1      26.770  42.079  50.818  1.00  0.00     0.043 A 
HETATM   24  C   UNL     1      24.591  41.925  49.553  1.00  0.00     0.048 C 
ENDBRANCH  16  17
ENDBRANCH  15  16
ENDBRANCH  12  15
ENDBRANCH   9  11
ENDBRANCH   7   9
ENDBRANCH   1   7
BRANCH   4  25
HETATM   25  N   UNL     1      24.254  46.782  49.217  1.00  0.00    -0.378 N 
HETATM   26  C   UNL     1      23.884  48.159  48.847  1.00  0.00     0.150 C 
HETATM   27  C   UNL     1      22.419  48.492  49.205  1.00  0.00     0.255 C 
HETATM   28  N   UNL     1      21.465  47.423  48.677  1.00  0.00    -0.064 N 
HETATM   29  H   UNL     1      21.535  47.430  47.650  1.00  0.00     0.280 HD
HETATM   30  C   UNL     1      21.888  46.027  49.135  1.00  0.00     0.255 C 
HETATM   31  C   UNL     1      23.342  45.740  48.702  1.00  0.00     0.150 C 
BRANCH  28  32
HETATM   32  C   UNL     1      20.020  47.708  49.014  1.00  0.00     0.275 C 
BRANCH  32  33
HETATM   33  C   UNL     1      19.673  49.173  48.999  1.00  0.00    -0.011 A 
HETATM   34  C   UNL     1      19.090  49.812  50.108  1.00  0.00     0.042 A 
HETATM   35 CL   UNL     1      18.717  48.933  51.549  1.00  0.00    -0.084 Cl
HETATM   36  C   UNL     1      18.768  51.170  50.065  1.00  0.00     0.024 A 
HETATM   37  C   UNL     1      19.024  51.909  48.912  1.00  0.00     0.002 A 
HETATM   38  C   UNL     1      19.602  51.294  47.805  1.00  0.00     0.001 A 
HETATM   39  C   UNL     1      19.927  49.936  47.846  1.00  0.00     0.010 A 
ENDBRANCH  32  33
ENDBRANCH  28  32
ENDBRANCH   4  25
TORSDOF 9
ENDMDL
MODEL 9
REMARK VINA RESULT:      -8.7      3.978      4.962
REMARK  9 active torsions:
REMARK  status: ('A' for Active; 'I' for Inactive)
REMARK    1  A    between atoms: C_4  and  O_5 
REMARK    2  A    between atoms: O_5  and  C_6 
REMARK    3  A    between atoms: C_6  and  C_7 
REMARK       I    between atoms: C_7  and  N_8 
REMARK    4  A    between atoms: N_8  and  C_9 
REMARK    5  A    between atoms: C_9  and  N_10 
REMARK    6  A    between atoms: N_10  and  C_11 
REMARK    7  A    between atoms: C_14  and  N_15 
REMARK    8  A    between atoms: N_18  and  C_20 
REMARK    9  A    between atoms: C_20  and  C_21 
ROOT
HETATM    1  C   UNL     1      21.739  47.107  48.730  1.00  0.00     0.034 A 
HETATM    2  C   UNL     1      22.495  48.193  49.159  1.00  0.00     0.032 A 
HETATM    3  C   UNL     1      23.825  48.024  49.572  1.00  0.00     0.031 A 
HETATM    4  C   UNL     1      24.452  46.776  49.534  1.00  0.00     0.030 A 
HETATM    5  C   UNL     1      23.660  45.684  49.145  1.00  0.00     0.031 A 
HETATM    6  C   UNL     1      22.320  45.840  48.770  1.00  0.00     0.032 A 
ENDROOT
BRANCH   1   7
HETATM    7  N   UNL     1      20.394  47.197  48.328  1.00  0.00    -0.333 N 
HETATM    8  H   UNL     1      20.092  46.487  47.658  1.00  0.00     0.168 HD
BRANCH   7   9
HETATM    9  C   UNL     1      19.438  48.155  48.580  1.00  0.00     0.178 C 
HETATM   10  S   UNL     1      18.674  48.505  50.026  1.00  0.00    -0.040 SA
BRANCH   9  11
HETATM   11  N   UNL     1      19.104  48.943  47.494  1.00  0.00    -0.302 N 
HETATM   12  C   UNL     1      18.637  48.559  46.243  1.00  0.00     0.248 C 
HETATM   13  O   UNL     1      18.589  47.391  45.859  1.00  0.00    -0.271 OA
HETATM   14  H   UNL     1      19.205  49.941  47.651  1.00  0.00     0.171 HD
BRANCH  12  15
HETATM   15  C   UNL     1      18.167  49.735  45.395  1.00  0.00     0.278 C 
BRANCH  15  16
HETATM   16  O   UNL     1      18.477  49.552  44.020  1.00  0.00    -0.342 OA
BRANCH  16  17
HETATM   17  C   UNL     1      18.358  50.640  43.197  1.00  0.00     0.070 A 
HETATM   18  C   UNL     1      17.525  51.742  43.404  1.00  0.00     0.043 A 
HETATM   19  C   UNL     1      17.508  52.806  42.490  1.00  0.00    -0.059 A 
HETATM   20  C   UNL     1      16.598  53.979  42.707  1.00  0.00     0.048 C 
HETATM   21  C   UNL     1      18.309  52.738  41.344  1.00  0.00     0.013 A 
HETATM   22  C   UNL     1      19.145  51.639  41.121  1.00  0.00    -0.059 A 
HETATM   23  C   UNL     1      19.153  50.590  42.049  1.00  0.00     0.043 A 
HETATM   24  C   UNL     1      19.985  51.575  39.879  1.00  0.00     0.048 C 
ENDBRANCH  16  17
ENDBRANCH  15  16
ENDBRANCH  12  15
ENDBRANCH   9  11
ENDBRANCH   7   9
ENDBRANCH   1   7
BRANCH   4  25
HETATM   25  N   UNL     1      25.790  46.565  49.876  1.00  0.00    -0.378 N 
HETATM   26  C   UNL     1      26.355  45.205  49.861  1.00  0.00     0.150 C 
HETATM   27  C   UNL     1      26.237  44.502  51.230  1.00  0.00     0.255 C 
HETATM   28  N   UNL     1      26.767  45.388  52.354  1.00  0.00    -0.064 N 
HETATM   29  H   UNL     1      27.770  45.540  52.178  1.00  0.00     0.280 HD
HETATM   30  C   UNL     1      26.106  46.767  52.332  1.00  0.00     0.255 C 
HETATM   31  C   UNL     1      26.306  47.434  50.955  1.00  0.00     0.150 C 
BRANCH  28  32
HETATM   32  C   UNL     1      26.660  44.738  53.714  1.00  0.00     0.275 C 
BRANCH  32  33
HETATM   33  C   UNL     1      27.992  44.453  54.355  1.00  0.00    -0.011 A 
HETATM   34  C   UNL     1      28.614  45.370  55.219  1.00  0.00     0.042 A 
HETATM   35 CL   UNL     1      27.885  46.897  55.574  1.00  0.00    -0.084 Cl
HETATM   36  C   UNL     1      29.855  45.086  55.793  1.00  0.00     0.024 A 
HETATM   37  C   UNL     1      30.492  43.880  55.511  1.00  0.00     0.002 A 
HETATM   38  C   UNL     1      29.890  42.958  54.657  1.00  0.00     0.001 A 
HETATM   39  C   UNL     1      28.648  43.239  54.084  1.00  0.00     0.010 A 
ENDBRANCH  32  33
ENDBRANCH  28  32
ENDBRANCH   4  25
TORSDOF 9
ENDMDL
MODEL 10
REMARK VINA RESULT:      -8.7      4.383     13.127
REMARK  9 active torsions:
REMARK  status: ('A' for Active; 'I' for Inactive)
REMARK    1  A    between atoms: C_4  and  O_5 
REMARK    2  A    between atoms: O_5  and  C_6 
REMARK    3  A    between atoms: C_6  and  C_7 
REMARK       I    between atoms: C_7  and  N_8 
REMARK    4  A    between atoms: N_8  and  C_9 
REMARK    5  A    between atoms: C_9  and  N_10 
REMARK    6  A    between atoms: N_10  and  C_11 
REMARK    7  A    between atoms: C_14  and  N_15 
REMARK    8  A    between atoms: N_18  and  C_20 
REMARK    9  A    between atoms: C_20  and  C_21 
ROOT
HETATM    1  C   UNL     1      20.516  47.511  48.659  1.00  0.00     0.034 A 
HETATM    2  C   UNL     1      19.400  47.580  47.830  1.00  0.00     0.032 A 
HETATM    3  C   UNL     1      18.854  48.819  47.463  1.00  0.00     0.031 A 
HETATM    4  C   UNL     1      19.423  50.024  47.881  1.00  0.00     0.030 A 
HETATM    5  C   UNL     1      20.517  49.935  48.755  1.00  0.00     0.031 A 
HETATM    6  C   UNL     1      21.044  48.701  49.157  1.00  0.00     0.032 A 
ENDROOT
BRANCH   1   7
HETATM    7  N   UNL     1      21.101  46.306  49.089  1.00  0.00    -0.333 N 
HETATM    8  H   UNL     1      20.824  45.997  50.022  1.00  0.00     0.168 HD
BRANCH   7   9
HETATM    9  C   UNL     1      22.085  45.528  48.524  1.00  0.00     0.178 C 
HETATM   10  S   UNL     1      22.350  45.201  46.904  1.00  0.00    -0.040 SA
BRANCH   9  11
HETATM   11  N   UNL     1      22.984  44.983  49.422  1.00  0.00    -0.302 N 
HETATM   12  C   UNL     1      23.973  45.616  50.165  1.00  0.00     0.248 C 
HETATM   13  O   UNL     1      24.298  46.792  50.010  1.00  0.00    -0.271 OA
HETATM   14  H   UNL     1      22.887  43.982  49.560  1.00  0.00     0.171 HD
BRANCH  12  15
HETATM   15  C   UNL     1      24.606  44.706  51.212  1.00  0.00     0.278 C 
BRANCH  15  16
HETATM   16  O   UNL     1      26.023  44.807  51.213  1.00  0.00    -0.342 OA
BRANCH  16  17
HETATM   17  C   UNL     1      26.629  45.173  52.385  1.00  0.00     0.070 A 
HETATM   18  C   UNL     1      26.350  46.320  53.133  1.00  0.00     0.043 A 
HETATM   19  C   UNL     1      27.032  46.573  54.332  1.00  0.00    -0.059 A 
HETATM   20  C   UNL     1      26.744  47.816  55.122  1.00  0.00     0.048 C 
HETATM   21  C   UNL     1      28.024  45.681  54.758  1.00  0.00     0.013 A 
HETATM   22  C   UNL     1      28.316  44.531  54.018  1.00  0.00    -0.059 A 
HETATM   23  C   UNL     1      27.619  44.292  52.827  1.00  0.00     0.043 A 
HETATM   24  C   UNL     1      29.393  43.594  54.482  1.00  0.00     0.048 C 
ENDBRANCH  16  17
ENDBRANCH  15  16
ENDBRANCH  12  15
ENDBRANCH   9  11
ENDBRANCH   7   9
ENDBRANCH   1   7
BRANCH   4  25
HETATM   25  N   UNL     1      18.954  51.282  47.495  1.00  0.00    -0.378 N 
HETATM   26  C   UNL     1      19.062  52.429  48.413  1.00  0.00     0.150 C 
HETATM   27  C   UNL     1      17.808  52.597  49.297  1.00  0.00     0.255 C 
HETATM   28  N   UNL     1      16.533  52.585  48.457  1.00  0.00    -0.064 N 
HETATM   29  H   UNL     1      16.573  53.400  47.829  1.00  0.00     0.280 HD
HETATM   30  C   UNL     1      16.472  51.347  47.560  1.00  0.00     0.255 C 
HETATM   31  C   UNL     1      17.729  51.269  46.669  1.00  0.00     0.150 C 
BRANCH  28  32
HETATM   32  C   UNL     1      15.281  52.738  49.287  1.00  0.00     0.275 C 
BRANCH  32  33
HETATM   33  C   UNL     1      14.899  54.171  49.548  1.00  0.00    -0.011 A 
HETATM   34  C   UNL     1      14.240  54.953  48.584  1.00  0.00     0.042 A 
HETATM   35 CL   UNL     1      13.854  54.311  47.026  1.00  0.00    -0.084 Cl
HETATM   36  C   UNL     1      13.906  56.283  48.847  1.00  0.00     0.024 A 
HETATM   37  C   UNL     1      14.225  56.850  50.079  1.00  0.00     0.002 A 
HETATM   38  C   UNL     1      14.876  56.089  51.047  1.00  0.00     0.001 A 
HETATM   39  C   UNL     1      15.210  54.758  50.787  1.00  0.00     0.010 A 
ENDBRANCH  32  33
ENDBRANCH  28  32
ENDBRANCH   4  25
TORSDOF 9
ENDMDL
