MODEL 1
REMARK VINA RESULT:      -9.7      0.000      0.000
REMARK  6 active torsions:
REMARK  status: ('A' for Active; 'I' for Inactive)
REMARK    1  A    between atoms: C_2  and  N_3 
REMARK    2  A    between atoms: C_2  and  C_12 
REMARK       I    between atoms: N_3  and  C_4 
REMARK    3  A    between atoms: C_4  and  C_5 
REMARK    4  A    between atoms: C_12  and  C_13 
REMARK       I    between atoms: C_13  and  N_14 
REMARK    5  A    between atoms: N_14  and  C_15 
REMARK    6  A    between atoms: C_17  and  C_18 
ROOT
HETATM    1  C   UNL     1      26.071  46.662  52.004  1.00  0.00     0.224 C 
HETATM    2  N   UNL     1      26.209  46.734  50.630  1.00  0.00    -0.327 N 
HETATM    3  O   UNL     1      25.572  47.513  52.734  1.00  0.00    -0.273 OA
HETATM    4  H   UNL     1      26.558  45.907  50.161  1.00  0.00     0.169 HD
ENDROOT
BRANCH   1   5
HETATM    5  C   UNL     1      26.562  45.356  52.591  1.00  0.00     0.128 C 
BRANCH   5   6
HETATM    6  C   UNL     1      26.309  45.318  54.102  1.00  0.00     0.089 C 
HETATM    7  C   UNL     1      25.110  44.440  54.468  1.00  0.00     0.032 C 
BRANCH   6   8
HETATM    8  N   UNL     1      27.509  44.918  54.837  1.00  0.00    -0.352 N 
HETATM    9  C   UNL     1      28.481  45.806  55.252  1.00  0.00     0.252 C 
HETATM   10  O   UNL     1      28.460  47.002  54.987  1.00  0.00    -0.268 OA
HETATM   11  H   UNL     1      27.480  44.005  55.273  1.00  0.00     0.163 HD
BRANCH   9  12
HETATM   12  C   UNL     1      29.557  45.243  56.118  1.00  0.00     0.032 A 
HETATM   13  C   UNL     1      30.380  44.191  55.694  1.00  0.00     0.017 A 
HETATM   14  C   UNL     1      31.358  43.679  56.552  1.00  0.00     0.001 A 
HETATM   15  C   UNL     1      31.524  44.222  57.826  1.00  0.00     0.000 A 
HETATM   16  C   UNL     1      30.721  45.283  58.244  1.00  0.00     0.001 A 
HETATM   17  C   UNL     1      29.742  45.795  57.390  1.00  0.00     0.017 A 
ENDBRANCH   9  12
ENDBRANCH   6   8
ENDBRANCH   5   6
ENDBRANCH   1   5
BRANCH   2  18
HETATM   18  C   UNL     1      25.904  47.834  49.799  1.00  0.00     0.035 A 
HETATM   19  C   UNL     1      24.602  48.230  49.475  1.00  0.00     0.042 A 
HETATM   20  C   UNL     1      24.362  49.352  48.664  1.00  0.00    -0.021 A 
HETATM   21  C   UNL     1      25.455  50.071  48.166  1.00  0.00     0.012 A 
HETATM   22  C   UNL     1      26.759  49.682  48.479  1.00  0.00     0.003 A 
HETATM   23  C   UNL     1      26.981  48.573  49.296  1.00  0.00     0.029 A 
BRANCH  20  24
HETATM   24  C   UNL     1      22.994  49.762  48.376  1.00  0.00     0.010 A 
HETATM   25  C   UNL     1      21.908  49.034  47.831  1.00  0.00     0.152 A 
HETATM   26  N   UNL     1      20.796  49.766  47.719  1.00  0.00    -0.187 NA
HETATM   27  N   UNL     1      21.168  50.970  48.178  1.00  0.00    -0.289 N 
HETATM   28  H   UNL     1      20.478  51.715  48.184  1.00  0.00     0.188 HD
HETATM   29  C   UNL     1      22.470  51.020  48.585  1.00  0.00     0.123 A 
ENDBRANCH  20  24
ENDBRANCH   2  18
TORSDOF 6
ENDMDL
MODEL 2
REMARK VINA RESULT:      -9.4      2.321      9.825
REMARK  6 active torsions:
REMARK  status: ('A' for Active; 'I' for Inactive)
REMARK    1  A    between atoms: C_2  and  N_3 
REMARK    2  A    between atoms: C_2  and  C_12 
REMARK       I    between atoms: N_3  and  C_4 
REMARK    3  A    between atoms: C_4  and  C_5 
REMARK    4  A    between atoms: C_12  and  C_13 
REMARK       I    between atoms: C_13  and  N_14 
REMARK    5  A    between atoms: N_14  and  C_15 
REMARK    6  A    between atoms: C_17  and  C_18 
ROOT
HETATM    1  C   UNL     1      25.767  44.552  53.440  1.00  0.00     0.224 C 
HETATM    2  N   UNL     1      27.049  44.845  53.015  1.00  0.00    -0.327 N 
HETATM    3  O   UNL     1      25.457  43.835  54.387  1.00  0.00    -0.273 OA
HETATM    4  H   UNL     1      27.141  45.529  52.274  1.00  0.00     0.169 HD
ENDROOT
BRANCH   1   5
HETATM    5  C   UNL     1      24.691  45.260  52.645  1.00  0.00     0.128 C 
BRANCH   5   6
HETATM    6  C   UNL     1      25.008  45.205  51.146  1.00  0.00     0.089 C 
HETATM    7  C   UNL     1      24.692  43.837  50.536  1.00  0.00     0.032 C 
BRANCH   6   8
HETATM    8  N   UNL     1      24.341  46.283  50.417  1.00  0.00    -0.352 N 
HETATM    9  C   UNL     1      24.909  47.521  50.198  1.00  0.00     0.252 C 
HETATM   10  O   UNL     1      25.998  47.854  50.650  1.00  0.00    -0.268 OA
HETATM   11  H   UNL     1      23.556  46.010  49.839  1.00  0.00     0.163 HD
BRANCH   9  12
HETATM   12  C   UNL     1      24.148  48.443  49.307  1.00  0.00     0.032 A 
HETATM   13  C   UNL     1      24.746  49.557  48.702  1.00  0.00     0.017 A 
HETATM   14  C   UNL     1      23.985  50.408  47.895  1.00  0.00     0.001 A 
HETATM   15  C   UNL     1      22.632  50.143  47.681  1.00  0.00     0.000 A 
HETATM   16  C   UNL     1      22.038  49.025  48.264  1.00  0.00     0.001 A 
HETATM   17  C   UNL     1      22.795  48.174  49.072  1.00  0.00     0.017 A 
ENDBRANCH   9  12
ENDBRANCH   6   8
ENDBRANCH   5   6
ENDBRANCH   1   5
BRANCH   2  18
HETATM   18  C   UNL     1      28.256  44.303  53.507  1.00  0.00     0.035 A 
HETATM   19  C   UNL     1      28.829  44.659  54.733  1.00  0.00     0.042 A 
HETATM   20  C   UNL     1      30.020  44.063  55.182  1.00  0.00    -0.021 A 
HETATM   21  C   UNL     1      30.641  43.105  54.373  1.00  0.00     0.012 A 
HETATM   22  C   UNL     1      30.081  42.744  53.146  1.00  0.00     0.003 A 
HETATM   23  C   UNL     1      28.892  43.337  52.720  1.00  0.00     0.029 A 
BRANCH  20  24
HETATM   24  C   UNL     1      30.571  44.428  56.480  1.00  0.00     0.010 A 
HETATM   25  C   UNL     1      31.529  43.774  57.293  1.00  0.00     0.152 A 
HETATM   26  N   UNL     1      31.779  44.430  58.430  1.00  0.00    -0.187 NA
HETATM   27  N   UNL     1      30.974  45.499  58.358  1.00  0.00    -0.289 N 
HETATM   28  H   UNL     1      30.981  46.158  59.129  1.00  0.00     0.188 HD
HETATM   29  C   UNL     1      30.232  45.547  57.212  1.00  0.00     0.123 A 
ENDBRANCH  20  24
ENDBRANCH   2  18
TORSDOF 6
ENDMDL
MODEL 3
REMARK VINA RESULT:      -9.3      2.112      3.032
REMARK  6 active torsions:
REMARK  status: ('A' for Active; 'I' for Inactive)
REMARK    1  A    between atoms: C_2  and  N_3 
REMARK    2  A    between atoms: C_2  and  C_12 
REMARK       I    between atoms: N_3  and  C_4 
REMARK    3  A    between atoms: C_4  and  C_5 
REMARK    4  A    between atoms: C_12  and  C_13 
REMARK       I    between atoms: C_13  and  N_14 
REMARK    5  A    between atoms: N_14  and  C_15 
REMARK    6  A    between atoms: C_17  and  C_18 
ROOT
HETATM    1  C   UNL     1      24.663  46.730  50.958  1.00  0.00     0.224 C 
HETATM    2  N   UNL     1      23.813  47.054  49.918  1.00  0.00    -0.327 N 
HETATM    3  O   UNL     1      25.269  47.517  51.680  1.00  0.00    -0.273 OA
HETATM    4  H   UNL     1      23.316  46.289  49.477  1.00  0.00     0.169 HD
ENDROOT
BRANCH   1   5
HETATM    5  C   UNL     1      24.771  45.241  51.207  1.00  0.00     0.128 C 
BRANCH   5   6
HETATM    6  C   UNL     1      26.198  44.753  50.937  1.00  0.00     0.089 C 
HETATM    7  C   UNL     1      26.843  45.473  49.752  1.00  0.00     0.032 C 
BRANCH   6   8
HETATM    8  N   UNL     1      27.031  44.843  52.136  1.00  0.00    -0.352 N 
HETATM    9  C   UNL     1      27.650  43.755  52.718  1.00  0.00     0.252 C 
HETATM   10  O   UNL     1      27.506  42.604  52.323  1.00  0.00    -0.268 OA
HETATM   11  H   UNL     1      27.367  45.766  52.376  1.00  0.00     0.163 HD
BRANCH   9  12
HETATM   12  C   UNL     1      28.582  44.055  53.844  1.00  0.00     0.032 A 
HETATM   13  C   UNL     1      28.449  45.205  54.634  1.00  0.00     0.017 A 
HETATM   14  C   UNL     1      29.363  45.456  55.661  1.00  0.00     0.001 A 
HETATM   15  C   UNL     1      30.401  44.559  55.909  1.00  0.00     0.000 A 
HETATM   16  C   UNL     1      30.525  43.403  55.138  1.00  0.00     0.001 A 
HETATM   17  C   UNL     1      29.615  43.150  54.110  1.00  0.00     0.017 A 
ENDBRANCH   9  12
ENDBRANCH   6   8
ENDBRANCH   5   6
ENDBRANCH   1   5
BRANCH   2  18
HETATM   18  C   UNL     1      23.548  48.341  49.402  1.00  0.00     0.035 A 
HETATM   19  C   UNL     1      22.313  48.988  49.515  1.00  0.00     0.042 A 
HETATM   20  C   UNL     1      22.117  50.283  49.005  1.00  0.00    -0.021 A 
HETATM   21  C   UNL     1      23.184  50.922  48.363  1.00  0.00     0.012 A 
HETATM   22  C   UNL     1      24.420  50.285  48.241  1.00  0.00     0.003 A 
HETATM   23  C   UNL     1      24.602  49.004  48.763  1.00  0.00     0.029 A 
BRANCH  20  24
HETATM   24  C   UNL     1      20.830  50.944  49.172  1.00  0.00     0.010 A 
HETATM   25  C   UNL     1      20.197  51.941  48.391  1.00  0.00     0.152 A 
HETATM   26  N   UNL     1      19.003  52.298  48.873  1.00  0.00    -0.187 NA
HETATM   27  N   UNL     1      18.871  51.541  49.972  1.00  0.00    -0.289 N 
HETATM   28  H   UNL     1      18.027  51.642  50.526  1.00  0.00     0.188 HD
HETATM   29  C   UNL     1      19.934  50.713  50.194  1.00  0.00     0.123 A 
ENDBRANCH  20  24
ENDBRANCH   2  18
TORSDOF 6
ENDMDL
MODEL 4
REMARK VINA RESULT:      -9.2      2.414     10.043
REMARK  6 active torsions:
REMARK  status: ('A' for Active; 'I' for Inactive)
REMARK    1  A    between atoms: C_2  and  N_3 
REMARK    2  A    between atoms: C_2  and  C_12 
REMARK       I    between atoms: N_3  and  C_4 
REMARK    3  A    between atoms: C_4  and  C_5 
REMARK    4  A    between atoms: C_12  and  C_13 
REMARK       I    between atoms: C_13  and  N_14 
REMARK    5  A    between atoms: N_14  and  C_15 
REMARK    6  A    between atoms: C_17  and  C_18 
ROOT
HETATM    1  C   UNL     1      26.397  45.025  51.820  1.00  0.00     0.224 C 
HETATM    2  N   UNL     1      26.749  44.505  53.051  1.00  0.00    -0.327 N 
HETATM    3  O   UNL     1      27.115  45.103  50.827  1.00  0.00    -0.273 OA
HETATM    4  H   UNL     1      26.013  44.428  53.743  1.00  0.00     0.169 HD
ENDROOT
BRANCH   1   5
HETATM    5  C   UNL     1      24.955  45.480  51.747  1.00  0.00     0.128 C 
BRANCH   5   6
HETATM    6  C   UNL     1      24.459  45.466  50.297  1.00  0.00     0.089 C 
HETATM    7  C   UNL     1      23.626  44.222  49.982  1.00  0.00     0.032 C 
BRANCH   6   8
HETATM    8  N   UNL     1      23.736  46.693  49.965  1.00  0.00    -0.352 N 
HETATM    9  C   UNL     1      24.354  47.850  49.538  1.00  0.00     0.252 C 
HETATM   10  O   UNL     1      25.570  47.977  49.460  1.00  0.00    -0.268 OA
HETATM   11  H   UNL     1      22.744  46.592  49.795  1.00  0.00     0.163 HD
BRANCH   9  12
HETATM   12  C   UNL     1      23.450  48.953  49.100  1.00  0.00     0.032 A 
HETATM   13  C   UNL     1      23.940  50.204  48.701  1.00  0.00     0.017 A 
HETATM   14  C   UNL     1      23.052  51.215  48.324  1.00  0.00     0.001 A 
HETATM   15  C   UNL     1      21.677  50.977  48.332  1.00  0.00     0.000 A 
HETATM   16  C   UNL     1      21.186  49.728  48.708  1.00  0.00     0.001 A 
HETATM   17  C   UNL     1      22.071  48.716  49.087  1.00  0.00     0.017 A 
ENDBRANCH   9  12
ENDBRANCH   6   8
ENDBRANCH   5   6
ENDBRANCH   1   5
BRANCH   2  18
HETATM   18  C   UNL     1      28.024  44.055  53.454  1.00  0.00     0.035 A 
HETATM   19  C   UNL     1      28.639  44.426  54.655  1.00  0.00     0.042 A 
HETATM   20  C   UNL     1      29.901  43.922  55.015  1.00  0.00    -0.021 A 
HETATM   21  C   UNL     1      30.549  43.042  54.141  1.00  0.00     0.012 A 
HETATM   22  C   UNL     1      29.948  42.668  52.938  1.00  0.00     0.003 A 
HETATM   23  C   UNL     1      28.689  43.168  52.601  1.00  0.00     0.029 A 
BRANCH  20  24
HETATM   24  C   UNL     1      30.497  44.298  56.289  1.00  0.00     0.010 A 
HETATM   25  C   UNL     1      31.487  43.653  57.071  1.00  0.00     0.152 A 
HETATM   26  N   UNL     1      31.777  44.317  58.194  1.00  0.00    -0.187 NA
HETATM   27  N   UNL     1      30.965  45.383  58.144  1.00  0.00    -0.289 N 
HETATM   28  H   UNL     1      30.998  46.047  58.910  1.00  0.00     0.188 HD
HETATM   29  C   UNL     1      30.182  45.420  57.026  1.00  0.00     0.123 A 
ENDBRANCH  20  24
ENDBRANCH   2  18
TORSDOF 6
ENDMDL
MODEL 5
REMARK VINA RESULT:      -8.9      2.374      9.454
REMARK  6 active torsions:
REMARK  status: ('A' for Active; 'I' for Inactive)
REMARK    1  A    between atoms: C_2  and  N_3 
REMARK    2  A    between atoms: C_2  and  C_12 
REMARK       I    between atoms: N_3  and  C_4 
REMARK    3  A    between atoms: C_4  and  C_5 
REMARK    4  A    between atoms: C_12  and  C_13 
REMARK       I    between atoms: C_13  and  N_14 
REMARK    5  A    between atoms: N_14  and  C_15 
REMARK    6  A    between atoms: C_17  and  C_18 
ROOT
HETATM    1  C   UNL     1      24.973  44.638  52.677  1.00  0.00     0.224 C 
HETATM    2  N   UNL     1      25.973  45.589  52.591  1.00  0.00    -0.327 N 
HETATM    3  O   UNL     1      24.603  44.058  53.694  1.00  0.00    -0.273 OA
HETATM    4  H   UNL     1      26.096  46.044  51.694  1.00  0.00     0.169 HD
ENDROOT
BRANCH   1   5
HETATM    5  C   UNL     1      24.278  44.373  51.359  1.00  0.00     0.128 C 
BRANCH   5   6
HETATM    6  C   UNL     1      25.019  45.068  50.211  1.00  0.00     0.089 C 
HETATM    7  C   UNL     1      25.456  44.084  49.123  1.00  0.00     0.032 C 
BRANCH   6   8
HETATM    8  N   UNL     1      24.233  46.168  49.654  1.00  0.00    -0.352 N 
HETATM    9  C   UNL     1      24.509  47.499  49.892  1.00  0.00     0.252 C 
HETATM   10  O   UNL     1      25.399  47.881  50.644  1.00  0.00    -0.268 OA
HETATM   11  H   UNL     1      23.641  45.938  48.867  1.00  0.00     0.163 HD
BRANCH   9  12
HETATM   12  C   UNL     1      23.697  48.485  49.121  1.00  0.00     0.032 A 
HETATM   13  C   UNL     1      22.361  48.241  48.775  1.00  0.00     0.017 A 
HETATM   14  C   UNL     1      21.649  49.184  48.029  1.00  0.00     0.001 A 
HETATM   15  C   UNL     1      22.262  50.375  47.638  1.00  0.00     0.000 A 
HETATM   16  C   UNL     1      23.585  50.631  47.999  1.00  0.00     0.001 A 
HETATM   17  C   UNL     1      24.300  49.690  48.742  1.00  0.00     0.017 A 
ENDBRANCH   9  12
ENDBRANCH   6   8
ENDBRANCH   5   6
ENDBRANCH   1   5
BRANCH   2  18
HETATM   18  C   UNL     1      26.840  46.012  53.622  1.00  0.00     0.035 A 
HETATM   19  C   UNL     1      27.842  45.210  54.177  1.00  0.00     0.042 A 
HETATM   20  C   UNL     1      28.694  45.697  55.183  1.00  0.00    -0.021 A 
HETATM   21  C   UNL     1      28.517  47.009  55.638  1.00  0.00     0.012 A 
HETATM   22  C   UNL     1      27.518  47.818  55.094  1.00  0.00     0.003 A 
HETATM   23  C   UNL     1      26.688  47.323  54.087  1.00  0.00     0.029 A 
BRANCH  20  24
HETATM   24  C   UNL     1      29.752  44.849  55.714  1.00  0.00     0.010 A 
HETATM   25  C   UNL     1      30.269  43.616  55.246  1.00  0.00     0.152 A 
HETATM   26  N   UNL     1      31.252  43.140  56.014  1.00  0.00    -0.187 NA
HETATM   27  N   UNL     1      31.361  44.058  56.986  1.00  0.00    -0.289 N 
HETATM   28  H   UNL     1      32.055  43.909  57.711  1.00  0.00     0.188 HD
HETATM   29  C   UNL     1      30.490  45.100  56.851  1.00  0.00     0.123 A 
ENDBRANCH  20  24
ENDBRANCH   2  18
TORSDOF 6
ENDMDL
MODEL 6
REMARK VINA RESULT:      -8.6      4.083      8.019
REMARK  6 active torsions:
REMARK  status: ('A' for Active; 'I' for Inactive)
REMARK    1  A    between atoms: C_2  and  N_3 
REMARK    2  A    between atoms: C_2  and  C_12 
REMARK       I    between atoms: N_3  and  C_4 
REMARK    3  A    between atoms: C_4  and  C_5 
REMARK    4  A    between atoms: C_12  and  C_13 
REMARK       I    between atoms: C_13  and  N_14 
REMARK    5  A    between atoms: N_14  and  C_15 
REMARK    6  A    between atoms: C_17  and  C_18 
ROOT
HETATM    1  C   UNL     1      28.669  41.212  52.910  1.00  0.00     0.224 C 
HETATM    2  N   UNL     1      29.502  42.315  52.939  1.00  0.00    -0.327 N 
HETATM    3  O   UNL     1      27.707  41.003  53.644  1.00  0.00    -0.273 OA
HETATM    4  H   UNL     1      30.196  42.383  52.204  1.00  0.00     0.169 HD
ENDROOT
BRANCH   1   5
HETATM    5  C   UNL     1      29.006  40.230  51.809  1.00  0.00     0.128 C 
BRANCH   5   6
HETATM    6  C   UNL     1      28.161  40.512  50.561  1.00  0.00     0.089 C 
HETATM    7  C   UNL     1      27.238  39.344  50.210  1.00  0.00     0.032 C 
BRANCH   6   8
HETATM    8  N   UNL     1      27.416  41.764  50.689  1.00  0.00    -0.352 N 
HETATM    9  C   UNL     1      27.058  42.552  49.614  1.00  0.00     0.252 C 
HETATM   10  O   UNL     1      27.388  42.309  48.459  1.00  0.00    -0.268 OA
HETATM   11  H   UNL     1      26.930  41.905  51.565  1.00  0.00     0.163 HD
BRANCH   9  12
HETATM   12  C   UNL     1      26.171  43.711  49.918  1.00  0.00     0.032 A 
HETATM   13  C   UNL     1      26.526  45.027  49.590  1.00  0.00     0.017 A 
HETATM   14  C   UNL     1      25.673  46.084  49.919  1.00  0.00     0.001 A 
HETATM   15  C   UNL     1      24.461  45.831  50.563  1.00  0.00     0.000 A 
HETATM   16  C   UNL     1      24.094  44.522  50.872  1.00  0.00     0.001 A 
HETATM   17  C   UNL     1      24.945  43.464  50.546  1.00  0.00     0.017 A 
ENDBRANCH   9  12
ENDBRANCH   6   8
ENDBRANCH   5   6
ENDBRANCH   1   5
BRANCH   2  18
HETATM   18  C   UNL     1      29.488  43.371  53.875  1.00  0.00     0.035 A 
HETATM   19  C   UNL     1      28.546  44.406  53.870  1.00  0.00     0.042 A 
HETATM   20  C   UNL     1      28.566  45.416  54.847  1.00  0.00    -0.021 A 
HETATM   21  C   UNL     1      29.561  45.381  55.832  1.00  0.00     0.012 A 
HETATM   22  C   UNL     1      30.509  44.356  55.844  1.00  0.00     0.003 A 
HETATM   23  C   UNL     1      30.467  43.354  54.874  1.00  0.00     0.029 A 
BRANCH  20  24
HETATM   24  C   UNL     1      27.549  46.458  54.837  1.00  0.00     0.010 A 
HETATM   25  C   UNL     1      27.262  47.477  55.778  1.00  0.00     0.152 A 
HETATM   26  N   UNL     1      26.239  48.252  55.409  1.00  0.00    -0.187 NA
HETATM   27  N   UNL     1      25.856  47.725  54.236  1.00  0.00    -0.289 N 
HETATM   28  H   UNL     1      25.071  48.150  53.753  1.00  0.00     0.188 HD
HETATM   29  C   UNL     1      26.607  46.654  53.849  1.00  0.00     0.123 A 
ENDBRANCH  20  24
ENDBRANCH   2  18
TORSDOF 6
ENDMDL
MODEL 7
REMARK VINA RESULT:      -8.6      4.675      7.332
REMARK  6 active torsions:
REMARK  status: ('A' for Active; 'I' for Inactive)
REMARK    1  A    between atoms: C_2  and  N_3 
REMARK    2  A    between atoms: C_2  and  C_12 
REMARK       I    between atoms: N_3  and  C_4 
REMARK    3  A    between atoms: C_4  and  C_5 
REMARK    4  A    between atoms: C_12  and  C_13 
REMARK       I    between atoms: C_13  and  N_14 
REMARK    5  A    between atoms: N_14  and  C_15 
REMARK    6  A    between atoms: C_17  and  C_18 
ROOT
HETATM    1  C   UNL     1      26.007  44.227  52.064  1.00  0.00     0.224 C 
HETATM    2  N   UNL     1      25.385  43.000  51.932  1.00  0.00    -0.327 N 
HETATM    3  O   UNL     1      26.670  44.806  51.209  1.00  0.00    -0.273 OA
HETATM    4  H   UNL     1      24.796  42.700  52.700  1.00  0.00     0.169 HD
ENDROOT
BRANCH   1   5
HETATM    5  C   UNL     1      25.761  44.887  53.405  1.00  0.00     0.128 C 
BRANCH   5   6
HETATM    6  C   UNL     1      26.800  45.984  53.662  1.00  0.00     0.089 C 
HETATM    7  C   UNL     1      26.151  47.335  53.974  1.00  0.00     0.032 C 
BRANCH   6   8
HETATM    8  N   UNL     1      27.747  45.592  54.705  1.00  0.00    -0.352 N 
HETATM    9  C   UNL     1      28.793  44.716  54.495  1.00  0.00     0.252 C 
HETATM   10  O   UNL     1      28.984  44.135  53.434  1.00  0.00    -0.268 OA
HETATM   11  H   UNL     1      27.783  46.189  55.521  1.00  0.00     0.163 HD
BRANCH   9  12
HETATM   12  C   UNL     1      29.746  44.549  55.630  1.00  0.00     0.032 A 
HETATM   13  C   UNL     1      30.634  43.468  55.705  1.00  0.00     0.017 A 
HETATM   14  C   UNL     1      31.491  43.341  56.802  1.00  0.00     0.001 A 
HETATM   15  C   UNL     1      31.472  44.296  57.818  1.00  0.00     0.000 A 
HETATM   16  C   UNL     1      30.605  45.385  57.738  1.00  0.00     0.001 A 
HETATM   17  C   UNL     1      29.746  45.514  56.644  1.00  0.00     0.017 A 
ENDBRANCH   9  12
ENDBRANCH   6   8
ENDBRANCH   5   6
ENDBRANCH   1   5
BRANCH   2  18
HETATM   18  C   UNL     1      25.469  42.114  50.836  1.00  0.00     0.035 A 
HETATM   19  C   UNL     1      26.364  41.042  50.765  1.00  0.00     0.042 A 
HETATM   20  C   UNL     1      26.381  40.176  49.658  1.00  0.00    -0.021 A 
HETATM   21  C   UNL     1      25.487  40.411  48.606  1.00  0.00     0.012 A 
HETATM   22  C   UNL     1      24.592  41.481  48.664  1.00  0.00     0.003 A 
HETATM   23  C   UNL     1      24.580  42.323  49.776  1.00  0.00     0.029 A 
BRANCH  20  24
HETATM   24  C   UNL     1      27.299  39.046  49.632  1.00  0.00     0.010 A 
HETATM   25  C   UNL     1      28.715  39.007  49.642  1.00  0.00     0.152 A 
HETATM   26  N   UNL     1      29.200  37.763  49.610  1.00  0.00    -0.187 NA
HETATM   27  N   UNL     1      28.098  36.999  49.566  1.00  0.00    -0.289 N 
HETATM   28  H   UNL     1      28.214  35.992  49.527  1.00  0.00     0.188 HD
HETATM   29  C   UNL     1      26.937  37.717  49.579  1.00  0.00     0.123 A 
ENDBRANCH  20  24
ENDBRANCH   2  18
TORSDOF 6
ENDMDL
MODEL 8
REMARK VINA RESULT:      -8.6      2.817     10.276
REMARK  6 active torsions:
REMARK  status: ('A' for Active; 'I' for Inactive)
REMARK    1  A    between atoms: C_2  and  N_3 
REMARK    2  A    between atoms: C_2  and  C_12 
REMARK       I    between atoms: N_3  and  C_4 
REMARK    3  A    between atoms: C_4  and  C_5 
REMARK    4  A    between atoms: C_12  and  C_13 
REMARK       I    between atoms: C_13  and  N_14 
REMARK    5  A    between atoms: N_14  and  C_15 
REMARK    6  A    between atoms: C_17  and  C_18 
ROOT
HETATM    1  C   UNL     1      25.304  47.677  50.114  1.00  0.00     0.224 C 
HETATM    2  N   UNL     1      24.939  46.845  51.156  1.00  0.00    -0.327 N 
HETATM    3  O   UNL     1      26.430  48.109  49.884  1.00  0.00    -0.273 OA
HETATM    4  H   UNL     1      23.986  46.501  51.155  1.00  0.00     0.169 HD
ENDROOT
BRANCH   1   5
HETATM    5  C   UNL     1      24.162  48.007  49.177  1.00  0.00     0.128 C 
BRANCH   5   6
HETATM    6  C   UNL     1      24.037  49.523  48.996  1.00  0.00     0.089 C 
HETATM    7  C   UNL     1      24.955  50.054  47.893  1.00  0.00     0.032 C 
BRANCH   6   8
HETATM    8  N   UNL     1      22.648  49.924  48.775  1.00  0.00    -0.352 N 
HETATM    9  C   UNL     1      21.927  50.699  49.661  1.00  0.00     0.252 C 
HETATM   10  O   UNL     1      22.364  51.069  50.745  1.00  0.00    -0.268 OA
HETATM   11  H   UNL     1      22.308  49.846  47.825  1.00  0.00     0.163 HD
BRANCH   9  12
HETATM   12  C   UNL     1      20.577  51.136  49.202  1.00  0.00     0.032 A 
HETATM   13  C   UNL     1      20.195  51.084  47.855  1.00  0.00     0.017 A 
HETATM   14  C   UNL     1      18.927  51.529  47.470  1.00  0.00     0.001 A 
HETATM   15  C   UNL     1      18.036  52.015  48.427  1.00  0.00     0.000 A 
HETATM   16  C   UNL     1      18.404  52.050  49.771  1.00  0.00     0.001 A 
HETATM   17  C   UNL     1      19.671  51.607  50.159  1.00  0.00     0.017 A 
ENDBRANCH   9  12
ENDBRANCH   6   8
ENDBRANCH   5   6
ENDBRANCH   1   5
BRANCH   2  18
HETATM   18  C   UNL     1      25.752  46.407  52.223  1.00  0.00     0.035 A 
HETATM   19  C   UNL     1      26.487  45.217  52.207  1.00  0.00     0.042 A 
HETATM   20  C   UNL     1      27.302  44.847  53.291  1.00  0.00    -0.021 A 
HETATM   21  C   UNL     1      27.361  45.690  54.408  1.00  0.00     0.012 A 
HETATM   22  C   UNL     1      26.628  46.878  54.437  1.00  0.00     0.003 A 
HETATM   23  C   UNL     1      25.834  47.236  53.348  1.00  0.00     0.029 A 
BRANCH  20  24
HETATM   24  C   UNL     1      28.084  43.620  53.228  1.00  0.00     0.010 A 
HETATM   25  C   UNL     1      27.933  42.393  53.919  1.00  0.00     0.152 A 
HETATM   26  N   UNL     1      28.861  41.492  53.585  1.00  0.00    -0.187 NA
HETATM   27  N   UNL     1      29.619  42.141  52.690  1.00  0.00    -0.289 N 
HETATM   28  H   UNL     1      30.412  41.652  52.288  1.00  0.00     0.188 HD
HETATM   29  C   UNL     1      29.196  43.415  52.439  1.00  0.00     0.123 A 
ENDBRANCH  20  24
ENDBRANCH   2  18
TORSDOF 6
ENDMDL
MODEL 9
REMARK VINA RESULT:      -8.5      2.840      4.916
REMARK  6 active torsions:
REMARK  status: ('A' for Active; 'I' for Inactive)
REMARK    1  A    between atoms: C_2  and  N_3 
REMARK    2  A    between atoms: C_2  and  C_12 
REMARK       I    between atoms: N_3  and  C_4 
REMARK    3  A    between atoms: C_4  and  C_5 
REMARK    4  A    between atoms: C_12  and  C_13 
REMARK       I    between atoms: C_13  and  N_14 
REMARK    5  A    between atoms: N_14  and  C_15 
REMARK    6  A    between atoms: C_17  and  C_18 
ROOT
HETATM    1  C   UNL     1      23.948  48.945  48.901  1.00  0.00     0.224 C 
HETATM    2  N   UNL     1      22.795  49.048  49.657  1.00  0.00    -0.327 N 
HETATM    3  O   UNL     1      24.122  49.389  47.770  1.00  0.00    -0.273 OA
HETATM    4  H   UNL     1      22.841  48.709  50.611  1.00  0.00     0.169 HD
ENDROOT
BRANCH   1   5
HETATM    5  C   UNL     1      25.081  48.246  49.622  1.00  0.00     0.128 C 
BRANCH   5   6
HETATM    6  C   UNL     1      24.555  47.043  50.411  1.00  0.00     0.089 C 
HETATM    7  C   UNL     1      23.940  45.977  49.503  1.00  0.00     0.032 C 
BRANCH   6   8
HETATM    8  N   UNL     1      25.588  46.476  51.277  1.00  0.00    -0.352 N 
HETATM    9  C   UNL     1      25.802  46.885  52.578  1.00  0.00     0.252 C 
HETATM   10  O   UNL     1      25.188  47.805  53.107  1.00  0.00    -0.268 OA
HETATM   11  H   UNL     1      25.970  45.585  50.990  1.00  0.00     0.163 HD
BRANCH   9  12
HETATM   12  C   UNL     1      26.796  46.093  53.359  1.00  0.00     0.032 A 
HETATM   13  C   UNL     1      27.159  44.789  52.998  1.00  0.00     0.017 A 
HETATM   14  C   UNL     1      28.076  44.077  53.777  1.00  0.00     0.001 A 
HETATM   15  C   UNL     1      28.639  44.668  54.908  1.00  0.00     0.000 A 
HETATM   16  C   UNL     1      28.296  45.972  55.260  1.00  0.00     0.001 A 
HETATM   17  C   UNL     1      27.379  46.686  54.485  1.00  0.00     0.017 A 
ENDBRANCH   9  12
ENDBRANCH   6   8
ENDBRANCH   5   6
ENDBRANCH   1   5
BRANCH   2  18
HETATM   18  C   UNL     1      21.555  49.586  49.253  1.00  0.00     0.035 A 
HETATM   19  C   UNL     1      20.397  48.824  49.063  1.00  0.00     0.042 A 
HETATM   20  C   UNL     1      19.183  49.422  48.686  1.00  0.00    -0.021 A 
HETATM   21  C   UNL     1      19.146  50.807  48.489  1.00  0.00     0.012 A 
HETATM   22  C   UNL     1      20.296  51.578  48.671  1.00  0.00     0.003 A 
HETATM   23  C   UNL     1      21.491  50.971  49.057  1.00  0.00     0.029 A 
BRANCH  20  24
HETATM   24  C   UNL     1      17.987  48.605  48.533  1.00  0.00     0.010 A 
HETATM   25  C   UNL     1      16.620  48.973  48.464  1.00  0.00     0.152 A 
HETATM   26  N   UNL     1      15.806  47.924  48.319  1.00  0.00    -0.187 NA
HETATM   27  N   UNL     1      16.645  46.878  48.308  1.00  0.00    -0.289 N 
HETATM   28  H   UNL     1      16.251  45.948  48.214  1.00  0.00     0.188 HD
HETATM   29  C   UNL     1      17.958  47.231  48.431  1.00  0.00     0.123 A 
ENDBRANCH  20  24
ENDBRANCH   2  18
TORSDOF 6
ENDMDL
MODEL 10
REMARK VINA RESULT:      -8.4      1.735      2.046
REMARK  6 active torsions:
REMARK  status: ('A' for Active; 'I' for Inactive)
REMARK    1  A    between atoms: C_2  and  N_3 
REMARK    2  A    between atoms: C_2  and  C_12 
REMARK       I    between atoms: N_3  and  C_4 
REMARK    3  A    between atoms: C_4  and  C_5 
REMARK    4  A    between atoms: C_12  and  C_13 
REMARK       I    between atoms: C_13  and  N_14 
REMARK    5  A    between atoms: N_14  and  C_15 
REMARK    6  A    between atoms: C_17  and  C_18 
ROOT
HETATM    1  C   UNL     1      25.902  45.923  50.063  1.00  0.00     0.224 C 
HETATM    2  N   UNL     1      26.007  47.293  50.206  1.00  0.00    -0.327 N 
HETATM    3  O   UNL     1      25.246  45.324  49.215  1.00  0.00    -0.273 OA
HETATM    4  H   UNL     1      26.664  47.633  50.899  1.00  0.00     0.169 HD
ENDROOT
BRANCH   1   5
HETATM    5  C   UNL     1      26.744  45.147  51.053  1.00  0.00     0.128 C 
BRANCH   5   6
HETATM    6  C   UNL     1      26.150  45.252  52.462  1.00  0.00     0.089 C 
HETATM    7  C   UNL     1      25.025  44.242  52.695  1.00  0.00     0.032 C 
BRANCH   6   8
HETATM    8  N   UNL     1      27.185  45.146  53.490  1.00  0.00    -0.352 N 
HETATM    9  C   UNL     1      27.917  43.999  53.720  1.00  0.00     0.252 C 
HETATM   10  O   UNL     1      27.721  42.943  53.129  1.00  0.00    -0.268 OA
HETATM   11  H   UNL     1      27.544  46.020  53.852  1.00  0.00     0.163 HD
BRANCH   9  12
HETATM   12  C   UNL     1      29.032  44.118  54.703  1.00  0.00     0.032 A 
HETATM   13  C   UNL     1      29.987  43.107  54.873  1.00  0.00     0.017 A 
HETATM   14  C   UNL     1      30.999  43.253  55.826  1.00  0.00     0.001 A 
HETATM   15  C   UNL     1      31.067  44.411  56.601  1.00  0.00     0.000 A 
HETATM   16  C   UNL     1      30.131  45.428  56.422  1.00  0.00     0.001 A 
HETATM   17  C   UNL     1      29.118  45.284  55.472  1.00  0.00     0.017 A 
ENDBRANCH   9  12
ENDBRANCH   6   8
ENDBRANCH   5   6
ENDBRANCH   1   5
BRANCH   2  18
HETATM   18  C   UNL     1      25.307  48.283  49.482  1.00  0.00     0.035 A 
HETATM   19  C   UNL     1      23.927  48.488  49.574  1.00  0.00     0.042 A 
HETATM   20  C   UNL     1      23.290  49.509  48.849  1.00  0.00    -0.021 A 
HETATM   21  C   UNL     1      24.062  50.324  48.012  1.00  0.00     0.012 A 
HETATM   22  C   UNL     1      25.441  50.127  47.909  1.00  0.00     0.003 A 
HETATM   23  C   UNL     1      26.059  49.116  48.645  1.00  0.00     0.029 A 
BRANCH  20  24
HETATM   24  C   UNL     1      21.857  49.720  48.995  1.00  0.00     0.010 A 
HETATM   25  C   UNL     1      21.114  50.910  49.197  1.00  0.00     0.152 A 
HETATM   26  N   UNL     1      19.799  50.694  49.282  1.00  0.00    -0.187 NA
HETATM   27  N   UNL     1      19.692  49.363  49.149  1.00  0.00    -0.289 N 
HETATM   28  H   UNL     1      18.766  48.950  49.189  1.00  0.00     0.188 HD
HETATM   29  C   UNL     1      20.892  48.735  48.973  1.00  0.00     0.123 A 
ENDBRANCH  20  24
ENDBRANCH   2  18
TORSDOF 6
ENDMDL
