MODEL 1
REMARK VINA RESULT:      -8.3      0.000      0.000
REMARK  6 active torsions:
REMARK  status: ('A' for Active; 'I' for Inactive)
REMARK    1  A    between atoms: C_2  and  N_3 
REMARK    2  A    between atoms: C_2  and  C_18 
REMARK    3  A    between atoms: N_3  and  C_6 
REMARK    4  A    between atoms: C_6  and  C_7 
REMARK    5  A    between atoms: C_10  and  N_11 
REMARK       I    between atoms: N_11  and  C_12 
REMARK    6  A    between atoms: C_12  and  O_13 
ROOT
HETATM    1  N   UNL     1      27.233  44.955  52.431  1.00  0.00    -0.061 N 
HETATM    2  H   UNL     1      27.238  45.678  51.700  1.00  0.00     0.278 HD
HETATM    3  H   UNL     1      28.227  44.682  52.485  1.00  0.00     0.278 HD
ENDROOT
BRANCH   1   4
HETATM    4  C   UNL     1      26.886  45.634  53.734  1.00  0.00     0.241 C 
HETATM    5  C   UNL     1      25.564  45.081  54.263  1.00  0.00     0.047 C 
BRANCH   4   6
HETATM    6  C   UNL     1      28.000  45.374  54.717  1.00  0.00     0.106 A 
HETATM    7  S   UNL     1      28.240  46.372  56.083  1.00  0.00    -0.070 SA
HETATM    8  C   UNL     1      29.579  45.395  56.556  1.00  0.00     0.035 A 
HETATM    9  C   UNL     1      29.759  44.379  55.613  1.00  0.00     0.075 A 
HETATM   10  C   UNL     1      30.410  45.517  57.682  1.00  0.00     0.021 A 
HETATM   11  N   UNL     1      28.858  44.389  54.553  1.00  0.00    -0.243 NA
HETATM   12  C   UNL     1      30.805  43.455  55.801  1.00  0.00     0.033 A 
HETATM   13  C   UNL     1      31.636  43.567  56.922  1.00  0.00     0.002 A 
HETATM   14  C   UNL     1      31.439  44.585  57.848  1.00  0.00     0.002 A 
ENDBRANCH   4   6
ENDBRANCH   1   4
BRANCH   1  15
HETATM   15  C   UNL     1      26.390  43.822  51.984  1.00  0.00     0.271 C 
BRANCH  15  16
HETATM   16  C   UNL     1      27.206  42.575  51.789  1.00  0.00    -0.033 A 
HETATM   17  C   UNL     1      27.371  42.018  50.515  1.00  0.00     0.011 A 
HETATM   18  C   UNL     1      28.120  40.848  50.334  1.00  0.00     0.030 A 
HETATM   19  C   UNL     1      28.724  40.212  51.418  1.00  0.00     0.036 A 
HETATM   20  C   UNL     1      28.564  40.775  52.691  1.00  0.00     0.030 A 
HETATM   21  C   UNL     1      27.810  41.939  52.879  1.00  0.00     0.011 A 
BRANCH  19  22
HETATM   22  N   UNL     1      29.501  39.044  51.341  1.00  0.00    -0.303 N 
HETATM   23  C   UNL     1      29.453  37.952  50.515  1.00  0.00     0.364 C 
HETATM   24  O   UNL     1      30.281  37.055  50.641  1.00  0.00    -0.238 OA
HETATM   25  H   UNL     1      30.255  38.942  52.009  1.00  0.00     0.171 HD
BRANCH  23  26
HETATM   26  O   UNL     1      28.447  37.940  49.608  1.00  0.00    -0.309 OA
HETATM   27  C   UNL     1      28.889  37.905  48.249  1.00  0.00     0.215 C 
ENDBRANCH  23  26
ENDBRANCH  19  22
ENDBRANCH  15  16
ENDBRANCH   1  15
TORSDOF 6
ENDMDL
MODEL 2
REMARK VINA RESULT:      -8.1      5.304      7.344
REMARK  6 active torsions:
REMARK  status: ('A' for Active; 'I' for Inactive)
REMARK    1  A    between atoms: C_2  and  N_3 
REMARK    2  A    between atoms: C_2  and  C_18 
REMARK    3  A    between atoms: N_3  and  C_6 
REMARK    4  A    between atoms: C_6  and  C_7 
REMARK    5  A    between atoms: C_10  and  N_11 
REMARK       I    between atoms: N_11  and  C_12 
REMARK    6  A    between atoms: C_12  and  O_13 
ROOT
HETATM    1  N   UNL     1      27.113  45.014  52.270  1.00  0.00    -0.061 N 
HETATM    2  H   UNL     1      27.767  45.642  51.783  1.00  0.00     0.278 HD
HETATM    3  H   UNL     1      27.695  44.182  52.454  1.00  0.00     0.278 HD
ENDROOT
BRANCH   1   4
HETATM    4  C   UNL     1      26.797  45.643  53.607  1.00  0.00     0.241 C 
HETATM    5  C   UNL     1      25.486  45.072  54.142  1.00  0.00     0.047 C 
BRANCH   4   6
HETATM    6  C   UNL     1      27.932  45.343  54.553  1.00  0.00     0.106 A 
HETATM    7  S   UNL     1      28.295  46.369  55.871  1.00  0.00    -0.070 SA
HETATM    8  C   UNL     1      29.585  45.320  56.326  1.00  0.00     0.035 A 
HETATM    9  C   UNL     1      29.657  44.263  55.415  1.00  0.00     0.075 A 
HETATM   10  C   UNL     1      30.469  45.426  57.412  1.00  0.00     0.021 A 
HETATM   11  N   UNL     1      28.715  44.297  54.392  1.00  0.00    -0.243 NA
HETATM   12  C   UNL     1      30.648  43.278  55.596  1.00  0.00     0.033 A 
HETATM   13  C   UNL     1      31.530  43.372  56.677  1.00  0.00     0.002 A 
HETATM   14  C   UNL     1      31.440  44.433  57.572  1.00  0.00     0.002 A 
ENDBRANCH   4   6
ENDBRANCH   1   4
BRANCH   1  15
HETATM   15  C   UNL     1      25.988  44.691  51.363  1.00  0.00     0.271 C 
BRANCH  15  16
HETATM   16  C   UNL     1      25.518  45.908  50.618  1.00  0.00    -0.033 A 
HETATM   17  C   UNL     1      24.209  45.987  50.126  1.00  0.00     0.011 A 
HETATM   18  C   UNL     1      23.774  47.115  49.419  1.00  0.00     0.030 A 
HETATM   19  C   UNL     1      24.633  48.190  49.191  1.00  0.00     0.036 A 
HETATM   20  C   UNL     1      25.940  48.112  49.690  1.00  0.00     0.030 A 
HETATM   21  C   UNL     1      26.382  46.984  50.390  1.00  0.00     0.011 A 
BRANCH  19  22
HETATM   22  N   UNL     1      24.292  49.367  48.504  1.00  0.00    -0.303 N 
HETATM   23  C   UNL     1      23.494  50.432  48.830  1.00  0.00     0.364 C 
HETATM   24  O   UNL     1      23.377  51.369  48.047  1.00  0.00    -0.238 OA
HETATM   25  H   UNL     1      24.687  49.498  47.581  1.00  0.00     0.171 HD
BRANCH  23  26
HETATM   26  O   UNL     1      22.860  50.352  50.024  1.00  0.00    -0.309 OA
HETATM   27  C   UNL     1      21.487  50.748  49.982  1.00  0.00     0.215 C 
ENDBRANCH  23  26
ENDBRANCH  19  22
ENDBRANCH  15  16
ENDBRANCH   1  15
TORSDOF 6
ENDMDL
MODEL 3
REMARK VINA RESULT:      -7.8      4.853      6.849
REMARK  6 active torsions:
REMARK  status: ('A' for Active; 'I' for Inactive)
REMARK    1  A    between atoms: C_2  and  N_3 
REMARK    2  A    between atoms: C_2  and  C_18 
REMARK    3  A    between atoms: N_3  and  C_6 
REMARK    4  A    between atoms: C_6  and  C_7 
REMARK    5  A    between atoms: C_10  and  N_11 
REMARK       I    between atoms: N_11  and  C_12 
REMARK    6  A    between atoms: C_12  and  O_13 
ROOT
HETATM    1  N   UNL     1      25.441  43.419  52.359  1.00  0.00    -0.061 N 
HETATM    2  H   UNL     1      24.917  43.006  53.143  1.00  0.00     0.278 HD
HETATM    3  H   UNL     1      25.616  44.381  52.688  1.00  0.00     0.278 HD
ENDROOT
BRANCH   1   4
HETATM    4  C   UNL     1      26.777  42.719  52.292  1.00  0.00     0.241 C 
HETATM    5  C   UNL     1      27.360  42.864  50.889  1.00  0.00     0.047 C 
BRANCH   4   6
HETATM    6  C   UNL     1      27.692  43.345  53.315  1.00  0.00     0.106 A 
HETATM    7  S   UNL     1      27.332  44.851  54.037  1.00  0.00    -0.070 SA
HETATM    8  C   UNL     1      28.779  44.746  54.967  1.00  0.00     0.035 A 
HETATM    9  C   UNL     1      29.449  43.565  54.637  1.00  0.00     0.075 A 
HETATM   10  C   UNL     1      29.284  45.645  55.920  1.00  0.00     0.021 A 
HETATM   11  N   UNL     1      28.825  42.778  53.675  1.00  0.00    -0.243 NA
HETATM   12  C   UNL     1      30.666  43.272  55.284  1.00  0.00     0.033 A 
HETATM   13  C   UNL     1      31.176  44.160  56.238  1.00  0.00     0.002 A 
HETATM   14  C   UNL     1      30.492  45.330  56.550  1.00  0.00     0.002 A 
ENDBRANCH   4   6
ENDBRANCH   1   4
BRANCH   1  15
HETATM   15  C   UNL     1      24.585  43.414  51.150  1.00  0.00     0.271 C 
BRANCH  15  16
HETATM   16  C   UNL     1      24.370  44.806  50.626  1.00  0.00    -0.033 A 
HETATM   17  C   UNL     1      23.615  45.027  49.467  1.00  0.00     0.011 A 
HETATM   18  C   UNL     1      23.426  46.323  48.969  1.00  0.00     0.030 A 
HETATM   19  C   UNL     1      23.982  47.425  49.618  1.00  0.00     0.036 A 
HETATM   20  C   UNL     1      24.731  47.203  50.780  1.00  0.00     0.030 A 
HETATM   21  C   UNL     1      24.929  45.910  51.278  1.00  0.00     0.011 A 
BRANCH  19  22
HETATM   22  N   UNL     1      23.843  48.761  49.207  1.00  0.00    -0.303 N 
HETATM   23  C   UNL     1      24.645  49.592  48.469  1.00  0.00     0.364 C 
HETATM   24  O   UNL     1      24.276  50.736  48.222  1.00  0.00    -0.238 OA
HETATM   25  H   UNL     1      23.003  49.250  49.489  1.00  0.00     0.171 HD
BRANCH  23  26
HETATM   26  O   UNL     1      25.833  49.072  48.076  1.00  0.00    -0.309 OA
HETATM   27  C   UNL     1      26.967  49.671  48.707  1.00  0.00     0.215 C 
ENDBRANCH  23  26
ENDBRANCH  19  22
ENDBRANCH  15  16
ENDBRANCH   1  15
TORSDOF 6
ENDMDL
MODEL 4
REMARK VINA RESULT:      -7.8     11.481     14.390
REMARK  6 active torsions:
REMARK  status: ('A' for Active; 'I' for Inactive)
REMARK    1  A    between atoms: C_2  and  N_3 
REMARK    2  A    between atoms: C_2  and  C_18 
REMARK    3  A    between atoms: N_3  and  C_6 
REMARK    4  A    between atoms: C_6  and  C_7 
REMARK    5  A    between atoms: C_10  and  N_11 
REMARK       I    between atoms: N_11  and  C_12 
REMARK    6  A    between atoms: C_12  and  O_13 
ROOT
HETATM    1  N   UNL     1      20.642  49.970  49.939  1.00  0.00    -0.061 N 
HETATM    2  H   UNL     1      21.308  49.675  50.666  1.00  0.00     0.278 HD
HETATM    3  H   UNL     1      20.758  50.995  49.931  1.00  0.00     0.278 HD
ENDROOT
BRANCH   1   4
HETATM    4  C   UNL     1      21.159  49.452  48.618  1.00  0.00     0.241 C 
HETATM    5  C   UNL     1      20.761  50.412  47.500  1.00  0.00     0.047 C 
BRANCH   4   6
HETATM    6  C   UNL     1      22.660  49.335  48.709  1.00  0.00     0.106 A 
HETATM    7  S   UNL     1      23.694  50.441  47.916  1.00  0.00    -0.070 SA
HETATM    8  C   UNL     1      25.064  49.603  48.542  1.00  0.00     0.035 A 
HETATM    9  C   UNL     1      24.625  48.515  49.302  1.00  0.00     0.075 A 
HETATM   10  C   UNL     1      26.428  49.888  48.373  1.00  0.00     0.021 A 
HETATM   11  N   UNL     1      23.244  48.362  49.376  1.00  0.00    -0.243 NA
HETATM   12  C   UNL     1      25.584  47.684  49.914  1.00  0.00     0.033 A 
HETATM   13  C   UNL     1      26.946  47.962  49.755  1.00  0.00     0.002 A 
HETATM   14  C   UNL     1      27.360  49.050  48.994  1.00  0.00     0.002 A 
ENDBRANCH   4   6
ENDBRANCH   1   4
BRANCH   1  15
HETATM   15  C   UNL     1      19.272  49.590  50.354  1.00  0.00     0.271 C 
BRANCH  15  16
HETATM   16  C   UNL     1      18.249  50.543  49.804  1.00  0.00    -0.033 A 
HETATM   17  C   UNL     1      17.173  50.075  49.038  1.00  0.00     0.011 A 
HETATM   18  C   UNL     1      16.226  50.964  48.512  1.00  0.00     0.030 A 
HETATM   19  C   UNL     1      16.329  52.336  48.743  1.00  0.00     0.036 A 
HETATM   20  C   UNL     1      17.401  52.800  49.516  1.00  0.00     0.030 A 
HETATM   21  C   UNL     1      18.355  51.918  50.037  1.00  0.00     0.011 A 
BRANCH  19  22
HETATM   22  N   UNL     1      15.429  53.305  48.271  1.00  0.00    -0.303 N 
HETATM   23  C   UNL     1      14.306  53.872  48.815  1.00  0.00     0.364 C 
HETATM   24  O   UNL     1      13.696  54.736  48.194  1.00  0.00    -0.238 OA
HETATM   25  H   UNL     1      15.600  53.689  47.350  1.00  0.00     0.171 HD
BRANCH  23  26
HETATM   26  O   UNL     1      13.936  53.399  50.030  1.00  0.00    -0.309 OA
HETATM   27  C   UNL     1      14.157  54.317  51.103  1.00  0.00     0.215 C 
ENDBRANCH  23  26
ENDBRANCH  19  22
ENDBRANCH  15  16
ENDBRANCH   1  15
TORSDOF 6
ENDMDL
MODEL 5
REMARK VINA RESULT:      -7.8      4.669      6.708
REMARK  6 active torsions:
REMARK  status: ('A' for Active; 'I' for Inactive)
REMARK    1  A    between atoms: C_2  and  N_3 
REMARK    2  A    between atoms: C_2  and  C_18 
REMARK    3  A    between atoms: N_3  and  C_6 
REMARK    4  A    between atoms: C_6  and  C_7 
REMARK    5  A    between atoms: C_10  and  N_11 
REMARK       I    between atoms: N_11  and  C_12 
REMARK    6  A    between atoms: C_12  and  O_13 
ROOT
HETATM    1  N   UNL     1      25.988  42.134  51.551  1.00  0.00    -0.061 N 
HETATM    2  H   UNL     1      25.220  41.477  51.746  1.00  0.00     0.278 HD
HETATM    3  H   UNL     1      25.785  42.915  52.195  1.00  0.00     0.278 HD
ENDROOT
BRANCH   1   4
HETATM    4  C   UNL     1      27.267  41.486  52.025  1.00  0.00     0.241 C 
HETATM    5  C   UNL     1      28.170  41.201  50.828  1.00  0.00     0.047 C 
BRANCH   4   6
HETATM    6  C   UNL     1      27.946  42.425  52.990  1.00  0.00     0.106 A 
HETATM    7  S   UNL     1      27.254  43.930  53.412  1.00  0.00    -0.070 SA
HETATM    8  C   UNL     1      28.590  44.247  54.454  1.00  0.00     0.035 A 
HETATM    9  C   UNL     1      29.487  43.177  54.385  1.00  0.00     0.075 A 
HETATM   10  C   UNL     1      28.827  45.363  55.273  1.00  0.00     0.021 A 
HETATM   11  N   UNL     1      29.115  42.147  53.528  1.00  0.00    -0.243 NA
HETATM   12  C   UNL     1      30.661  43.225  55.162  1.00  0.00     0.033 A 
HETATM   13  C   UNL     1      30.904  44.330  55.984  1.00  0.00     0.002 A 
HETATM   14  C   UNL     1      29.998  45.384  56.038  1.00  0.00     0.002 A 
ENDBRANCH   4   6
ENDBRANCH   1   4
BRANCH   1  15
HETATM   15  C   UNL     1      25.904  42.570  50.138  1.00  0.00     0.271 C 
BRANCH  15  16
HETATM   16  C   UNL     1      25.680  44.053  50.035  1.00  0.00    -0.033 A 
HETATM   17  C   UNL     1      26.744  44.920  49.753  1.00  0.00     0.011 A 
HETATM   18  C   UNL     1      26.539  46.304  49.671  1.00  0.00     0.030 A 
HETATM   19  C   UNL     1      25.271  46.851  49.862  1.00  0.00     0.036 A 
HETATM   20  C   UNL     1      24.208  45.981  50.136  1.00  0.00     0.030 A 
HETATM   21  C   UNL     1      24.407  44.599  50.227  1.00  0.00     0.011 A 
BRANCH  19  22
HETATM   22  N   UNL     1      24.960  48.218  49.791  1.00  0.00    -0.303 N 
HETATM   23  C   UNL     1      24.100  48.934  48.999  1.00  0.00     0.364 C 
HETATM   24  O   UNL     1      23.993  50.146  49.155  1.00  0.00    -0.238 OA
HETATM   25  H   UNL     1      25.444  48.839  50.427  1.00  0.00     0.171 HD
BRANCH  23  26
HETATM   26  O   UNL     1      23.430  48.222  48.061  1.00  0.00    -0.309 OA
HETATM   27  C   UNL     1      22.049  48.572  47.942  1.00  0.00     0.215 C 
ENDBRANCH  23  26
ENDBRANCH  19  22
ENDBRANCH  15  16
ENDBRANCH   1  15
TORSDOF 6
ENDMDL
MODEL 6
REMARK VINA RESULT:      -7.7      5.216      7.148
REMARK  6 active torsions:
REMARK  status: ('A' for Active; 'I' for Inactive)
REMARK    1  A    between atoms: C_2  and  N_3 
REMARK    2  A    between atoms: C_2  and  C_18 
REMARK    3  A    between atoms: N_3  and  C_6 
REMARK    4  A    between atoms: C_6  and  C_7 
REMARK    5  A    between atoms: C_10  and  N_11 
REMARK       I    between atoms: N_11  and  C_12 
REMARK    6  A    between atoms: C_12  and  O_13 
ROOT
HETATM    1  N   UNL     1      27.504  44.345  51.537  1.00  0.00    -0.061 N 
HETATM    2  H   UNL     1      28.333  44.894  51.274  1.00  0.00     0.278 HD
HETATM    3  H   UNL     1      27.901  43.412  51.723  1.00  0.00     0.278 HD
ENDROOT
BRANCH   1   4
HETATM    4  C   UNL     1      27.003  44.888  52.854  1.00  0.00     0.241 C 
HETATM    5  C   UNL     1      25.710  44.176  53.243  1.00  0.00     0.047 C 
BRANCH   4   6
HETATM    6  C   UNL     1      28.069  44.661  53.897  1.00  0.00     0.106 A 
HETATM    7  S   UNL     1      29.119  43.315  53.826  1.00  0.00    -0.070 SA
HETATM    8  C   UNL     1      29.902  43.856  55.263  1.00  0.00     0.035 A 
HETATM    9  C   UNL     1      29.281  45.027  55.708  1.00  0.00     0.075 A 
HETATM   10  C   UNL     1      30.987  43.285  55.947  1.00  0.00     0.021 A 
HETATM   11  N   UNL     1      28.219  45.469  54.926  1.00  0.00    -0.243 NA
HETATM   12  C   UNL     1      29.763  45.648  56.877  1.00  0.00     0.033 A 
HETATM   13  C   UNL     1      30.847  45.089  57.563  1.00  0.00     0.002 A 
HETATM   14  C   UNL     1      31.449  43.923  57.103  1.00  0.00     0.002 A 
ENDBRANCH   4   6
ENDBRANCH   1   4
BRANCH   1  15
HETATM   15  C   UNL     1      26.565  44.308  50.391  1.00  0.00     0.271 C 
BRANCH  15  16
HETATM   16  C   UNL     1      26.052  45.681  50.059  1.00  0.00    -0.033 A 
HETATM   17  C   UNL     1      26.927  46.689  49.635  1.00  0.00     0.011 A 
HETATM   18  C   UNL     1      26.452  47.974  49.339  1.00  0.00     0.030 A 
HETATM   19  C   UNL     1      25.096  48.278  49.454  1.00  0.00     0.036 A 
HETATM   20  C   UNL     1      24.222  47.266  49.871  1.00  0.00     0.030 A 
HETATM   21  C   UNL     1      24.692  45.983  50.176  1.00  0.00     0.011 A 
BRANCH  19  22
HETATM   22  N   UNL     1      24.521  49.528  49.172  1.00  0.00    -0.303 N 
HETATM   23  C   UNL     1      23.539  49.921  48.300  1.00  0.00     0.364 C 
HETATM   24  O   UNL     1      23.192  51.097  48.262  1.00  0.00    -0.238 OA
HETATM   25  H   UNL     1      24.868  50.327  49.687  1.00  0.00     0.171 HD
BRANCH  23  26
HETATM   26  O   UNL     1      23.028  48.948  47.508  1.00  0.00    -0.309 OA
HETATM   27  C   UNL     1      21.630  48.719  47.697  1.00  0.00     0.215 C 
ENDBRANCH  23  26
ENDBRANCH  19  22
ENDBRANCH  15  16
ENDBRANCH   1  15
TORSDOF 6
ENDMDL
MODEL 7
REMARK VINA RESULT:      -7.6     14.183     16.114
REMARK  6 active torsions:
REMARK  status: ('A' for Active; 'I' for Inactive)
REMARK    1  A    between atoms: C_2  and  N_3 
REMARK    2  A    between atoms: C_2  and  C_18 
REMARK    3  A    between atoms: N_3  and  C_6 
REMARK    4  A    between atoms: C_6  and  C_7 
REMARK    5  A    between atoms: C_10  and  N_11 
REMARK       I    between atoms: N_11  and  C_12 
REMARK    6  A    between atoms: C_12  and  O_13 
ROOT
HETATM    1  N   UNL     1      27.629  48.157  39.101  1.00  0.00    -0.061 N 
HETATM    2  H   UNL     1      28.443  48.500  38.572  1.00  0.00     0.278 HD
HETATM    3  H   UNL     1      27.209  47.476  38.452  1.00  0.00     0.278 HD
ENDROOT
BRANCH   1   4
HETATM    4  C   UNL     1      28.156  47.381  40.285  1.00  0.00     0.241 C 
HETATM    5  C   UNL     1      28.354  45.920  39.890  1.00  0.00     0.047 C 
BRANCH   4   6
HETATM    6  C   UNL     1      29.465  47.998  40.711  1.00  0.00     0.106 A 
HETATM    7  S   UNL     1      30.923  47.668  39.883  1.00  0.00    -0.070 SA
HETATM    8  C   UNL     1      31.768  48.710  40.965  1.00  0.00     0.035 A 
HETATM    9  C   UNL     1      30.867  49.222  41.903  1.00  0.00     0.075 A 
HETATM   10  C   UNL     1      33.130  49.050  40.982  1.00  0.00     0.021 A 
HETATM   11  N   UNL     1      29.552  48.791  41.758  1.00  0.00    -0.243 NA
HETATM   12  C   UNL     1      31.345  50.104  42.892  1.00  0.00     0.033 A 
HETATM   13  C   UNL     1      32.700  50.452  42.914  1.00  0.00     0.002 A 
HETATM   14  C   UNL     1      33.579  49.931  41.971  1.00  0.00     0.002 A 
ENDBRANCH   4   6
ENDBRANCH   1   4
BRANCH   1  15
HETATM   15  C   UNL     1      26.709  49.289  39.359  1.00  0.00     0.271 C 
BRANCH  15  16
HETATM   16  C   UNL     1      27.465  50.556  39.643  1.00  0.00    -0.033 A 
HETATM   17  C   UNL     1      27.400  51.162  40.905  1.00  0.00     0.011 A 
HETATM   18  C   UNL     1      28.093  52.351  41.167  1.00  0.00     0.030 A 
HETATM   19  C   UNL     1      28.869  52.958  40.179  1.00  0.00     0.036 A 
HETATM   20  C   UNL     1      28.939  52.346  38.921  1.00  0.00     0.030 A 
HETATM   21  C   UNL     1      28.242  51.163  38.651  1.00  0.00     0.011 A 
BRANCH  19  22
HETATM   22  N   UNL     1      29.608  54.140  40.344  1.00  0.00    -0.303 N 
HETATM   23  C   UNL     1      30.903  54.379  40.724  1.00  0.00     0.364 C 
HETATM   24  O   UNL     1      31.324  55.531  40.767  1.00  0.00    -0.238 OA
HETATM   25  H   UNL     1      29.133  55.015  40.161  1.00  0.00     0.171 HD
BRANCH  23  26
HETATM   26  O   UNL     1      31.634  53.287  41.053  1.00  0.00    -0.309 OA
HETATM   27  C   UNL     1      32.460  52.799  39.993  1.00  0.00     0.215 C 
ENDBRANCH  23  26
ENDBRANCH  19  22
ENDBRANCH  15  16
ENDBRANCH   1  15
TORSDOF 6
ENDMDL
MODEL 8
REMARK VINA RESULT:      -7.6      9.633     12.309
REMARK  6 active torsions:
REMARK  status: ('A' for Active; 'I' for Inactive)
REMARK    1  A    between atoms: C_2  and  N_3 
REMARK    2  A    between atoms: C_2  and  C_18 
REMARK    3  A    between atoms: N_3  and  C_6 
REMARK    4  A    between atoms: C_6  and  C_7 
REMARK    5  A    between atoms: C_10  and  N_11 
REMARK       I    between atoms: N_11  and  C_12 
REMARK    6  A    between atoms: C_12  and  O_13 
ROOT
HETATM    1  N   UNL     1      22.208  48.816  49.337  1.00  0.00    -0.061 N 
HETATM    2  H   UNL     1      21.475  48.594  48.650  1.00  0.00     0.278 HD
HETATM    3  H   UNL     1      21.950  48.224  50.141  1.00  0.00     0.278 HD
ENDROOT
BRANCH   1   4
HETATM    4  C   UNL     1      23.512  48.287  48.792  1.00  0.00     0.241 C 
HETATM    5  C   UNL     1      24.444  49.453  48.470  1.00  0.00     0.047 C 
BRANCH   4   6
HETATM    6  C   UNL     1      24.130  47.385  49.831  1.00  0.00     0.106 A 
HETATM    7  S   UNL     1      24.017  45.683  49.722  1.00  0.00    -0.070 SA
HETATM    8  C   UNL     1      24.926  45.534  51.178  1.00  0.00     0.035 A 
HETATM    9  C   UNL     1      25.234  46.810  51.657  1.00  0.00     0.075 A 
HETATM   10  C   UNL     1      25.338  44.370  51.848  1.00  0.00     0.021 A 
HETATM   11  N   UNL     1      24.756  47.864  50.886  1.00  0.00    -0.243 NA
HETATM   12  C   UNL     1      25.979  46.927  52.848  1.00  0.00     0.033 A 
HETATM   13  C   UNL     1      26.397  45.774  53.520  1.00  0.00     0.002 A 
HETATM   14  C   UNL     1      26.079  44.513  53.025  1.00  0.00     0.002 A 
ENDBRANCH   4   6
ENDBRANCH   1   4
BRANCH   1  15
HETATM   15  C   UNL     1      22.125  50.254  49.683  1.00  0.00     0.271 C 
BRANCH  15  16
HETATM   16  C   UNL     1      20.824  50.853  49.227  1.00  0.00    -0.033 A 
HETATM   17  C   UNL     1      19.933  51.417  50.149  1.00  0.00     0.011 A 
HETATM   18  C   UNL     1      18.713  51.962  49.726  1.00  0.00     0.030 A 
HETATM   19  C   UNL     1      18.359  51.961  48.377  1.00  0.00     0.036 A 
HETATM   20  C   UNL     1      19.256  51.404  47.457  1.00  0.00     0.030 A 
HETATM   21  C   UNL     1      20.472  50.850  47.873  1.00  0.00     0.011 A 
BRANCH  19  22
HETATM   22  N   UNL     1      17.169  52.491  47.853  1.00  0.00    -0.303 N 
HETATM   23  C   UNL     1      15.881  52.023  47.821  1.00  0.00     0.364 C 
HETATM   24  O   UNL     1      14.997  52.705  47.312  1.00  0.00    -0.238 OA
HETATM   25  H   UNL     1      17.222  53.393  47.396  1.00  0.00     0.171 HD
BRANCH  23  26
HETATM   26  O   UNL     1      15.686  50.793  48.353  1.00  0.00    -0.309 OA
HETATM   27  C   UNL     1      15.469  49.766  47.382  1.00  0.00     0.215 C 
ENDBRANCH  23  26
ENDBRANCH  19  22
ENDBRANCH  15  16
ENDBRANCH   1  15
TORSDOF 6
ENDMDL
MODEL 9
REMARK VINA RESULT:      -7.6      7.262      9.643
REMARK  6 active torsions:
REMARK  status: ('A' for Active; 'I' for Inactive)
REMARK    1  A    between atoms: C_2  and  N_3 
REMARK    2  A    between atoms: C_2  and  C_18 
REMARK    3  A    between atoms: N_3  and  C_6 
REMARK    4  A    between atoms: C_6  and  C_7 
REMARK    5  A    between atoms: C_10  and  N_11 
REMARK       I    between atoms: N_11  and  C_12 
REMARK    6  A    between atoms: C_12  and  O_13 
ROOT
HETATM    1  N   UNL     1      24.548  46.671  50.810  1.00  0.00    -0.061 N 
HETATM    2  H   UNL     1      23.540  46.791  50.978  1.00  0.00     0.278 HD
HETATM    3  H   UNL     1      24.966  47.026  51.683  1.00  0.00     0.278 HD
ENDROOT
BRANCH   1   4
HETATM    4  C   UNL     1      24.821  45.187  50.754  1.00  0.00     0.241 C 
HETATM    5  C   UNL     1      25.181  44.786  49.326  1.00  0.00     0.047 C 
BRANCH   4   6
HETATM    6  C   UNL     1      25.960  44.879  51.695  1.00  0.00     0.106 A 
HETATM    7  S   UNL     1      26.065  45.599  53.241  1.00  0.00    -0.070 SA
HETATM    8  C   UNL     1      27.520  44.727  53.543  1.00  0.00     0.035 A 
HETATM    9  C   UNL     1      27.833  43.958  52.419  1.00  0.00     0.075 A 
HETATM   10  C   UNL     1      28.327  44.725  54.693  1.00  0.00     0.021 A 
HETATM   11  N   UNL     1      26.940  44.067  51.359  1.00  0.00    -0.243 NA
HETATM   12  C   UNL     1      28.993  43.158  52.447  1.00  0.00     0.033 A 
HETATM   13  C   UNL     1      29.800  43.145  53.589  1.00  0.00     0.002 A 
HETATM   14  C   UNL     1      29.470  43.920  54.696  1.00  0.00     0.002 A 
ENDBRANCH   4   6
ENDBRANCH   1   4
BRANCH   1  15
HETATM   15  C   UNL     1      24.946  47.501  49.649  1.00  0.00     0.271 C 
BRANCH  15  16
HETATM   16  C   UNL     1      23.846  48.442  49.246  1.00  0.00    -0.033 A 
HETATM   17  C   UNL     1      22.554  47.965  48.988  1.00  0.00     0.011 A 
HETATM   18  C   UNL     1      21.531  48.840  48.598  1.00  0.00     0.030 A 
HETATM   19  C   UNL     1      21.773  50.206  48.462  1.00  0.00     0.036 A 
HETATM   20  C   UNL     1      23.063  50.681  48.728  1.00  0.00     0.030 A 
HETATM   21  C   UNL     1      24.091  49.812  49.110  1.00  0.00     0.011 A 
BRANCH  19  22
HETATM   22  N   UNL     1      20.816  51.164  48.088  1.00  0.00    -0.303 N 
HETATM   23  C   UNL     1      19.812  51.791  48.779  1.00  0.00     0.364 C 
HETATM   24  O   UNL     1      19.113  52.626  48.215  1.00  0.00    -0.238 OA
HETATM   25  H   UNL     1      20.828  51.483  47.127  1.00  0.00     0.171 HD
BRANCH  23  26
HETATM   26  O   UNL     1      19.654  51.407  50.069  1.00  0.00    -0.309 OA
HETATM   27  C   UNL     1      18.618  50.442  50.266  1.00  0.00     0.215 C 
ENDBRANCH  23  26
ENDBRANCH  19  22
ENDBRANCH  15  16
ENDBRANCH   1  15
TORSDOF 6
ENDMDL
MODEL 10
REMARK VINA RESULT:      -7.6     13.483     16.233
REMARK  6 active torsions:
REMARK  status: ('A' for Active; 'I' for Inactive)
REMARK    1  A    between atoms: C_2  and  N_3 
REMARK    2  A    between atoms: C_2  and  C_18 
REMARK    3  A    between atoms: N_3  and  C_6 
REMARK    4  A    between atoms: C_6  and  C_7 
REMARK    5  A    between atoms: C_10  and  N_11 
REMARK       I    between atoms: N_11  and  C_12 
REMARK    6  A    between atoms: C_12  and  O_13 
ROOT
HETATM    1  N   UNL     1      16.163  53.772  49.335  1.00  0.00    -0.061 N 
HETATM    2  H   UNL     1      16.436  54.487  48.647  1.00  0.00     0.278 HD
HETATM    3  H   UNL     1      16.826  53.938  50.107  1.00  0.00     0.278 HD
ENDROOT
BRANCH   1   4
HETATM    4  C   UNL     1      14.787  54.136  49.840  1.00  0.00     0.241 C 
HETATM    5  C   UNL     1      14.188  52.950  50.592  1.00  0.00     0.047 C 
BRANCH   4   6
HETATM    6  C   UNL     1      14.917  55.331  50.752  1.00  0.00     0.106 A 
HETATM    7  S   UNL     1      14.710  56.925  50.173  1.00  0.00    -0.070 SA
HETATM    8  C   UNL     1      15.002  57.534  51.759  1.00  0.00     0.035 A 
HETATM    9  C   UNL     1      15.261  56.462  52.618  1.00  0.00     0.075 A 
HETATM   10  C   UNL     1      15.002  58.864  52.210  1.00  0.00     0.021 A 
HETATM   11  N   UNL     1      15.228  55.205  52.025  1.00  0.00    -0.243 NA
HETATM   12  C   UNL     1      15.529  56.731  53.976  1.00  0.00     0.033 A 
HETATM   13  C   UNL     1      15.527  58.052  54.435  1.00  0.00     0.002 A 
HETATM   14  C   UNL     1      15.267  59.103  53.562  1.00  0.00     0.002 A 
ENDBRANCH   4   6
ENDBRANCH   1   4
BRANCH   1  15
HETATM   15  C   UNL     1      16.359  52.429  48.740  1.00  0.00     0.271 C 
BRANCH  15  16
HETATM   16  C   UNL     1      17.730  51.893  49.040  1.00  0.00    -0.033 A 
HETATM   17  C   UNL     1      17.913  50.890  50.001  1.00  0.00     0.011 A 
HETATM   18  C   UNL     1      19.193  50.399  50.292  1.00  0.00     0.030 A 
HETATM   19  C   UNL     1      20.315  50.894  49.628  1.00  0.00     0.036 A 
HETATM   20  C   UNL     1      20.129  51.890  48.662  1.00  0.00     0.030 A 
HETATM   21  C   UNL     1      18.854  52.391  48.373  1.00  0.00     0.011 A 
BRANCH  19  22
HETATM   22  N   UNL     1      21.635  50.462  49.839  1.00  0.00    -0.303 N 
HETATM   23  C   UNL     1      22.307  49.323  49.479  1.00  0.00     0.364 C 
HETATM   24  O   UNL     1      23.491  49.195  49.771  1.00  0.00    -0.238 OA
HETATM   25  H   UNL     1      22.249  51.079  50.356  1.00  0.00     0.171 HD
BRANCH  23  26
HETATM   26  O   UNL     1      21.576  48.387  48.827  1.00  0.00    -0.309 OA
HETATM   27  C   UNL     1      22.359  47.454  48.079  1.00  0.00     0.215 C 
ENDBRANCH  23  26
ENDBRANCH  19  22
ENDBRANCH  15  16
ENDBRANCH   1  15
TORSDOF 6
ENDMDL
