MODEL 1
REMARK VINA RESULT:      -9.9      0.000      0.000
REMARK  7 active torsions:
REMARK  status: ('A' for Active; 'I' for Inactive)
REMARK    1  A    between atoms: C_4  and  C_5 
REMARK    2  A    between atoms: C_5  and  O_6 
REMARK    3  A    between atoms: C_5  and  C_7 
REMARK    4  A    between atoms: C_9  and  C_10 
REMARK    5  A    between atoms: C_10  and  N_11 
REMARK       I    between atoms: N_11  and  C_12 
REMARK    6  A    between atoms: C_12  and  C_13 
REMARK       I    between atoms: C_13  and  N_14 
REMARK    7  A    between atoms: N_14  and  C_15 
ROOT
HETATM    1  N   UNL     1      23.509  44.888  48.566  1.00  0.00    -0.348 N 
HETATM    2  C   UNL     1      23.617  44.357  49.824  1.00  0.00     0.310 C 
HETATM    3  O   UNL     1      22.720  43.847  50.480  1.00  0.00    -0.262 OA
HETATM    4  H   UNL     1      24.337  45.360  48.209  1.00  0.00     0.163 HD
ENDROOT
BRANCH   2   5
HETATM    5  C   UNL     1      25.039  44.491  50.410  1.00  0.00     0.313 C 
HETATM    6  N   UNL     1      25.061  44.347  51.781  1.00  0.00    -0.319 N 
HETATM    7  H   UNL     1      24.152  44.161  52.202  1.00  0.00     0.169 HD
HETATM    8  O   UNL     1      25.961  44.724  49.641  1.00  0.00    -0.262 OA
BRANCH   6   9
HETATM    9  C   UNL     1      26.170  44.480  52.634  1.00  0.00     0.036 A 
HETATM   10  C   UNL     1      26.401  45.603  53.428  1.00  0.00     0.039 A 
HETATM   11  C   UNL     1      27.501  45.652  54.298  1.00  0.00    -0.028 A 
HETATM   12  C   UNL     1      28.394  44.577  54.364  1.00  0.00     0.050 A 
HETATM   13  C   UNL     1      27.783  46.891  55.097  1.00  0.00     0.050 C 
HETATM   14  N   UNL     1      29.492  44.636  55.263  1.00  0.00    -0.317 N 
HETATM   15  C   UNL     1      28.205  43.469  53.524  1.00  0.00    -0.028 A 
HETATM   16  C   UNL     1      29.584  45.598  56.265  1.00  0.00     0.224 C 
HETATM   17  C   UNL     1      30.475  43.558  55.264  1.00  0.00     0.132 C 
HETATM   18  O   UNL     1      30.521  45.649  57.065  1.00  0.00    -0.273 OA
HETATM   19  C   UNL     1      28.396  46.518  56.428  1.00  0.00     0.108 C 
HETATM   20  C   UNL     1      30.556  42.805  53.945  1.00  0.00     0.025 C 
HETATM   21  C   UNL     1      29.172  42.318  53.546  1.00  0.00     0.042 C 
HETATM   22  C   UNL     1      27.080  43.419  52.683  1.00  0.00     0.039 A 
ENDBRANCH   6   9
ENDBRANCH   2   5
BRANCH   1  23
HETATM   23  C   UNL     1      22.250  45.057  47.890  1.00  0.00     0.169 C 
BRANCH  23  24
HETATM   24  C   UNL     1      21.715  46.400  48.266  1.00  0.00     0.001 A 
HETATM   25  S   UNL     1      20.057  46.586  48.656  1.00  0.00    -0.095 SA
HETATM   26  C   UNL     1      20.261  48.234  49.082  1.00  0.00     0.017 A 
HETATM   27  C   UNL     1      21.564  48.644  48.873  1.00  0.00     0.018 A 
HETATM   28  C   UNL     1      22.399  47.591  48.397  1.00  0.00     0.017 A 
BRANCH  26  29
HETATM   29  C   UNL     1      19.096  49.008  49.640  1.00  0.00     0.198 C 
BRANCH  29  30
HETATM   30  C   UNL     1      18.859  50.324  48.954  1.00  0.00     0.016 A 
HETATM   31  S   UNL     1      17.900  50.378  47.528  1.00  0.00    -0.103 SA
HETATM   32  C   UNL     1      18.080  52.071  47.389  1.00  0.00     0.050 A 
HETATM   33  C   UNL     1      18.853  52.596  48.399  1.00  0.00     0.008 A 
HETATM   34  C   UNL     1      19.302  51.589  49.301  1.00  0.00     0.018 A 
ENDBRANCH  29  30
BRANCH  29  35
HETATM   35  O   UNL     1      19.416  49.287  51.005  1.00  0.00    -0.385 OA
HETATM   36  H   UNL     1      20.154  49.920  50.984  1.00  0.00     0.210 HD
ENDBRANCH  29  35
ENDBRANCH  26  29
ENDBRANCH  23  24
ENDBRANCH   1  23
TORSDOF 7
ENDMDL
MODEL 2
REMARK VINA RESULT:      -9.8      3.760     11.134
REMARK  7 active torsions:
REMARK  status: ('A' for Active; 'I' for Inactive)
REMARK    1  A    between atoms: C_4  and  C_5 
REMARK    2  A    between atoms: C_5  and  O_6 
REMARK    3  A    between atoms: C_5  and  C_7 
REMARK    4  A    between atoms: C_9  and  C_10 
REMARK    5  A    between atoms: C_10  and  N_11 
REMARK       I    between atoms: N_11  and  C_12 
REMARK    6  A    between atoms: C_12  and  C_13 
REMARK       I    between atoms: C_13  and  N_14 
REMARK    7  A    between atoms: N_14  and  C_15 
ROOT
HETATM    1  N   UNL     1      25.325  48.423  49.330  1.00  0.00    -0.348 N 
HETATM    2  C   UNL     1      25.251  49.432  48.405  1.00  0.00     0.310 C 
HETATM    3  O   UNL     1      26.190  49.993  47.861  1.00  0.00    -0.262 OA
HETATM    4  H   UNL     1      24.444  48.139  49.751  1.00  0.00     0.163 HD
ENDROOT
BRANCH   2   5
HETATM    5  C   UNL     1      23.799  49.864  48.107  1.00  0.00     0.313 C 
HETATM    6  N   UNL     1      22.909  49.418  49.061  1.00  0.00    -0.319 N 
HETATM    7  H   UNL     1      23.333  48.889  49.820  1.00  0.00     0.169 HD
HETATM    8  O   UNL     1      23.586  50.509  47.090  1.00  0.00    -0.262 OA
BRANCH   6   9
HETATM    9  C   UNL     1      21.512  49.571  49.061  1.00  0.00     0.036 A 
HETATM   10  C   UNL     1      20.865  50.743  49.453  1.00  0.00     0.039 A 
HETATM   11  C   UNL     1      19.468  50.849  49.381  1.00  0.00    -0.028 A 
HETATM   12  C   UNL     1      18.703  49.768  48.932  1.00  0.00     0.050 A 
HETATM   13  C   UNL     1      18.774  52.087  49.870  1.00  0.00     0.050 C 
HETATM   14  N   UNL     1      17.291  49.899  48.848  1.00  0.00    -0.317 N 
HETATM   15  C   UNL     1      19.339  48.564  48.594  1.00  0.00    -0.028 A 
HETATM   16  C   UNL     1      16.649  51.131  48.949  1.00  0.00     0.224 C 
HETATM   17  C   UNL     1      16.485  48.743  48.471  1.00  0.00     0.132 C 
HETATM   18  O   UNL     1      15.427  51.262  48.858  1.00  0.00    -0.273 OA
HETATM   19  C   UNL     1      17.539  52.350  49.039  1.00  0.00     0.108 C 
HETATM   20  C   UNL     1      17.152  47.411  48.773  1.00  0.00     0.025 C 
HETATM   21  C   UNL     1      18.536  47.373  48.146  1.00  0.00     0.042 C 
HETATM   22  C   UNL     1      20.741  48.483  48.639  1.00  0.00     0.039 A 
ENDBRANCH   6   9
ENDBRANCH   2   5
BRANCH   1  23
HETATM   23  C   UNL     1      26.566  47.982  49.912  1.00  0.00     0.169 C 
BRANCH  23  24
HETATM   24  C   UNL     1      26.232  47.002  50.989  1.00  0.00     0.001 A 
HETATM   25  S   UNL     1      26.741  45.372  50.855  1.00  0.00    -0.095 SA
HETATM   26  C   UNL     1      26.149  44.976  52.415  1.00  0.00     0.017 A 
HETATM   27  C   UNL     1      25.525  46.062  52.999  1.00  0.00     0.018 A 
HETATM   28  C   UNL     1      25.566  47.225  52.177  1.00  0.00     0.017 A 
BRANCH  26  29
HETATM   29  C   UNL     1      26.387  43.598  52.973  1.00  0.00     0.198 C 
BRANCH  29  30
HETATM   30  C   UNL     1      27.824  43.326  53.322  1.00  0.00     0.016 A 
HETATM   31  S   UNL     1      28.774  42.332  52.289  1.00  0.00    -0.103 SA
HETATM   32  C   UNL     1      30.157  42.510  53.277  1.00  0.00     0.050 A 
HETATM   33  C   UNL     1      29.912  43.305  54.373  1.00  0.00     0.008 A 
HETATM   34  C   UNL     1      28.567  43.774  54.399  1.00  0.00     0.018 A 
ENDBRANCH  29  30
BRANCH  29  35
HETATM   35  O   UNL     1      26.014  42.678  51.944  1.00  0.00    -0.385 OA
HETATM   36  H   UNL     1      25.094  42.892  51.713  1.00  0.00     0.210 HD
ENDBRANCH  29  35
ENDBRANCH  26  29
ENDBRANCH  23  24
ENDBRANCH   1  23
TORSDOF 7
ENDMDL
MODEL 3
REMARK VINA RESULT:      -9.7      0.444      2.064
REMARK  7 active torsions:
REMARK  status: ('A' for Active; 'I' for Inactive)
REMARK    1  A    between atoms: C_4  and  C_5 
REMARK    2  A    between atoms: C_5  and  O_6 
REMARK    3  A    between atoms: C_5  and  C_7 
REMARK    4  A    between atoms: C_9  and  C_10 
REMARK    5  A    between atoms: C_10  and  N_11 
REMARK       I    between atoms: N_11  and  C_12 
REMARK    6  A    between atoms: C_12  and  C_13 
REMARK       I    between atoms: C_13  and  N_14 
REMARK    7  A    between atoms: N_14  and  C_15 
ROOT
HETATM    1  N   UNL     1      23.631  44.826  48.499  1.00  0.00    -0.348 N 
HETATM    2  C   UNL     1      23.687  44.300  49.763  1.00  0.00     0.310 C 
HETATM    3  O   UNL     1      22.770  43.773  50.375  1.00  0.00    -0.262 OA
HETATM    4  H   UNL     1      24.466  45.314  48.182  1.00  0.00     0.163 HD
ENDROOT
BRANCH   2   5
HETATM    5  C   UNL     1      25.075  44.464  50.418  1.00  0.00     0.313 C 
HETATM    6  N   UNL     1      25.069  44.139  51.758  1.00  0.00    -0.319 N 
HETATM    7  H   UNL     1      24.167  43.827  52.113  1.00  0.00     0.169 HD
HETATM    8  O   UNL     1      25.998  44.870  49.724  1.00  0.00    -0.262 OA
BRANCH   6   9
HETATM    9  C   UNL     1      26.138  44.241  52.665  1.00  0.00     0.036 A 
HETATM   10  C   UNL     1      27.060  43.218  52.888  1.00  0.00     0.039 A 
HETATM   11  C   UNL     1      28.136  43.402  53.770  1.00  0.00    -0.028 A 
HETATM   12  C   UNL     1      28.284  44.613  54.454  1.00  0.00     0.050 A 
HETATM   13  C   UNL     1      29.083  42.274  54.058  1.00  0.00     0.050 C 
HETATM   14  N   UNL     1      29.389  44.789  55.329  1.00  0.00    -0.317 N 
HETATM   15  C   UNL     1      27.328  45.625  54.284  1.00  0.00    -0.028 A 
HETATM   16  C   UNL     1      30.472  43.913  55.349  1.00  0.00     0.224 C 
HETATM   17  C   UNL     1      29.493  46.015  56.114  1.00  0.00     0.132 C 
HETATM   18  O   UNL     1      31.446  44.064  56.089  1.00  0.00    -0.273 OA
HETATM   19  C   UNL     1      30.472  42.818  54.307  1.00  0.00     0.108 C 
HETATM   20  C   UNL     1      28.156  46.696  56.360  1.00  0.00     0.025 C 
HETATM   21  C   UNL     1      27.442  46.922  55.037  1.00  0.00     0.042 C 
HETATM   22  C   UNL     1      26.275  45.440  53.372  1.00  0.00     0.039 A 
ENDBRANCH   6   9
ENDBRANCH   2   5
BRANCH   1  23
HETATM   23  C   UNL     1      22.403  44.967  47.761  1.00  0.00     0.169 C 
BRANCH  23  24
HETATM   24  C   UNL     1      21.806  46.285  48.133  1.00  0.00     0.001 A 
HETATM   25  S   UNL     1      20.150  46.387  48.560  1.00  0.00    -0.095 SA
HETATM   26  C   UNL     1      20.275  48.050  48.960  1.00  0.00     0.017 A 
HETATM   27  C   UNL     1      21.549  48.526  48.714  1.00  0.00     0.018 A 
HETATM   28  C   UNL     1      22.428  47.513  48.233  1.00  0.00     0.017 A 
BRANCH  26  29
HETATM   29  C   UNL     1      19.083  48.768  49.536  1.00  0.00     0.198 C 
BRANCH  29  30
HETATM   30  C   UNL     1      18.881  50.149  48.978  1.00  0.00     0.016 A 
HETATM   31  S   UNL     1      17.999  50.353  47.516  1.00  0.00    -0.103 SA
HETATM   32  C   UNL     1      18.183  52.051  47.562  1.00  0.00     0.050 A 
HETATM   33  C   UNL     1      18.900  52.466  48.662  1.00  0.00     0.008 A 
HETATM   34  C   UNL     1      19.302  51.370  49.477  1.00  0.00     0.018 A 
ENDBRANCH  29  30
BRANCH  29  35
HETATM   35  O   UNL     1      19.334  48.904  50.937  1.00  0.00    -0.385 OA
HETATM   36  H   UNL     1      19.011  49.787  51.182  1.00  0.00     0.210 HD
ENDBRANCH  29  35
ENDBRANCH  26  29
ENDBRANCH  23  24
ENDBRANCH   1  23
TORSDOF 7
ENDMDL
MODEL 4
REMARK VINA RESULT:      -9.5      1.403      2.513
REMARK  7 active torsions:
REMARK  status: ('A' for Active; 'I' for Inactive)
REMARK    1  A    between atoms: C_4  and  C_5 
REMARK    2  A    between atoms: C_5  and  O_6 
REMARK    3  A    between atoms: C_5  and  C_7 
REMARK    4  A    between atoms: C_9  and  C_10 
REMARK    5  A    between atoms: C_10  and  N_11 
REMARK       I    between atoms: N_11  and  C_12 
REMARK    6  A    between atoms: C_12  and  C_13 
REMARK       I    between atoms: C_13  and  N_14 
REMARK    7  A    between atoms: N_14  and  C_15 
ROOT
HETATM    1  N   UNL     1      23.752  45.655  49.330  1.00  0.00    -0.348 N 
HETATM    2  C   UNL     1      24.600  44.610  49.072  1.00  0.00     0.310 C 
HETATM    3  O   UNL     1      24.409  43.691  48.290  1.00  0.00    -0.262 OA
HETATM    4  H   UNL     1      24.030  46.279  50.084  1.00  0.00     0.163 HD
ENDROOT
BRANCH   2   5
HETATM    5  C   UNL     1      25.885  44.658  49.927  1.00  0.00     0.313 C 
HETATM    6  N   UNL     1      25.638  44.437  51.265  1.00  0.00    -0.319 N 
HETATM    7  H   UNL     1      24.661  44.261  51.491  1.00  0.00     0.169 HD
HETATM    8  O   UNL     1      26.944  44.901  49.364  1.00  0.00    -0.262 OA
BRANCH   6   9
HETATM    9  C   UNL     1      26.565  44.481  52.321  1.00  0.00     0.036 A 
HETATM   10  C   UNL     1      27.430  43.431  52.632  1.00  0.00     0.039 A 
HETATM   11  C   UNL     1      28.367  43.558  53.668  1.00  0.00    -0.028 A 
HETATM   12  C   UNL     1      28.432  44.736  54.418  1.00  0.00     0.050 A 
HETATM   13  C   UNL     1      29.247  42.400  54.042  1.00  0.00     0.050 C 
HETATM   14  N   UNL     1      29.399  44.854  55.451  1.00  0.00    -0.317 N 
HETATM   15  C   UNL     1      27.525  45.774  54.155  1.00  0.00    -0.028 A 
HETATM   16  C   UNL     1      30.455  43.957  55.590  1.00  0.00     0.224 C 
HETATM   17  C   UNL     1      29.404  46.045  56.295  1.00  0.00     0.132 C 
HETATM   18  O   UNL     1      31.312  44.058  56.470  1.00  0.00    -0.273 OA
HETATM   19  C   UNL     1      30.592  42.905  54.513  1.00  0.00     0.108 C 
HETATM   20  C   UNL     1      28.056  46.742  56.374  1.00  0.00     0.025 C 
HETATM   21  C   UNL     1      27.546  47.036  54.972  1.00  0.00     0.042 C 
HETATM   22  C   UNL     1      26.614  45.647  53.092  1.00  0.00     0.039 A 
ENDBRANCH   6   9
ENDBRANCH   2   5
BRANCH   1  23
HETATM   23  C   UNL     1      22.414  45.727  48.804  1.00  0.00     0.169 C 
BRANCH  23  24
HETATM   24  C   UNL     1      22.136  47.160  48.482  1.00  0.00     0.001 A 
HETATM   25  S   UNL     1      20.805  47.573  47.484  1.00  0.00    -0.095 SA
HETATM   26  C   UNL     1      21.063  49.254  47.703  1.00  0.00     0.017 A 
HETATM   27  C   UNL     1      22.181  49.488  48.480  1.00  0.00     0.018 A 
HETATM   28  C   UNL     1      22.802  48.285  48.922  1.00  0.00     0.017 A 
BRANCH  26  29
HETATM   29  C   UNL     1      20.092  50.238  47.105  1.00  0.00     0.198 C 
BRANCH  29  30
HETATM   30  C   UNL     1      19.206  50.906  48.120  1.00  0.00     0.016 A 
HETATM   31  S   UNL     1      18.077  49.964  49.010  1.00  0.00    -0.103 SA
HETATM   32  C   UNL     1      17.523  51.327  49.880  1.00  0.00     0.050 A 
HETATM   33  C   UNL     1      18.174  52.480  49.507  1.00  0.00     0.008 A 
HETATM   34  C   UNL     1      19.144  52.237  48.492  1.00  0.00     0.018 A 
ENDBRANCH  29  30
BRANCH  29  35
HETATM   35  O   UNL     1      19.249  49.489  46.227  1.00  0.00    -0.385 OA
HETATM   36  H   UNL     1      18.437  50.013  46.124  1.00  0.00     0.210 HD
ENDBRANCH  29  35
ENDBRANCH  26  29
ENDBRANCH  23  24
ENDBRANCH   1  23
TORSDOF 7
ENDMDL
MODEL 5
REMARK VINA RESULT:      -9.5      3.838     11.318
REMARK  7 active torsions:
REMARK  status: ('A' for Active; 'I' for Inactive)
REMARK    1  A    between atoms: C_4  and  C_5 
REMARK    2  A    between atoms: C_5  and  O_6 
REMARK    3  A    between atoms: C_5  and  C_7 
REMARK    4  A    between atoms: C_9  and  C_10 
REMARK    5  A    between atoms: C_10  and  N_11 
REMARK       I    between atoms: N_11  and  C_12 
REMARK    6  A    between atoms: C_12  and  C_13 
REMARK       I    between atoms: C_13  and  N_14 
REMARK    7  A    between atoms: N_14  and  C_15 
ROOT
HETATM    1  N   UNL     1      25.374  48.382  49.323  1.00  0.00    -0.348 N 
HETATM    2  C   UNL     1      25.325  49.429  48.441  1.00  0.00     0.310 C 
HETATM    3  O   UNL     1      26.277  50.048  47.989  1.00  0.00    -0.262 OA
HETATM    4  H   UNL     1      24.477  48.047  49.668  1.00  0.00     0.163 HD
ENDROOT
BRANCH   2   5
HETATM    5  C   UNL     1      23.882  49.823  48.060  1.00  0.00     0.313 C 
HETATM    6  N   UNL     1      22.940  49.232  48.876  1.00  0.00    -0.319 N 
HETATM    7  H   UNL     1      23.327  48.642  49.610  1.00  0.00     0.169 HD
HETATM    8  O   UNL     1      23.719  50.567  47.102  1.00  0.00    -0.262 OA
BRANCH   6   9
HETATM    9  C   UNL     1      21.542  49.319  48.765  1.00  0.00     0.036 A 
HETATM   10  C   UNL     1      20.750  48.319  48.202  1.00  0.00     0.039 A 
HETATM   11  C   UNL     1      19.353  48.444  48.168  1.00  0.00    -0.028 A 
HETATM   12  C   UNL     1      18.737  49.589  48.683  1.00  0.00     0.050 A 
HETATM   13  C   UNL     1      18.512  47.396  47.498  1.00  0.00     0.050 C 
HETATM   14  N   UNL     1      17.320  49.692  48.657  1.00  0.00    -0.317 N 
HETATM   15  C   UNL     1      19.528  50.628  49.196  1.00  0.00    -0.028 A 
HETATM   16  C   UNL     1      16.499  48.603  48.377  1.00  0.00     0.224 C 
HETATM   17  C   UNL     1      16.683  50.925  49.108  1.00  0.00     0.132 C 
HETATM   18  O   UNL     1      15.269  48.672  48.370  1.00  0.00    -0.273 OA
HETATM   19  C   UNL     1      17.185  47.266  48.211  1.00  0.00     0.108 C 
HETATM   20  C   UNL     1      17.580  52.148  49.001  1.00  0.00     0.025 C 
HETATM   21  C   UNL     1      18.894  51.887  49.720  1.00  0.00     0.042 C 
HETATM   22  C   UNL     1      20.924  50.474  49.254  1.00  0.00     0.039 A 
ENDBRANCH   6   9
ENDBRANCH   2   5
BRANCH   1  23
HETATM   23  C   UNL     1      26.587  47.958  49.972  1.00  0.00     0.169 C 
BRANCH  23  24
HETATM   24  C   UNL     1      26.225  46.878  50.939  1.00  0.00     0.001 A 
HETATM   25  S   UNL     1      26.927  45.322  50.791  1.00  0.00    -0.095 SA
HETATM   26  C   UNL     1      26.181  44.763  52.231  1.00  0.00     0.017 A 
HETATM   27  C   UNL     1      25.367  45.736  52.778  1.00  0.00     0.018 A 
HETATM   28  C   UNL     1      25.386  46.950  52.032  1.00  0.00     0.017 A 
BRANCH  26  29
HETATM   29  C   UNL     1      26.496  43.383  52.743  1.00  0.00     0.198 C 
BRANCH  29  30
HETATM   30  C   UNL     1      27.940  43.188  53.112  1.00  0.00     0.016 A 
HETATM   31  S   UNL     1      28.549  43.895  54.556  1.00  0.00    -0.103 SA
HETATM   32  C   UNL     1      30.112  43.257  54.289  1.00  0.00     0.050 A 
HETATM   33  C   UNL     1      30.181  42.523  53.128  1.00  0.00     0.008 A 
HETATM   34  C   UNL     1      28.929  42.483  52.449  1.00  0.00     0.018 A 
ENDBRANCH  29  30
BRANCH  29  35
HETATM   35  O   UNL     1      26.201  42.480  51.674  1.00  0.00    -0.385 OA
HETATM   36  H   UNL     1      26.882  42.635  50.997  1.00  0.00     0.210 HD
ENDBRANCH  29  35
ENDBRANCH  26  29
ENDBRANCH  23  24
ENDBRANCH   1  23
TORSDOF 7
ENDMDL
MODEL 6
REMARK VINA RESULT:      -9.5      1.889      3.103
REMARK  7 active torsions:
REMARK  status: ('A' for Active; 'I' for Inactive)
REMARK    1  A    between atoms: C_4  and  C_5 
REMARK    2  A    between atoms: C_5  and  O_6 
REMARK    3  A    between atoms: C_5  and  C_7 
REMARK    4  A    between atoms: C_9  and  C_10 
REMARK    5  A    between atoms: C_10  and  N_11 
REMARK       I    between atoms: N_11  and  C_12 
REMARK    6  A    between atoms: C_12  and  C_13 
REMARK       I    between atoms: C_13  and  N_14 
REMARK    7  A    between atoms: N_14  and  C_15 
ROOT
HETATM    1  N   UNL     1      24.481  44.801  50.021  1.00  0.00    -0.348 N 
HETATM    2  C   UNL     1      25.752  44.318  50.191  1.00  0.00     0.310 C 
HETATM    3  O   UNL     1      26.538  44.006  49.309  1.00  0.00    -0.262 OA
HETATM    4  H   UNL     1      23.931  44.917  50.869  1.00  0.00     0.163 HD
ENDROOT
BRANCH   2   5
HETATM    5  C   UNL     1      26.133  44.148  51.677  1.00  0.00     0.313 C 
HETATM    6  N   UNL     1      27.300  44.805  52.002  1.00  0.00    -0.319 N 
HETATM    7  H   UNL     1      27.729  45.312  51.230  1.00  0.00     0.169 HD
HETATM    8  O   UNL     1      25.409  43.459  52.384  1.00  0.00    -0.262 OA
BRANCH   6   9
HETATM    9  C   UNL     1      27.965  44.801  53.241  1.00  0.00     0.036 A 
HETATM   10  C   UNL     1      28.906  43.839  53.607  1.00  0.00     0.039 A 
HETATM   11  C   UNL     1      29.572  43.920  54.839  1.00  0.00    -0.028 A 
HETATM   12  C   UNL     1      29.283  44.961  55.727  1.00  0.00     0.050 A 
HETATM   13  C   UNL     1      30.532  42.844  55.256  1.00  0.00     0.050 C 
HETATM   14  N   UNL     1      29.980  45.039  56.963  1.00  0.00    -0.317 N 
HETATM   15  C   UNL     1      28.294  45.899  55.395  1.00  0.00    -0.028 A 
HETATM   16  C   UNL     1      31.116  44.278  57.227  1.00  0.00     0.224 C 
HETATM   17  C   UNL     1      29.612  46.069  57.929  1.00  0.00     0.132 C 
HETATM   18  O   UNL     1      31.742  44.349  58.286  1.00  0.00    -0.273 OA
HETATM   19  C   UNL     1      31.647  43.440  56.086  1.00  0.00     0.108 C 
HETATM   20  C   UNL     1      28.181  46.560  57.781  1.00  0.00     0.025 C 
HETATM   21  C   UNL     1      27.935  47.005  56.348  1.00  0.00     0.042 C 
HETATM   22  C   UNL     1      27.659  45.825  54.143  1.00  0.00     0.039 A 
ENDBRANCH   6   9
ENDBRANCH   2   5
BRANCH   1  23
HETATM   23  C   UNL     1      23.830  44.864  48.738  1.00  0.00     0.169 C 
BRANCH  23  24
HETATM   24  C   UNL     1      23.114  46.173  48.663  1.00  0.00     0.001 A 
HETATM   25  S   UNL     1      23.728  47.538  49.496  1.00  0.00    -0.095 SA
HETATM   26  C   UNL     1      22.531  48.576  48.840  1.00  0.00     0.017 A 
HETATM   27  C   UNL     1      21.647  47.873  48.044  1.00  0.00     0.018 A 
HETATM   28  C   UNL     1      21.977  46.490  47.948  1.00  0.00     0.017 A 
BRANCH  26  29
HETATM   29  C   UNL     1      22.580  50.051  49.140  1.00  0.00     0.198 C 
BRANCH  29  30
HETATM   30  C   UNL     1      21.227  50.703  49.195  1.00  0.00     0.016 A 
HETATM   31  S   UNL     1      20.144  50.304  50.470  1.00  0.00    -0.103 SA
HETATM   32  C   UNL     1      18.950  51.376  49.883  1.00  0.00     0.050 A 
HETATM   33  C   UNL     1      19.355  52.028  48.741  1.00  0.00     0.008 A 
HETATM   34  C   UNL     1      20.667  51.640  48.344  1.00  0.00     0.018 A 
ENDBRANCH  29  30
BRANCH  29  35
HETATM   35  O   UNL     1      23.304  50.656  48.066  1.00  0.00    -0.385 OA
HETATM   36  H   UNL     1      23.073  51.600  48.085  1.00  0.00     0.210 HD
ENDBRANCH  29  35
ENDBRANCH  26  29
ENDBRANCH  23  24
ENDBRANCH   1  23
TORSDOF 7
ENDMDL
MODEL 7
REMARK VINA RESULT:      -9.1      2.966      4.406
REMARK  7 active torsions:
REMARK  status: ('A' for Active; 'I' for Inactive)
REMARK    1  A    between atoms: C_4  and  C_5 
REMARK    2  A    between atoms: C_5  and  O_6 
REMARK    3  A    between atoms: C_5  and  C_7 
REMARK    4  A    between atoms: C_9  and  C_10 
REMARK    5  A    between atoms: C_10  and  N_11 
REMARK       I    between atoms: N_11  and  C_12 
REMARK    6  A    between atoms: C_12  and  C_13 
REMARK       I    between atoms: C_13  and  N_14 
REMARK    7  A    between atoms: N_14  and  C_15 
ROOT
HETATM    1  N   UNL     1      24.219  50.064  49.079  1.00  0.00    -0.348 N 
HETATM    2  C   UNL     1      25.377  49.758  48.414  1.00  0.00     0.310 C 
HETATM    3  O   UNL     1      25.777  50.263  47.375  1.00  0.00    -0.262 OA
HETATM    4  H   UNL     1      23.995  49.476  49.879  1.00  0.00     0.163 HD
ENDROOT
BRANCH   2   5
HETATM    5  C   UNL     1      26.178  48.629  49.097  1.00  0.00     0.313 C 
HETATM    6  N   UNL     1      25.367  47.628  49.588  1.00  0.00    -0.319 N 
HETATM    7  H   UNL     1      24.373  47.768  49.418  1.00  0.00     0.169 HD
HETATM    8  O   UNL     1      27.396  48.738  49.155  1.00  0.00    -0.262 OA
BRANCH   6   9
HETATM    9  C   UNL     1      25.760  46.495  50.322  1.00  0.00     0.036 A 
HETATM   10  C   UNL     1      25.939  45.234  49.754  1.00  0.00     0.039 A 
HETATM   11  C   UNL     1      26.383  44.154  50.533  1.00  0.00    -0.028 A 
HETATM   12  C   UNL     1      26.632  44.327  51.898  1.00  0.00     0.050 A 
HETATM   13  C   UNL     1      26.506  42.784  49.932  1.00  0.00     0.050 C 
HETATM   14  N   UNL     1      27.098  43.228  52.668  1.00  0.00    -0.317 N 
HETATM   15  C   UNL     1      26.395  45.576  52.491  1.00  0.00    -0.028 A 
HETATM   16  C   UNL     1      27.562  42.052  52.083  1.00  0.00     0.224 C 
HETATM   17  C   UNL     1      27.267  43.383  54.109  1.00  0.00     0.132 C 
HETATM   18  O   UNL     1      27.987  41.098  52.738  1.00  0.00    -0.273 OA
HETATM   19  C   UNL     1      27.654  42.040  50.574  1.00  0.00     0.108 C 
HETATM   20  C   UNL     1      26.396  44.474  54.711  1.00  0.00     0.025 C 
HETATM   21  C   UNL     1      26.617  45.780  53.965  1.00  0.00     0.042 C 
HETATM   22  C   UNL     1      25.984  46.657  51.693  1.00  0.00     0.039 A 
ENDBRANCH   6   9
ENDBRANCH   2   5
BRANCH   1  23
HETATM   23  C   UNL     1      23.213  50.942  48.541  1.00  0.00     0.169 C 
BRANCH  23  24
HETATM   24  C   UNL     1      21.907  50.218  48.602  1.00  0.00     0.001 A 
HETATM   25  S   UNL     1      20.722  50.679  49.751  1.00  0.00    -0.095 SA
HETATM   26  C   UNL     1      19.573  49.569  49.127  1.00  0.00     0.017 A 
HETATM   27  C   UNL     1      20.111  48.824  48.095  1.00  0.00     0.018 A 
HETATM   28  C   UNL     1      21.455  49.192  47.798  1.00  0.00     0.017 A 
BRANCH  26  29
HETATM   29  C   UNL     1      18.179  49.546  49.695  1.00  0.00     0.198 C 
BRANCH  29  30
HETATM   30  C   UNL     1      17.102  49.447  48.650  1.00  0.00     0.016 A 
HETATM   31  S   UNL     1      16.404  47.916  48.294  1.00  0.00    -0.103 SA
HETATM   32  C   UNL     1      15.352  48.591  47.129  1.00  0.00     0.050 A 
HETATM   33  C   UNL     1      15.521  49.951  47.003  1.00  0.00     0.008 A 
HETATM   34  C   UNL     1      16.529  50.444  47.880  1.00  0.00     0.018 A 
ENDBRANCH  29  30
BRANCH  29  35
HETATM   35  O   UNL     1      18.001  50.790  50.376  1.00  0.00    -0.385 OA
HETATM   36  H   UNL     1      18.738  50.857  51.007  1.00  0.00     0.210 HD
ENDBRANCH  29  35
ENDBRANCH  26  29
ENDBRANCH  23  24
ENDBRANCH   1  23
TORSDOF 7
ENDMDL
MODEL 8
REMARK VINA RESULT:      -9.1      1.777      2.950
REMARK  7 active torsions:
REMARK  status: ('A' for Active; 'I' for Inactive)
REMARK    1  A    between atoms: C_4  and  C_5 
REMARK    2  A    between atoms: C_5  and  O_6 
REMARK    3  A    between atoms: C_5  and  C_7 
REMARK    4  A    between atoms: C_9  and  C_10 
REMARK    5  A    between atoms: C_10  and  N_11 
REMARK       I    between atoms: N_11  and  C_12 
REMARK    6  A    between atoms: C_12  and  C_13 
REMARK       I    between atoms: C_13  and  N_14 
REMARK    7  A    between atoms: N_14  and  C_15 
ROOT
HETATM    1  N   UNL     1      24.056  43.482  47.916  1.00  0.00    -0.348 N 
HETATM    2  C   UNL     1      24.712  42.494  48.603  1.00  0.00     0.310 C 
HETATM    3  O   UNL     1      24.467  41.297  48.571  1.00  0.00    -0.262 OA
HETATM    4  H   UNL     1      24.331  44.436  48.137  1.00  0.00     0.163 HD
ENDROOT
BRANCH   2   5
HETATM    5  C   UNL     1      25.835  43.042  49.511  1.00  0.00     0.313 C 
HETATM    6  N   UNL     1      25.423  43.214  50.815  1.00  0.00    -0.319 N 
HETATM    7  H   UNL     1      24.457  42.945  50.992  1.00  0.00     0.169 HD
HETATM    8  O   UNL     1      26.922  43.281  49.003  1.00  0.00    -0.262 OA
BRANCH   6   9
HETATM    9  C   UNL     1      26.165  43.756  51.879  1.00  0.00     0.036 A 
HETATM   10  C   UNL     1      27.104  43.031  52.611  1.00  0.00     0.039 A 
HETATM   11  C   UNL     1      27.850  43.645  53.629  1.00  0.00    -0.028 A 
HETATM   12  C   UNL     1      27.643  44.994  53.935  1.00  0.00     0.050 A 
HETATM   13  C   UNL     1      28.808  42.842  54.459  1.00  0.00     0.050 C 
HETATM   14  N   UNL     1      28.419  45.605  54.956  1.00  0.00    -0.317 N 
HETATM   15  C   UNL     1      26.657  45.716  53.246  1.00  0.00    -0.028 A 
HETATM   16  C   UNL     1      29.551  45.000  55.495  1.00  0.00     0.224 C 
HETATM   17  C   UNL     1      28.138  46.985  55.340  1.00  0.00     0.132 C 
HETATM   18  O   UNL     1      30.245  45.526  56.367  1.00  0.00    -0.273 OA
HETATM   19  C   UNL     1      29.987  43.699  54.860  1.00  0.00     0.108 C 
HETATM   20  C   UNL     1      26.713  47.422  55.044  1.00  0.00     0.025 C 
HETATM   21  C   UNL     1      26.386  47.157  53.583  1.00  0.00     0.042 C 
HETATM   22  C   UNL     1      25.942  45.097  52.207  1.00  0.00     0.039 A 
ENDBRANCH   6   9
ENDBRANCH   2   5
BRANCH   1  23
HETATM   23  C   UNL     1      22.855  43.246  47.159  1.00  0.00     0.169 C 
BRANCH  23  24
HETATM   24  C   UNL     1      22.071  44.518  47.154  1.00  0.00     0.001 A 
HETATM   25  S   UNL     1      21.095  44.930  48.501  1.00  0.00    -0.095 SA
HETATM   26  C   UNL     1      20.688  46.458  47.838  1.00  0.00     0.017 A 
HETATM   27  C   UNL     1      21.245  46.620  46.583  1.00  0.00     0.018 A 
HETATM   28  C   UNL     1      22.034  45.501  46.187  1.00  0.00     0.017 A 
BRANCH  26  29
HETATM   29  C   UNL     1      19.858  47.421  48.644  1.00  0.00     0.198 C 
BRANCH  29  30
HETATM   30  C   UNL     1      20.587  48.681  49.020  1.00  0.00     0.016 A 
HETATM   31  S   UNL     1      19.690  50.083  49.451  1.00  0.00    -0.103 SA
HETATM   32  C   UNL     1      21.112  50.989  49.732  1.00  0.00     0.050 A 
HETATM   33  C   UNL     1      22.250  50.250  49.504  1.00  0.00     0.008 A 
HETATM   34  C   UNL     1      21.948  48.921  49.094  1.00  0.00     0.018 A 
ENDBRANCH  29  30
BRANCH  29  35
HETATM   35  O   UNL     1      19.520  46.743  49.857  1.00  0.00    -0.385 OA
HETATM   36  H   UNL     1      20.267  46.153  50.051  1.00  0.00     0.210 HD
ENDBRANCH  29  35
ENDBRANCH  26  29
ENDBRANCH  23  24
ENDBRANCH   1  23
TORSDOF 7
ENDMDL
MODEL 9
REMARK VINA RESULT:      -8.9      3.437      5.081
REMARK  7 active torsions:
REMARK  status: ('A' for Active; 'I' for Inactive)
REMARK    1  A    between atoms: C_4  and  C_5 
REMARK    2  A    between atoms: C_5  and  O_6 
REMARK    3  A    between atoms: C_5  and  C_7 
REMARK    4  A    between atoms: C_9  and  C_10 
REMARK    5  A    between atoms: C_10  and  N_11 
REMARK       I    between atoms: N_11  and  C_12 
REMARK    6  A    between atoms: C_12  and  C_13 
REMARK       I    between atoms: C_13  and  N_14 
REMARK    7  A    between atoms: N_14  and  C_15 
ROOT
HETATM    1  N   UNL     1      26.896  40.970  48.833  1.00  0.00    -0.348 N 
HETATM    2  C   UNL     1      27.154  40.056  49.821  1.00  0.00     0.310 C 
HETATM    3  O   UNL     1      26.846  38.874  49.820  1.00  0.00    -0.262 OA
HETATM    4  H   UNL     1      27.139  41.935  49.043  1.00  0.00     0.163 HD
ENDROOT
BRANCH   2   5
HETATM    5  C   UNL     1      27.879  40.677  51.035  1.00  0.00     0.313 C 
HETATM    6  N   UNL     1      27.281  41.841  51.468  1.00  0.00    -0.319 N 
HETATM    7  H   UNL     1      26.451  42.111  50.944  1.00  0.00     0.169 HD
HETATM    8  O   UNL     1      28.880  40.116  51.459  1.00  0.00    -0.262 OA
BRANCH   6   9
HETATM    9  C   UNL     1      27.719  42.693  52.497  1.00  0.00     0.036 A 
HETATM   10  C   UNL     1      28.720  42.351  53.407  1.00  0.00     0.039 A 
HETATM   11  C   UNL     1      29.148  43.267  54.379  1.00  0.00    -0.028 A 
HETATM   12  C   UNL     1      28.558  44.533  54.461  1.00  0.00     0.050 A 
HETATM   13  C   UNL     1      30.175  42.868  55.398  1.00  0.00     0.050 C 
HETATM   14  N   UNL     1      29.016  45.454  55.440  1.00  0.00    -0.317 N 
HETATM   15  C   UNL     1      27.509  44.864  53.591  1.00  0.00    -0.028 A 
HETATM   16  C   UNL     1      30.194  45.257  56.157  1.00  0.00     0.224 C 
HETATM   17  C   UNL     1      28.339  46.738  55.587  1.00  0.00     0.132 C 
HETATM   18  O   UNL     1      30.613  46.057  56.995  1.00  0.00    -0.273 OA
HETATM   19  C   UNL     1      31.030  44.061  55.763  1.00  0.00     0.108 C 
HETATM   20  C   UNL     1      26.896  46.724  55.110  1.00  0.00     0.025 C 
HETATM   21  C   UNL     1      26.830  46.203  53.683  1.00  0.00     0.042 C 
HETATM   22  C   UNL     1      27.113  43.950  52.600  1.00  0.00     0.039 A 
ENDBRANCH   6   9
ENDBRANCH   2   5
BRANCH   1  23
HETATM   23  C   UNL     1      26.066  40.679  47.693  1.00  0.00     0.169 C 
BRANCH  23  24
HETATM   24  C   UNL     1      24.911  41.627  47.727  1.00  0.00     0.001 A 
HETATM   25  S   UNL     1      24.486  42.412  49.189  1.00  0.00    -0.095 SA
HETATM   26  C   UNL     1      23.274  43.353  48.423  1.00  0.00     0.017 A 
HETATM   27  C   UNL     1      23.163  43.027  47.085  1.00  0.00     0.018 A 
HETATM   28  C   UNL     1      24.100  42.029  46.685  1.00  0.00     0.017 A 
BRANCH  26  29
HETATM   29  C   UNL     1      22.531  44.396  49.216  1.00  0.00     0.198 C 
BRANCH  29  30
HETATM   30  C   UNL     1      23.325  45.648  49.463  1.00  0.00     0.016 A 
HETATM   31  S   UNL     1      22.879  47.106  48.669  1.00  0.00    -0.103 SA
HETATM   32  C   UNL     1      24.140  47.981  49.420  1.00  0.00     0.050 A 
HETATM   33  C   UNL     1      24.893  47.190  50.257  1.00  0.00     0.008 A 
HETATM   34  C   UNL     1      24.423  45.845  50.282  1.00  0.00     0.018 A 
ENDBRANCH  29  30
BRANCH  29  35
HETATM   35  O   UNL     1      22.249  43.809  50.488  1.00  0.00    -0.385 OA
HETATM   36  H   UNL     1      23.063  43.902  51.013  1.00  0.00     0.210 HD
ENDBRANCH  29  35
ENDBRANCH  26  29
ENDBRANCH  23  24
ENDBRANCH   1  23
TORSDOF 7
ENDMDL
MODEL 10
REMARK VINA RESULT:      -8.8      3.081      4.473
REMARK  7 active torsions:
REMARK  status: ('A' for Active; 'I' for Inactive)
REMARK    1  A    between atoms: C_4  and  C_5 
REMARK    2  A    between atoms: C_5  and  O_6 
REMARK    3  A    between atoms: C_5  and  C_7 
REMARK    4  A    between atoms: C_9  and  C_10 
REMARK    5  A    between atoms: C_10  and  N_11 
REMARK       I    between atoms: N_11  and  C_12 
REMARK    6  A    between atoms: C_12  and  C_13 
REMARK       I    between atoms: C_13  and  N_14 
REMARK    7  A    between atoms: N_14  and  C_15 
ROOT
HETATM    1  N   UNL     1      22.508  50.238  49.299  1.00  0.00    -0.348 N 
HETATM    2  C   UNL     1      23.468  49.917  48.375  1.00  0.00     0.310 C 
HETATM    3  O   UNL     1      23.504  50.271  47.207  1.00  0.00    -0.262 OA
HETATM    4  H   UNL     1      22.585  49.775  50.201  1.00  0.00     0.163 HD
ENDROOT
BRANCH   2   5
HETATM    5  C   UNL     1      24.556  48.981  48.945  1.00  0.00     0.313 C 
HETATM    6  N   UNL     1      24.025  47.883  49.588  1.00  0.00    -0.319 N 
HETATM    7  H   UNL     1      23.008  47.840  49.581  1.00  0.00     0.169 HD
HETATM    8  O   UNL     1      25.728  49.302  48.799  1.00  0.00    -0.262 OA
BRANCH   6   9
HETATM    9  C   UNL     1      24.725  46.877  50.275  1.00  0.00     0.036 A 
HETATM   10  C   UNL     1      25.203  47.022  51.577  1.00  0.00     0.039 A 
HETATM   11  C   UNL     1      25.850  45.960  52.227  1.00  0.00    -0.028 A 
HETATM   12  C   UNL     1      26.042  44.743  51.564  1.00  0.00     0.050 A 
HETATM   13  C   UNL     1      26.424  46.146  53.601  1.00  0.00     0.050 C 
HETATM   14  N   UNL     1      26.682  43.672  52.243  1.00  0.00    -0.317 N 
HETATM   15  C   UNL     1      25.620  44.607  50.233  1.00  0.00    -0.028 A 
HETATM   16  C   UNL     1      26.903  43.687  53.618  1.00  0.00     0.224 C 
HETATM   17  C   UNL     1      26.967  42.436  51.522  1.00  0.00     0.132 C 
HETATM   18  O   UNL     1      27.440  42.757  54.222  1.00  0.00    -0.273 OA
HETATM   19  C   UNL     1      26.323  44.855  54.381  1.00  0.00     0.108 C 
HETATM   20  C   UNL     1      27.088  42.621  50.018  1.00  0.00     0.025 C 
HETATM   21  C   UNL     1      25.849  43.323  49.485  1.00  0.00     0.042 C 
HETATM   22  C   UNL     1      24.943  45.667  49.607  1.00  0.00     0.039 A 
ENDBRANCH   6   9
ENDBRANCH   2   5
BRANCH   1  23
HETATM   23  C   UNL     1      21.294  50.934  48.959  1.00  0.00     0.169 C 
BRANCH  23  24
HETATM   24  C   UNL     1      20.173  49.951  49.048  1.00  0.00     0.001 A 
HETATM   25  S   UNL     1      19.584  49.190  47.630  1.00  0.00    -0.095 SA
HETATM   26  C   UNL     1      18.509  48.192  48.518  1.00  0.00     0.017 A 
HETATM   27  C   UNL     1      18.565  48.479  49.868  1.00  0.00     0.018 A 
HETATM   28  C   UNL     1      19.516  49.496  50.173  1.00  0.00     0.017 A 
BRANCH  26  29
HETATM   29  C   UNL     1      17.700  47.146  47.798  1.00  0.00     0.198 C 
BRANCH  29  30
HETATM   30  C   UNL     1      16.522  47.703  47.047  1.00  0.00     0.016 A 
HETATM   31  S   UNL     1      16.278  47.262  45.404  1.00  0.00    -0.103 SA
HETATM   32  C   UNL     1      14.859  48.207  45.290  1.00  0.00     0.050 A 
HETATM   33  C   UNL     1      14.569  48.851  46.471  1.00  0.00     0.008 A 
HETATM   34  C   UNL     1      15.527  48.561  47.483  1.00  0.00     0.018 A 
ENDBRANCH  29  30
BRANCH  29  35
HETATM   35  O   UNL     1      17.190  46.268  48.804  1.00  0.00    -0.385 OA
HETATM   36  H   UNL     1      17.163  46.788  49.625  1.00  0.00     0.210 HD
ENDBRANCH  29  35
ENDBRANCH  26  29
ENDBRANCH  23  24
ENDBRANCH   1  23
TORSDOF 7
ENDMDL
