MODEL 1
REMARK VINA RESULT:      -9.5      0.000      0.000
REMARK  6 active torsions:
REMARK  status: ('A' for Active; 'I' for Inactive)
REMARK    1  A    between atoms: O_2  and  C_3 
REMARK    2  A    between atoms: C_5  and  C_6 
REMARK       I    between atoms: C_6  and  N_7 
REMARK    3  A    between atoms: N_7  and  C_8 
REMARK    4  A    between atoms: C_10  and  C_11 
REMARK    5  A    between atoms: C_11  and  C_12 
REMARK    6  A    between atoms: C_12  and  C_13 
ROOT
HETATM    1  C   UNL     1      25.424  46.012  50.597  1.00  0.00     0.725 A 
HETATM    2  N   UNL     1      25.471  45.531  51.815  1.00  0.00    -0.046 NA
HETATM    3  C   UNL     1      26.556  44.687  51.781  1.00  0.00     0.166 A 
HETATM    4  N   UNL     1      27.175  44.617  50.593  1.00  0.00    -0.144 NA
HETATM    5  N   UNL     1      26.438  45.469  49.857  1.00  0.00    -0.106 N 
HETATM    6  H   UNL     1      26.659  45.654  48.883  1.00  0.00     0.208 HD
ENDROOT
BRANCH   1   7
HETATM    7  N   UNL     1      24.505  46.919  50.140  1.00  0.00    -0.152 N 
HETATM    8  C   UNL     1      24.888  48.086  49.516  1.00  0.00     0.270 C 
HETATM    9  O   UNL     1      26.058  48.417  49.334  1.00  0.00    -0.267 OA
HETATM   10  H   UNL     1      23.542  46.701  50.350  1.00  0.00     0.187 HD
BRANCH   8  11
HETATM   11  C   UNL     1      23.784  48.983  49.074  1.00  0.00     0.035 A 
HETATM   12  C   UNL     1      22.477  48.479  49.082  1.00  0.00     0.053 A 
HETATM   13  C   UNL     1      21.402  49.274  48.675  1.00  0.00     0.069 A 
HETATM   14  C   UNL     1      21.640  50.587  48.262  1.00  0.00     0.037 A 
HETATM   15  C   UNL     1      22.939  51.101  48.268  1.00  0.00     0.004 A 
HETATM   16  C   UNL     1      24.011  50.306  48.676  1.00  0.00     0.017 A 
BRANCH  13  17
HETATM   17  O   UNL     1      20.184  48.656  48.723  1.00  0.00    -0.356 OA
HETATM   18  C   UNL     1      19.422  48.819  49.912  1.00  0.00     0.210 C 
ENDBRANCH  13  17
ENDBRANCH   8  11
ENDBRANCH   1   7
BRANCH   3  19
HETATM   19  C   UNL     1      27.012  43.903  52.959  1.00  0.00     0.087 C 
BRANCH  19  20
HETATM   20  C   UNL     1      28.510  44.054  53.230  1.00  0.00     0.048 C 
BRANCH  20  21
HETATM   21  C   UNL     1      28.790  44.792  54.503  1.00  0.00    -0.030 A 
HETATM   22  C   UNL     1      29.752  44.439  55.503  1.00  0.00    -0.002 A 
HETATM   23  C   UNL     1      29.685  45.406  56.507  1.00  0.00     0.042 A 
HETATM   24  C   UNL     1      30.677  43.386  55.646  1.00  0.00     0.014 A 
HETATM   25  C   UNL     1      30.499  45.374  57.646  1.00  0.00     0.030 A 
HETATM   26  N   UNL     1      28.716  46.309  56.135  1.00  0.00    -0.365 N 
HETATM   27  C   UNL     1      31.408  44.318  57.762  1.00  0.00     0.002 A 
HETATM   28  C   UNL     1      31.499  43.337  56.779  1.00  0.00     0.001 A 
HETATM   29  H   UNL     1      28.453  47.119  56.677  1.00  0.00     0.165 HD
HETATM   30  C   UNL     1      28.171  45.950  54.933  1.00  0.00     0.096 A 
ENDBRANCH  20  21
ENDBRANCH  19  20
ENDBRANCH   3  19
TORSDOF 6
ENDMDL
MODEL 2
REMARK VINA RESULT:      -9.3      1.467      2.312
REMARK  6 active torsions:
REMARK  status: ('A' for Active; 'I' for Inactive)
REMARK    1  A    between atoms: O_2  and  C_3 
REMARK    2  A    between atoms: C_5  and  C_6 
REMARK       I    between atoms: C_6  and  N_7 
REMARK    3  A    between atoms: N_7  and  C_8 
REMARK    4  A    between atoms: C_10  and  C_11 
REMARK    5  A    between atoms: C_11  and  C_12 
REMARK    6  A    between atoms: C_12  and  C_13 
ROOT
HETATM    1  C   UNL     1      24.425  47.710  50.066  1.00  0.00     0.725 A 
HETATM    2  N   UNL     1      24.624  46.638  50.794  1.00  0.00    -0.046 NA
HETATM    3  C   UNL     1      25.943  46.334  50.554  1.00  0.00     0.166 A 
HETATM    4  N   UNL     1      26.565  47.162  49.704  1.00  0.00    -0.144 NA
HETATM    5  N   UNL     1      25.581  48.030  49.407  1.00  0.00    -0.106 N 
HETATM    6  H   UNL     1      25.735  48.810  48.776  1.00  0.00     0.208 HD
ENDROOT
BRANCH   1   7
HETATM    7  N   UNL     1      23.246  48.402  49.983  1.00  0.00    -0.152 N 
HETATM    8  C   UNL     1      22.859  49.035  48.823  1.00  0.00     0.270 C 
HETATM    9  O   UNL     1      23.528  49.053  47.791  1.00  0.00    -0.267 OA
HETATM   10  H   UNL     1      22.721  48.464  50.843  1.00  0.00     0.187 HD
BRANCH   8  11
HETATM   11  C   UNL     1      21.554  49.754  48.875  1.00  0.00     0.035 A 
HETATM   12  C   UNL     1      20.430  49.053  49.331  1.00  0.00     0.053 A 
HETATM   13  C   UNL     1      19.180  49.675  49.399  1.00  0.00     0.069 A 
HETATM   14  C   UNL     1      19.058  51.010  49.011  1.00  0.00     0.037 A 
HETATM   15  C   UNL     1      20.179  51.720  48.572  1.00  0.00     0.004 A 
HETATM   16  C   UNL     1      21.427  51.098  48.506  1.00  0.00     0.017 A 
BRANCH  13  17
HETATM   17  O   UNL     1      18.168  48.875  49.853  1.00  0.00    -0.356 OA
HETATM   18  C   UNL     1      17.821  47.753  49.052  1.00  0.00     0.210 C 
ENDBRANCH  13  17
ENDBRANCH   8  11
ENDBRANCH   1   7
BRANCH   3  19
HETATM   19  C   UNL     1      26.634  45.174  51.179  1.00  0.00     0.087 C 
BRANCH  19  20
HETATM   20  C   UNL     1      26.110  44.852  52.579  1.00  0.00     0.048 C 
BRANCH  20  21
HETATM   21  C   UNL     1      27.035  45.321  53.659  1.00  0.00    -0.030 A 
HETATM   22  C   UNL     1      28.196  44.639  54.146  1.00  0.00    -0.002 A 
HETATM   23  C   UNL     1      28.764  45.438  55.140  1.00  0.00     0.042 A 
HETATM   24  C   UNL     1      28.819  43.414  53.832  1.00  0.00     0.014 A 
HETATM   25  C   UNL     1      29.925  45.075  55.833  1.00  0.00     0.030 A 
HETATM   26  N   UNL     1      27.976  46.559  55.256  1.00  0.00    -0.365 N 
HETATM   27  C   UNL     1      30.523  43.855  55.501  1.00  0.00     0.002 A 
HETATM   28  C   UNL     1      29.981  43.035  54.516  1.00  0.00     0.001 A 
HETATM   29  H   UNL     1      28.150  47.315  55.904  1.00  0.00     0.165 HD
HETATM   30  C   UNL     1      26.934  46.500  54.372  1.00  0.00     0.096 A 
ENDBRANCH  20  21
ENDBRANCH  19  20
ENDBRANCH   3  19
TORSDOF 6
ENDMDL
MODEL 3
REMARK VINA RESULT:      -9.1      1.289      1.681
REMARK  6 active torsions:
REMARK  status: ('A' for Active; 'I' for Inactive)
REMARK    1  A    between atoms: O_2  and  C_3 
REMARK    2  A    between atoms: C_5  and  C_6 
REMARK       I    between atoms: C_6  and  N_7 
REMARK    3  A    between atoms: N_7  and  C_8 
REMARK    4  A    between atoms: C_10  and  C_11 
REMARK    5  A    between atoms: C_11  and  C_12 
REMARK    6  A    between atoms: C_12  and  C_13 
ROOT
HETATM    1  C   UNL     1      25.724  46.351  50.452  1.00  0.00     0.725 A 
HETATM    2  N   UNL     1      26.055  46.006  51.672  1.00  0.00    -0.046 NA
HETATM    3  C   UNL     1      26.785  44.855  51.488  1.00  0.00     0.166 A 
HETATM    4  N   UNL     1      26.910  44.468  50.210  1.00  0.00    -0.144 NA
HETATM    5  N   UNL     1      26.228  45.435  49.570  1.00  0.00    -0.106 N 
HETATM    6  H   UNL     1      26.139  45.440  48.559  1.00  0.00     0.208 HD
ENDROOT
BRANCH   1   7
HETATM    7  N   UNL     1      24.990  47.458  50.116  1.00  0.00    -0.152 N 
HETATM    8  C   UNL     1      23.828  47.361  49.383  1.00  0.00     0.270 C 
HETATM    9  O   UNL     1      23.368  46.303  48.959  1.00  0.00    -0.267 OA
HETATM   10  H   UNL     1      25.394  48.342  50.389  1.00  0.00     0.187 HD
BRANCH   8  11
HETATM   11  C   UNL     1      23.134  48.645  49.086  1.00  0.00     0.035 A 
HETATM   12  C   UNL     1      21.736  48.679  49.172  1.00  0.00     0.053 A 
HETATM   13  C   UNL     1      21.031  49.855  48.902  1.00  0.00     0.069 A 
HETATM   14  C   UNL     1      21.734  51.008  48.547  1.00  0.00     0.037 A 
HETATM   15  C   UNL     1      23.130  50.986  48.476  1.00  0.00     0.004 A 
HETATM   16  C   UNL     1      23.832  49.811  48.748  1.00  0.00     0.017 A 
BRANCH  13  17
HETATM   17  O   UNL     1      19.673  49.746  49.015  1.00  0.00    -0.356 OA
HETATM   18  C   UNL     1      19.077  50.271  50.194  1.00  0.00     0.210 C 
ENDBRANCH  13  17
ENDBRANCH   8  11
ENDBRANCH   1   7
BRANCH   3  19
HETATM   19  C   UNL     1      27.388  44.088  52.610  1.00  0.00     0.087 C 
BRANCH  19  20
HETATM   20  C   UNL     1      27.850  44.981  53.762  1.00  0.00     0.048 C 
BRANCH  20  21
HETATM   21  C   UNL     1      29.012  44.399  54.507  1.00  0.00    -0.030 A 
HETATM   22  C   UNL     1      29.506  44.818  55.784  1.00  0.00    -0.002 A 
HETATM   23  C   UNL     1      30.588  43.997  56.103  1.00  0.00     0.042 A 
HETATM   24  C   UNL     1      29.130  45.821  56.701  1.00  0.00     0.014 A 
HETATM   25  C   UNL     1      31.312  44.126  57.295  1.00  0.00     0.030 A 
HETATM   26  N   UNL     1      30.749  43.117  55.059  1.00  0.00    -0.365 N 
HETATM   27  C   UNL     1      30.917  45.128  58.187  1.00  0.00     0.002 A 
HETATM   28  C   UNL     1      29.843  45.965  57.897  1.00  0.00     0.001 A 
HETATM   29  H   UNL     1      31.463  42.403  55.020  1.00  0.00     0.165 HD
HETATM   30  C   UNL     1      29.808  43.349  54.093  1.00  0.00     0.096 A 
ENDBRANCH  20  21
ENDBRANCH  19  20
ENDBRANCH   3  19
TORSDOF 6
ENDMDL
MODEL 4
REMARK VINA RESULT:      -8.9      2.719     10.386
REMARK  6 active torsions:
REMARK  status: ('A' for Active; 'I' for Inactive)
REMARK    1  A    between atoms: O_2  and  C_3 
REMARK    2  A    between atoms: C_5  and  C_6 
REMARK       I    between atoms: C_6  and  N_7 
REMARK    3  A    between atoms: N_7  and  C_8 
REMARK    4  A    between atoms: C_10  and  C_11 
REMARK    5  A    between atoms: C_11  and  C_12 
REMARK    6  A    between atoms: C_12  and  C_13 
ROOT
HETATM    1  C   UNL     1      24.808  46.908  50.726  1.00  0.00     0.725 A 
HETATM    2  N   UNL     1      24.477  48.087  50.261  1.00  0.00    -0.046 NA
HETATM    3  C   UNL     1      23.475  47.803  49.363  1.00  0.00     0.166 A 
HETATM    4  N   UNL     1      23.180  46.500  49.244  1.00  0.00    -0.144 NA
HETATM    5  N   UNL     1      24.040  45.951  50.121  1.00  0.00    -0.106 N 
HETATM    6  H   UNL     1      24.065  44.948  50.281  1.00  0.00     0.208 HD
ENDROOT
BRANCH   1   7
HETATM    7  N   UNL     1      25.771  46.673  51.672  1.00  0.00    -0.152 N 
HETATM    8  C   UNL     1      25.666  45.632  52.568  1.00  0.00     0.270 C 
HETATM    9  O   UNL     1      24.716  44.853  52.610  1.00  0.00    -0.267 OA
HETATM   10  H   UNL     1      26.519  47.350  51.703  1.00  0.00     0.187 HD
BRANCH   8  11
HETATM   11  C   UNL     1      26.783  45.496  53.545  1.00  0.00     0.035 A 
HETATM   12  C   UNL     1      27.465  44.274  53.607  1.00  0.00     0.053 A 
HETATM   13  C   UNL     1      28.519  44.088  54.505  1.00  0.00     0.069 A 
HETATM   14  C   UNL     1      28.895  45.138  55.345  1.00  0.00     0.037 A 
HETATM   15  C   UNL     1      28.231  46.366  55.276  1.00  0.00     0.004 A 
HETATM   16  C   UNL     1      27.180  46.550  54.377  1.00  0.00     0.017 A 
BRANCH  13  17
HETATM   17  O   UNL     1      29.090  42.847  54.468  1.00  0.00    -0.356 OA
HETATM   18  C   UNL     1      28.494  41.886  53.605  1.00  0.00     0.210 C 
ENDBRANCH  13  17
ENDBRANCH   8  11
ENDBRANCH   1   7
BRANCH   3  19
HETATM   19  C   UNL     1      22.771  48.849  48.574  1.00  0.00     0.087 C 
BRANCH  19  20
HETATM   20  C   UNL     1      21.476  48.343  47.936  1.00  0.00     0.048 C 
BRANCH  20  21
HETATM   21  C   UNL     1      20.260  48.761  48.704  1.00  0.00    -0.030 A 
HETATM   22  C   UNL     1      19.702  50.078  48.772  1.00  0.00    -0.002 A 
HETATM   23  C   UNL     1      18.570  50.012  49.586  1.00  0.00     0.042 A 
HETATM   24  C   UNL     1      20.054  51.323  48.213  1.00  0.00     0.014 A 
HETATM   25  C   UNL     1      17.772  51.127  49.867  1.00  0.00     0.030 A 
HETATM   26  N   UNL     1      18.448  48.706  50.001  1.00  0.00    -0.365 N 
HETATM   27  C   UNL     1      18.144  52.349  49.299  1.00  0.00     0.002 A 
HETATM   28  C   UNL     1      19.268  52.450  48.484  1.00  0.00     0.001 A 
HETATM   29  H   UNL     1      17.713  48.366  50.605  1.00  0.00     0.165 HD
HETATM   30  C   UNL     1      19.458  47.946  49.478  1.00  0.00     0.096 A 
ENDBRANCH  20  21
ENDBRANCH  19  20
ENDBRANCH   3  19
TORSDOF 6
ENDMDL
MODEL 5
REMARK VINA RESULT:      -8.8      4.640      7.874
REMARK  6 active torsions:
REMARK  status: ('A' for Active; 'I' for Inactive)
REMARK    1  A    between atoms: O_2  and  C_3 
REMARK    2  A    between atoms: C_5  and  C_6 
REMARK       I    between atoms: C_6  and  N_7 
REMARK    3  A    between atoms: N_7  and  C_8 
REMARK    4  A    between atoms: C_10  and  C_11 
REMARK    5  A    between atoms: C_11  and  C_12 
REMARK    6  A    between atoms: C_12  and  C_13 
ROOT
HETATM    1  C   UNL     1      26.008  42.969  50.921  1.00  0.00     0.725 A 
HETATM    2  N   UNL     1      26.598  44.050  51.367  1.00  0.00    -0.046 NA
HETATM    3  C   UNL     1      25.593  44.703  52.041  1.00  0.00     0.166 A 
HETATM    4  N   UNL     1      24.406  44.079  52.022  1.00  0.00    -0.144 NA
HETATM    5  N   UNL     1      24.695  42.978  51.305  1.00  0.00    -0.106 N 
HETATM    6  H   UNL     1      23.991  42.272  51.112  1.00  0.00     0.208 HD
ENDROOT
BRANCH   1   7
HETATM    7  N   UNL     1      26.614  41.983  50.187  1.00  0.00    -0.152 N 
HETATM    8  C   UNL     1      27.331  40.971  50.788  1.00  0.00     0.270 C 
HETATM    9  O   UNL     1      27.501  40.876  52.002  1.00  0.00    -0.267 OA
HETATM   10  H   UNL     1      26.550  42.090  49.186  1.00  0.00     0.187 HD
BRANCH   8  11
HETATM   11  C   UNL     1      27.941  39.969  49.870  1.00  0.00     0.035 A 
HETATM   12  C   UNL     1      28.836  39.036  50.408  1.00  0.00     0.053 A 
HETATM   13  C   UNL     1      29.441  38.074  49.594  1.00  0.00     0.069 A 
HETATM   14  C   UNL     1      29.141  38.045  48.231  1.00  0.00     0.037 A 
HETATM   15  C   UNL     1      28.235  38.961  47.691  1.00  0.00     0.004 A 
HETATM   16  C   UNL     1      27.631  39.920  48.506  1.00  0.00     0.017 A 
BRANCH  13  17
HETATM   17  O   UNL     1      30.300  37.233  50.245  1.00  0.00    -0.356 OA
HETATM   18  C   UNL     1      29.956  36.859  51.573  1.00  0.00     0.210 C 
ENDBRANCH  13  17
ENDBRANCH   8  11
ENDBRANCH   1   7
BRANCH   3  19
HETATM   19  C   UNL     1      25.793  46.003  52.735  1.00  0.00     0.087 C 
BRANCH  19  20
HETATM   20  C   UNL     1      25.798  45.870  54.259  1.00  0.00     0.048 C 
BRANCH  20  21
HETATM   21  C   UNL     1      27.181  45.896  54.831  1.00  0.00    -0.030 A 
HETATM   22  C   UNL     1      28.136  44.829  54.810  1.00  0.00    -0.002 A 
HETATM   23  C   UNL     1      29.292  45.290  55.443  1.00  0.00     0.042 A 
HETATM   24  C   UNL     1      28.124  43.512  54.309  1.00  0.00     0.014 A 
HETATM   25  C   UNL     1      30.438  44.500  55.596  1.00  0.00     0.030 A 
HETATM   26  N   UNL     1      29.048  46.585  55.837  1.00  0.00    -0.365 N 
HETATM   27  C   UNL     1      30.399  43.197  55.089  1.00  0.00     0.002 A 
HETATM   28  C   UNL     1      29.261  42.707  54.455  1.00  0.00     0.001 A 
HETATM   29  H   UNL     1      29.714  47.168  56.322  1.00  0.00     0.165 HD
HETATM   30  C   UNL     1      27.783  46.960  55.476  1.00  0.00     0.096 A 
ENDBRANCH  20  21
ENDBRANCH  19  20
ENDBRANCH   3  19
TORSDOF 6
ENDMDL
MODEL 6
REMARK VINA RESULT:      -8.8      1.962      2.974
REMARK  6 active torsions:
REMARK  status: ('A' for Active; 'I' for Inactive)
REMARK    1  A    between atoms: O_2  and  C_3 
REMARK    2  A    between atoms: C_5  and  C_6 
REMARK       I    between atoms: C_6  and  N_7 
REMARK    3  A    between atoms: N_7  and  C_8 
REMARK    4  A    between atoms: C_10  and  C_11 
REMARK    5  A    between atoms: C_11  and  C_12 
REMARK    6  A    between atoms: C_12  and  C_13 
ROOT
HETATM    1  C   UNL     1      24.466  47.906  50.122  1.00  0.00     0.725 A 
HETATM    2  N   UNL     1      24.612  47.500  51.360  1.00  0.00    -0.046 NA
HETATM    3  C   UNL     1      25.967  47.289  51.465  1.00  0.00     0.166 A 
HETATM    4  N   UNL     1      26.662  47.536  50.346  1.00  0.00    -0.144 NA
HETATM    5  N   UNL     1      25.687  47.928  49.506  1.00  0.00    -0.106 N 
HETATM    6  H   UNL     1      25.891  48.204  48.550  1.00  0.00     0.208 HD
ENDROOT
BRANCH   1   7
HETATM    7  N   UNL     1      23.276  48.256  49.541  1.00  0.00    -0.152 N 
HETATM    8  C   UNL     1      23.029  49.544  49.117  1.00  0.00     0.270 C 
HETATM    9  O   UNL     1      23.825  50.473  49.238  1.00  0.00    -0.267 OA
HETATM   10  H   UNL     1      22.581  47.524  49.505  1.00  0.00     0.187 HD
BRANCH   8  11
HETATM   11  C   UNL     1      21.691  49.785  48.507  1.00  0.00     0.035 A 
HETATM   12  C   UNL     1      21.059  51.009  48.758  1.00  0.00     0.053 A 
HETATM   13  C   UNL     1      19.803  51.290  48.214  1.00  0.00     0.069 A 
HETATM   14  C   UNL     1      19.178  50.337  47.407  1.00  0.00     0.037 A 
HETATM   15  C   UNL     1      19.811  49.120  47.138  1.00  0.00     0.004 A 
HETATM   16  C   UNL     1      21.066  48.842  47.681  1.00  0.00     0.017 A 
BRANCH  13  17
HETATM   17  O   UNL     1      19.297  52.516  48.545  1.00  0.00    -0.356 OA
HETATM   18  C   UNL     1      18.096  52.536  49.305  1.00  0.00     0.210 C 
ENDBRANCH  13  17
ENDBRANCH   8  11
ENDBRANCH   1   7
BRANCH   3  19
HETATM   19  C   UNL     1      26.619  46.817  52.715  1.00  0.00     0.087 C 
BRANCH  19  20
HETATM   20  C   UNL     1      26.098  45.457  53.183  1.00  0.00     0.048 C 
BRANCH  20  21
HETATM   21  C   UNL     1      27.198  44.460  53.379  1.00  0.00    -0.030 A 
HETATM   22  C   UNL     1      28.300  44.570  54.287  1.00  0.00    -0.002 A 
HETATM   23  C   UNL     1      29.072  43.415  54.150  1.00  0.00     0.042 A 
HETATM   24  C   UNL     1      28.713  45.546  55.216  1.00  0.00     0.014 A 
HETATM   25  C   UNL     1      30.233  43.186  54.898  1.00  0.00     0.030 A 
HETATM   26  N   UNL     1      28.465  42.636  53.192  1.00  0.00    -0.365 N 
HETATM   27  C   UNL     1      30.619  44.171  55.812  1.00  0.00     0.002 A 
HETATM   28  C   UNL     1      29.872  45.335  55.972  1.00  0.00     0.001 A 
HETATM   29  H   UNL     1      28.808  41.736  52.888  1.00  0.00     0.165 HD
HETATM   30  C   UNL     1      27.339  43.253  52.722  1.00  0.00     0.096 A 
ENDBRANCH  20  21
ENDBRANCH  19  20
ENDBRANCH   3  19
TORSDOF 6
ENDMDL
MODEL 7
REMARK VINA RESULT:      -8.7      2.930      9.909
REMARK  6 active torsions:
REMARK  status: ('A' for Active; 'I' for Inactive)
REMARK    1  A    between atoms: O_2  and  C_3 
REMARK    2  A    between atoms: C_5  and  C_6 
REMARK       I    between atoms: C_6  and  N_7 
REMARK    3  A    between atoms: N_7  and  C_8 
REMARK    4  A    between atoms: C_10  and  C_11 
REMARK    5  A    between atoms: C_11  and  C_12 
REMARK    6  A    between atoms: C_12  and  C_13 
ROOT
HETATM    1  C   UNL     1      25.363  43.982  51.848  1.00  0.00     0.725 A 
HETATM    2  N   UNL     1      24.856  44.891  51.052  1.00  0.00    -0.046 NA
HETATM    3  C   UNL     1      23.854  44.214  50.397  1.00  0.00     0.166 A 
HETATM    4  N   UNL     1      23.728  42.925  50.744  1.00  0.00    -0.144 NA
HETATM    5  N   UNL     1      24.697  42.801  51.669  1.00  0.00    -0.106 N 
HETATM    6  H   UNL     1      24.862  41.921  52.148  1.00  0.00     0.208 HD
ENDROOT
BRANCH   1   7
HETATM    7  N   UNL     1      26.397  44.187  52.723  1.00  0.00    -0.152 N 
HETATM    8  C   UNL     1      27.421  43.276  52.860  1.00  0.00     0.270 C 
HETATM    9  O   UNL     1      27.487  42.217  52.238  1.00  0.00    -0.267 OA
HETATM   10  H   UNL     1      26.318  45.013  53.298  1.00  0.00     0.187 HD
BRANCH   8  11
HETATM   11  C   UNL     1      28.477  43.624  53.851  1.00  0.00     0.035 A 
HETATM   12  C   UNL     1      28.254  44.714  54.701  1.00  0.00     0.053 A 
HETATM   13  C   UNL     1      29.211  45.089  55.649  1.00  0.00     0.069 A 
HETATM   14  C   UNL     1      30.398  44.360  55.748  1.00  0.00     0.037 A 
HETATM   15  C   UNL     1      30.619  43.260  54.915  1.00  0.00     0.004 A 
HETATM   16  C   UNL     1      29.661  42.887  53.970  1.00  0.00     0.017 A 
BRANCH  13  17
HETATM   17  O   UNL     1      28.871  46.175  56.406  1.00  0.00    -0.356 OA
HETATM   18  C   UNL     1      29.168  46.114  57.795  1.00  0.00     0.210 C 
ENDBRANCH  13  17
ENDBRANCH   8  11
ENDBRANCH   1   7
BRANCH   3  19
HETATM   19  C   UNL     1      22.978  44.849  49.376  1.00  0.00     0.087 C 
BRANCH  19  20
HETATM   20  C   UNL     1      23.396  46.281  49.040  1.00  0.00     0.048 C 
BRANCH  20  21
HETATM   21  C   UNL     1      22.232  47.144  48.665  1.00  0.00    -0.030 A 
HETATM   22  C   UNL     1      22.193  48.575  48.661  1.00  0.00    -0.002 A 
HETATM   23  C   UNL     1      20.921  48.958  48.235  1.00  0.00     0.042 A 
HETATM   24  C   UNL     1      23.126  49.583  48.981  1.00  0.00     0.014 A 
HETATM   25  C   UNL     1      20.535  50.299  48.109  1.00  0.00     0.030 A 
HETATM   26  N   UNL     1      20.212  47.805  47.993  1.00  0.00    -0.365 N 
HETATM   27  C   UNL     1      21.480  51.277  48.432  1.00  0.00     0.002 A 
HETATM   28  C   UNL     1      22.757  50.928  48.862  1.00  0.00     0.001 A 
HETATM   29  H   UNL     1      19.255  47.781  47.670  1.00  0.00     0.165 HD
HETATM   30  C   UNL     1      20.989  46.708  48.248  1.00  0.00     0.096 A 
ENDBRANCH  20  21
ENDBRANCH  19  20
ENDBRANCH   3  19
TORSDOF 6
ENDMDL
MODEL 8
REMARK VINA RESULT:      -8.6      2.241      3.529
REMARK  6 active torsions:
REMARK  status: ('A' for Active; 'I' for Inactive)
REMARK    1  A    between atoms: O_2  and  C_3 
REMARK    2  A    between atoms: C_5  and  C_6 
REMARK       I    between atoms: C_6  and  N_7 
REMARK    3  A    between atoms: N_7  and  C_8 
REMARK    4  A    between atoms: C_10  and  C_11 
REMARK    5  A    between atoms: C_11  and  C_12 
REMARK    6  A    between atoms: C_12  and  C_13 
ROOT
HETATM    1  C   UNL     1      24.286  48.214  49.538  1.00  0.00     0.725 A 
HETATM    2  N   UNL     1      24.443  46.985  49.967  1.00  0.00    -0.046 NA
HETATM    3  C   UNL     1      25.793  46.770  49.824  1.00  0.00     0.166 A 
HETATM    4  N   UNL     1      26.476  47.806  49.317  1.00  0.00    -0.144 NA
HETATM    5  N   UNL     1      25.497  48.713  49.144  1.00  0.00    -0.106 N 
HETATM    6  H   UNL     1      25.692  49.638  48.774  1.00  0.00     0.208 HD
ENDROOT
BRANCH   1   7
HETATM    7  N   UNL     1      23.096  48.891  49.497  1.00  0.00    -0.152 N 
HETATM    8  C   UNL     1      22.745  49.670  48.416  1.00  0.00     0.270 C 
HETATM    9  O   UNL     1      23.456  49.839  47.428  1.00  0.00    -0.267 OA
HETATM   10  H   UNL     1      22.534  48.826  50.332  1.00  0.00     0.187 HD
BRANCH   8  11
HETATM   11  C   UNL     1      21.423  50.353  48.506  1.00  0.00     0.035 A 
HETATM   12  C   UNL     1      20.592  50.340  47.379  1.00  0.00     0.053 A 
HETATM   13  C   UNL     1      19.343  50.966  47.404  1.00  0.00     0.069 A 
HETATM   14  C   UNL     1      18.923  51.606  48.571  1.00  0.00     0.037 A 
HETATM   15  C   UNL     1      19.739  51.608  49.705  1.00  0.00     0.004 A 
HETATM   16  C   UNL     1      20.985  50.981  49.678  1.00  0.00     0.017 A 
BRANCH  13  17
HETATM   17  O   UNL     1      18.640  50.885  46.235  1.00  0.00    -0.356 OA
HETATM   18  C   UNL     1      17.265  50.535  46.330  1.00  0.00     0.210 C 
ENDBRANCH  13  17
ENDBRANCH   8  11
ENDBRANCH   1   7
BRANCH   3  19
HETATM   19  C   UNL     1      26.454  45.490  50.193  1.00  0.00     0.087 C 
BRANCH  19  20
HETATM   20  C   UNL     1      25.767  44.780  51.361  1.00  0.00     0.048 C 
BRANCH  20  21
HETATM   21  C   UNL     1      26.707  44.499  52.492  1.00  0.00    -0.030 A 
HETATM   22  C   UNL     1      27.133  45.423  53.500  1.00  0.00    -0.002 A 
HETATM   23  C   UNL     1      27.995  44.738  54.358  1.00  0.00     0.042 A 
HETATM   24  C   UNL     1      26.862  46.781  53.764  1.00  0.00     0.014 A 
HETATM   25  C   UNL     1      28.598  45.342  55.468  1.00  0.00     0.030 A 
HETATM   26  N   UNL     1      28.094  43.450  53.887  1.00  0.00    -0.365 N 
HETATM   27  C   UNL     1      28.311  46.690  55.707  1.00  0.00     0.002 A 
HETATM   28  C   UNL     1      27.457  47.402  54.869  1.00  0.00     0.001 A 
HETATM   29  H   UNL     1      28.655  42.727  54.315  1.00  0.00     0.165 HD
HETATM   30  C   UNL     1      27.325  43.294  52.766  1.00  0.00     0.096 A 
ENDBRANCH  20  21
ENDBRANCH  19  20
ENDBRANCH   3  19
TORSDOF 6
ENDMDL
MODEL 9
REMARK VINA RESULT:      -8.4      3.243     11.078
REMARK  6 active torsions:
REMARK  status: ('A' for Active; 'I' for Inactive)
REMARK    1  A    between atoms: O_2  and  C_3 
REMARK    2  A    between atoms: C_5  and  C_6 
REMARK       I    between atoms: C_6  and  N_7 
REMARK    3  A    between atoms: N_7  and  C_8 
REMARK    4  A    between atoms: C_10  and  C_11 
REMARK    5  A    between atoms: C_11  and  C_12 
REMARK    6  A    between atoms: C_12  and  C_13 
ROOT
HETATM    1  C   UNL     1      23.693  48.532  49.410  1.00  0.00     0.725 A 
HETATM    2  N   UNL     1      22.587  49.234  49.389  1.00  0.00    -0.046 NA
HETATM    3  C   UNL     1      22.732  50.017  48.268  1.00  0.00     0.166 A 
HETATM    4  N   UNL     1      23.882  49.839  47.603  1.00  0.00    -0.144 NA
HETATM    5  N   UNL     1      24.477  48.889  48.348  1.00  0.00    -0.106 N 
HETATM    6  H   UNL     1      25.387  48.514  48.099  1.00  0.00     0.208 HD
ENDROOT
BRANCH   1   7
HETATM    7  N   UNL     1      24.011  47.586  50.350  1.00  0.00    -0.152 N 
HETATM    8  C   UNL     1      25.297  47.436  50.819  1.00  0.00     0.270 C 
HETATM    9  O   UNL     1      26.253  48.105  50.433  1.00  0.00    -0.267 OA
HETATM   10  H   UNL     1      23.254  46.976  50.620  1.00  0.00     0.187 HD
BRANCH   8  11
HETATM   11  C   UNL     1      25.501  46.366  51.836  1.00  0.00     0.035 A 
HETATM   12  C   UNL     1      26.238  46.676  52.986  1.00  0.00     0.053 A 
HETATM   13  C   UNL     1      26.463  45.712  53.972  1.00  0.00     0.069 A 
HETATM   14  C   UNL     1      25.940  44.428  53.806  1.00  0.00     0.037 A 
HETATM   15  C   UNL     1      25.188  44.117  52.669  1.00  0.00     0.004 A 
HETATM   16  C   UNL     1      24.964  45.082  51.686  1.00  0.00     0.017 A 
BRANCH  13  17
HETATM   17  O   UNL     1      27.204  46.145  55.036  1.00  0.00    -0.356 OA
HETATM   18  C   UNL     1      28.401  45.433  55.323  1.00  0.00     0.210 C 
ENDBRANCH  13  17
ENDBRANCH   8  11
ENDBRANCH   1   7
BRANCH   3  19
HETATM   19  C   UNL     1      21.703  50.995  47.823  1.00  0.00     0.087 C 
BRANCH  19  20
HETATM   20  C   UNL     1      20.674  51.313  48.909  1.00  0.00     0.048 C 
BRANCH  20  21
HETATM   21  C   UNL     1      19.295  50.861  48.541  1.00  0.00    -0.030 A 
HETATM   22  C   UNL     1      18.061  51.462  48.946  1.00  0.00    -0.002 A 
HETATM   23  C   UNL     1      17.027  50.726  48.366  1.00  0.00     0.042 A 
HETATM   24  C   UNL     1      17.727  52.568  49.754  1.00  0.00     0.014 A 
HETATM   25  C   UNL     1      15.675  51.042  48.550  1.00  0.00     0.030 A 
HETATM   26  N   UNL     1      17.610  49.714  47.639  1.00  0.00    -0.365 N 
HETATM   27  C   UNL     1      15.372  52.145  49.355  1.00  0.00     0.002 A 
HETATM   28  C   UNL     1      16.380  52.898  49.950  1.00  0.00     0.001 A 
HETATM   29  H   UNL     1      17.097  49.023  47.110  1.00  0.00     0.165 HD
HETATM   30  C   UNL     1      18.972  49.784  47.737  1.00  0.00     0.096 A 
ENDBRANCH  20  21
ENDBRANCH  19  20
ENDBRANCH   3  19
TORSDOF 6
ENDMDL
MODEL 10
REMARK VINA RESULT:      -8.2      2.350      3.254
REMARK  6 active torsions:
REMARK  status: ('A' for Active; 'I' for Inactive)
REMARK    1  A    between atoms: O_2  and  C_3 
REMARK    2  A    between atoms: C_5  and  C_6 
REMARK       I    between atoms: C_6  and  N_7 
REMARK    3  A    between atoms: N_7  and  C_8 
REMARK    4  A    between atoms: C_10  and  C_11 
REMARK    5  A    between atoms: C_11  and  C_12 
REMARK    6  A    between atoms: C_12  and  C_13 
ROOT
HETATM    1  C   UNL     1      24.500  46.861  50.304  1.00  0.00     0.725 A 
HETATM    2  N   UNL     1      24.709  46.538  51.557  1.00  0.00    -0.046 NA
HETATM    3  C   UNL     1      25.898  47.162  51.850  1.00  0.00     0.166 A 
HETATM    4  N   UNL     1      26.439  47.847  50.833  1.00  0.00    -0.144 NA
HETATM    5  N   UNL     1      25.531  47.642  49.861  1.00  0.00    -0.106 N 
HETATM    6  H   UNL     1      25.645  48.048  48.937  1.00  0.00     0.208 HD
ENDROOT
BRANCH   1   7
HETATM    7  N   UNL     1      23.416  46.478  49.560  1.00  0.00    -0.152 N 
HETATM    8  C   UNL     1      22.731  47.372  48.766  1.00  0.00     0.270 C 
HETATM    9  O   UNL     1      23.013  48.565  48.672  1.00  0.00    -0.267 OA
HETATM   10  H   UNL     1      23.123  45.521  49.685  1.00  0.00     0.187 HD
BRANCH   8  11
HETATM   11  C   UNL     1      21.569  46.821  48.013  1.00  0.00     0.035 A 
HETATM   12  C   UNL     1      20.292  46.958  48.573  1.00  0.00     0.053 A 
HETATM   13  C   UNL     1      19.166  46.458  47.914  1.00  0.00     0.069 A 
HETATM   14  C   UNL     1      19.321  45.820  46.682  1.00  0.00     0.037 A 
HETATM   15  C   UNL     1      20.590  45.696  46.109  1.00  0.00     0.004 A 
HETATM   16  C   UNL     1      21.714  46.197  46.769  1.00  0.00     0.017 A 
BRANCH  13  17
HETATM   17  O   UNL     1      17.985  46.651  48.574  1.00  0.00    -0.356 OA
HETATM   18  C   UNL     1      16.891  47.146  47.813  1.00  0.00     0.210 C 
ENDBRANCH  13  17
ENDBRANCH   8  11
ENDBRANCH   1   7
BRANCH   3  19
HETATM   19  C   UNL     1      26.547  47.085  53.186  1.00  0.00     0.087 C 
BRANCH  19  20
HETATM   20  C   UNL     1      26.122  45.851  53.985  1.00  0.00     0.048 C 
BRANCH  20  21
HETATM   21  C   UNL     1      27.156  44.768  53.958  1.00  0.00    -0.030 A 
HETATM   22  C   UNL     1      28.381  44.737  54.697  1.00  0.00    -0.002 A 
HETATM   23  C   UNL     1      29.031  43.543  54.380  1.00  0.00     0.042 A 
HETATM   24  C   UNL     1      28.999  45.616  55.611  1.00  0.00     0.014 A 
HETATM   25  C   UNL     1      30.266  43.182  54.933  1.00  0.00     0.030 A 
HETATM   26  N   UNL     1      28.234  42.877  53.479  1.00  0.00    -0.365 N 
HETATM   27  C   UNL     1      30.855  44.071  55.837  1.00  0.00     0.002 A 
HETATM   28  C   UNL     1      30.234  45.271  56.173  1.00  0.00     0.001 A 
HETATM   29  H   UNL     1      28.458  41.979  53.075  1.00  0.00     0.165 HD
HETATM   30  C   UNL     1      27.105  43.603  53.217  1.00  0.00     0.096 A 
ENDBRANCH  20  21
ENDBRANCH  19  20
ENDBRANCH   3  19
TORSDOF 6
ENDMDL
