MODEL 1
REMARK VINA RESULT:     -10.1      0.000      0.000
REMARK  6 active torsions:
REMARK  status: ('A' for Active; 'I' for Inactive)
REMARK    1  A    between atoms: N_7  and  C_8 
REMARK    2  A    between atoms: C_8  and  C_9 
REMARK    3  A    between atoms: C_9  and  N_10 
REMARK    4  A    between atoms: C_17  and  C_18 
REMARK    5  A    between atoms: C_18  and  N_19 
REMARK       I    between atoms: N_19  and  C_20 
REMARK    6  A    between atoms: C_20  and  C_21 
ROOT
HETATM    1  C   UNL     1      27.598  48.876  49.301  1.00  0.00     0.001 A 
HETATM    2  C   UNL     1      26.611  47.947  49.645  1.00  0.00     0.014 A 
HETATM    3  C   UNL     1      25.281  48.167  49.270  1.00  0.00     0.008 A 
HETATM    4  C   UNL     1      24.951  49.311  48.546  1.00  0.00     0.046 A 
HETATM    5  C   UNL     1      23.554  49.532  48.127  1.00  0.00     0.274 A 
HETATM    6  O   UNL     1      23.255  50.501  47.435  1.00  0.00    -0.266 OA
HETATM    7  N   UNL     1      22.623  48.590  48.553  1.00  0.00    -0.232 N 
HETATM    8  N   UNL     1      22.942  47.460  49.246  1.00  0.00    -0.172 NA
HETATM    9  C   UNL     1      24.175  47.238  49.595  1.00  0.00     0.084 A 
HETATM   10  C   UNL     1      25.940  50.241  48.201  1.00  0.00     0.018 A 
HETATM   11  C   UNL     1      27.262  50.022  48.582  1.00  0.00     0.001 A 
ENDROOT
BRANCH   9  12
HETATM   12  C   UNL     1      24.457  45.943  50.351  1.00  0.00     0.185 C 
BRANCH  12  13
HETATM   13  N   UNL     1      25.405  46.198  51.415  1.00  0.00    -0.351 N 
HETATM   14  C   UNL     1      25.375  45.503  52.604  1.00  0.00     0.253 C 
HETATM   15  O   UNL     1      24.629  44.545  52.793  1.00  0.00    -0.268 OA
HETATM   16  H   UNL     1      26.065  46.959  51.311  1.00  0.00     0.163 HD
BRANCH  14  17
HETATM   17  C   UNL     1      26.355  45.910  53.658  1.00  0.00     0.048 A 
HETATM   18  C   UNL     1      27.430  45.143  54.141  1.00  0.00     0.022 A 
HETATM   19  I   UNL     1      28.002  43.254  53.409  1.00  0.00    -0.043 I 
HETATM   20  C   UNL     1      28.258  45.660  55.152  1.00  0.00     0.019 A 
HETATM   21  C   UNL     1      28.039  46.936  55.670  1.00  0.00     0.001 A 
HETATM   22  C   UNL     1      26.994  47.711  55.182  1.00  0.00     0.001 A 
HETATM   23  C   UNL     1      26.161  47.202  54.184  1.00  0.00     0.018 A 
ENDBRANCH  14  17
ENDBRANCH  12  13
ENDBRANCH   9  12
BRANCH   7  24
HETATM   24  C   UNL     1      21.257  48.675  48.053  1.00  0.00     0.182 C 
BRANCH  24  25
HETATM   25  C   UNL     1      20.201  48.709  49.164  1.00  0.00     0.256 C 
BRANCH  25  26
HETATM   26  N   UNL     1      19.139  49.765  48.903  1.00  0.00    -0.070 N 
HETATM   27  H   UNL     1      18.296  49.286  48.558  1.00  0.00     0.279 HD
HETATM   28  C   UNL     1      19.560  50.761  47.833  1.00  0.00     0.235 C 
HETATM   29  C   UNL     1      19.730  52.070  48.577  1.00  0.00     0.029 C 
HETATM   30  C   UNL     1      18.658  51.996  49.643  1.00  0.00     0.029 C 
HETATM   31  C   UNL     1      18.770  50.569  50.139  1.00  0.00     0.235 C 
ENDBRANCH  25  26
ENDBRANCH  24  25
ENDBRANCH   7  24
TORSDOF 6
ENDMDL
MODEL 2
REMARK VINA RESULT:     -10.0      4.731      8.391
REMARK  6 active torsions:
REMARK  status: ('A' for Active; 'I' for Inactive)
REMARK    1  A    between atoms: N_7  and  C_8 
REMARK    2  A    between atoms: C_8  and  C_9 
REMARK    3  A    between atoms: C_9  and  N_10 
REMARK    4  A    between atoms: C_17  and  C_18 
REMARK    5  A    between atoms: C_18  and  N_19 
REMARK       I    between atoms: N_19  and  C_20 
REMARK    6  A    between atoms: C_20  and  C_21 
ROOT
HETATM    1  C   UNL     1      31.809  43.767  57.353  1.00  0.00     0.001 A 
HETATM    2  C   UNL     1      31.317  43.405  56.095  1.00  0.00     0.014 A 
HETATM    3  C   UNL     1      30.213  44.075  55.557  1.00  0.00     0.008 A 
HETATM    4  C   UNL     1      29.615  45.107  56.279  1.00  0.00     0.046 A 
HETATM    5  C   UNL     1      28.466  45.831  55.702  1.00  0.00     0.274 A 
HETATM    6  O   UNL     1      27.966  46.783  56.295  1.00  0.00    -0.266 OA
HETATM    7  N   UNL     1      28.002  45.378  54.471  1.00  0.00    -0.232 N 
HETATM    8  N   UNL     1      28.594  44.382  53.752  1.00  0.00    -0.172 NA
HETATM    9  C   UNL     1      29.626  43.756  54.235  1.00  0.00     0.084 A 
HETATM   10  C   UNL     1      30.109  45.468  57.538  1.00  0.00     0.018 A 
HETATM   11  C   UNL     1      31.205  44.796  58.074  1.00  0.00     0.001 A 
ENDROOT
BRANCH   9  12
HETATM   12  C   UNL     1      30.245  42.667  53.364  1.00  0.00     0.185 C 
BRANCH  12  13
HETATM   13  N   UNL     1      29.322  42.308  52.307  1.00  0.00    -0.351 N 
HETATM   14  C   UNL     1      28.583  41.146  52.344  1.00  0.00     0.253 C 
HETATM   15  O   UNL     1      28.564  40.403  53.322  1.00  0.00    -0.268 OA
HETATM   16  H   UNL     1      29.270  42.893  51.482  1.00  0.00     0.163 HD
BRANCH  14  17
HETATM   17  C   UNL     1      27.723  40.845  51.158  1.00  0.00     0.048 A 
HETATM   18  C   UNL     1      27.922  39.817  50.220  1.00  0.00     0.022 A 
HETATM   19  I   UNL     1      29.435  38.357  50.320  1.00  0.00    -0.043 I 
HETATM   20  C   UNL     1      27.031  39.671  49.144  1.00  0.00     0.019 A 
HETATM   21  C   UNL     1      25.935  40.523  49.004  1.00  0.00     0.001 A 
HETATM   22  C   UNL     1      25.716  41.527  49.939  1.00  0.00     0.001 A 
HETATM   23  C   UNL     1      26.601  41.685  51.007  1.00  0.00     0.018 A 
ENDBRANCH  14  17
ENDBRANCH  12  13
ENDBRANCH   9  12
BRANCH   7  24
HETATM   24  C   UNL     1      26.967  46.140  53.785  1.00  0.00     0.182 C 
BRANCH  24  25
HETATM   25  C   UNL     1      25.985  45.265  52.997  1.00  0.00     0.256 C 
BRANCH  25  26
HETATM   26  N   UNL     1      25.184  46.078  51.994  1.00  0.00    -0.070 N 
HETATM   27  H   UNL     1      24.425  46.551  52.505  1.00  0.00     0.279 HD
HETATM   28  C   UNL     1      24.534  45.210  50.927  1.00  0.00     0.235 C 
HETATM   29  C   UNL     1      25.255  45.579  49.646  1.00  0.00     0.029 C 
HETATM   30  C   UNL     1      25.544  47.053  49.831  1.00  0.00     0.029 C 
HETATM   31  C   UNL     1      26.010  47.129  51.271  1.00  0.00     0.235 C 
ENDBRANCH  25  26
ENDBRANCH  24  25
ENDBRANCH   7  24
TORSDOF 6
ENDMDL
MODEL 3
REMARK VINA RESULT:      -9.7      4.105      9.065
REMARK  6 active torsions:
REMARK  status: ('A' for Active; 'I' for Inactive)
REMARK    1  A    between atoms: N_7  and  C_8 
REMARK    2  A    between atoms: C_8  and  C_9 
REMARK    3  A    between atoms: C_9  and  N_10 
REMARK    4  A    between atoms: C_17  and  C_18 
REMARK    5  A    between atoms: C_18  and  N_19 
REMARK       I    between atoms: N_19  and  C_20 
REMARK    6  A    between atoms: C_20  and  C_21 
ROOT
HETATM    1  C   UNL     1      28.208  46.349  55.842  1.00  0.00     0.001 A 
HETATM    2  C   UNL     1      27.310  46.058  54.811  1.00  0.00     0.014 A 
HETATM    3  C   UNL     1      27.578  45.008  53.926  1.00  0.00     0.008 A 
HETATM    4  C   UNL     1      28.740  44.254  54.084  1.00  0.00     0.046 A 
HETATM    5  C   UNL     1      29.012  43.131  53.167  1.00  0.00     0.274 A 
HETATM    6  O   UNL     1      29.997  42.416  53.330  1.00  0.00    -0.266 OA
HETATM    7  N   UNL     1      28.099  42.937  52.135  1.00  0.00    -0.232 N 
HETATM    8  N   UNL     1      26.952  43.660  51.986  1.00  0.00    -0.172 NA
HETATM    9  C   UNL     1      26.685  44.633  52.806  1.00  0.00     0.084 A 
HETATM   10  C   UNL     1      29.639  44.547  55.118  1.00  0.00     0.018 A 
HETATM   11  C   UNL     1      29.371  45.596  55.994  1.00  0.00     0.001 A 
ENDROOT
BRANCH   9  12
HETATM   12  C   UNL     1      25.374  45.382  52.586  1.00  0.00     0.185 C 
BRANCH  12  13
HETATM   13  N   UNL     1      25.617  46.560  51.780  1.00  0.00    -0.351 N 
HETATM   14  C   UNL     1      25.425  46.566  50.416  1.00  0.00     0.253 C 
HETATM   15  O   UNL     1      24.923  45.620  49.813  1.00  0.00    -0.268 OA
HETATM   16  H   UNL     1      26.007  47.384  52.221  1.00  0.00     0.163 HD
BRANCH  14  17
HETATM   17  C   UNL     1      25.785  47.817  49.680  1.00  0.00     0.048 A 
HETATM   18  C   UNL     1      24.898  48.676  49.008  1.00  0.00     0.022 A 
HETATM   19  I   UNL     1      22.803  48.473  48.970  1.00  0.00    -0.043 I 
HETATM   20  C   UNL     1      25.393  49.812  48.346  1.00  0.00     0.019 A 
HETATM   21  C   UNL     1      26.756  50.110  48.362  1.00  0.00     0.001 A 
HETATM   22  C   UNL     1      27.637  49.280  49.044  1.00  0.00     0.001 A 
HETATM   23  C   UNL     1      27.155  48.145  49.698  1.00  0.00     0.018 A 
ENDBRANCH  14  17
ENDBRANCH  12  13
ENDBRANCH   9  12
BRANCH   7  24
HETATM   24  C   UNL     1      28.235  41.761  51.287  1.00  0.00     0.182 C 
BRANCH  24  25
HETATM   25  C   UNL     1      26.909  41.029  51.041  1.00  0.00     0.256 C 
BRANCH  25  26
HETATM   26  N   UNL     1      27.129  39.654  50.431  1.00  0.00    -0.070 N 
HETATM   27  H   UNL     1      26.764  38.954  51.091  1.00  0.00     0.279 HD
HETATM   28  C   UNL     1      28.601  39.343  50.212  1.00  0.00     0.235 C 
HETATM   29  C   UNL     1      28.762  39.304  48.706  1.00  0.00     0.029 C 
HETATM   30  C   UNL     1      27.442  38.734  48.237  1.00  0.00     0.029 C 
HETATM   31  C   UNL     1      26.431  39.469  49.092  1.00  0.00     0.235 C 
ENDBRANCH  25  26
ENDBRANCH  24  25
ENDBRANCH   7  24
TORSDOF 6
ENDMDL
MODEL 4
REMARK VINA RESULT:      -9.2      2.535      4.155
REMARK  6 active torsions:
REMARK  status: ('A' for Active; 'I' for Inactive)
REMARK    1  A    between atoms: N_7  and  C_8 
REMARK    2  A    between atoms: C_8  and  C_9 
REMARK    3  A    between atoms: C_9  and  N_10 
REMARK    4  A    between atoms: C_17  and  C_18 
REMARK    5  A    between atoms: C_18  and  N_19 
REMARK       I    between atoms: N_19  and  C_20 
REMARK    6  A    between atoms: C_20  and  C_21 
ROOT
HETATM    1  C   UNL     1      27.750  48.922  49.433  1.00  0.00     0.001 A 
HETATM    2  C   UNL     1      26.743  48.038  49.831  1.00  0.00     0.014 A 
HETATM    3  C   UNL     1      25.430  48.226  49.385  1.00  0.00     0.008 A 
HETATM    4  C   UNL     1      25.138  49.294  48.537  1.00  0.00     0.046 A 
HETATM    5  C   UNL     1      23.760  49.479  48.046  1.00  0.00     0.274 A 
HETATM    6  O   UNL     1      23.496  50.375  47.248  1.00  0.00    -0.266 OA
HETATM    7  N   UNL     1      22.804  48.590  48.529  1.00  0.00    -0.232 N 
HETATM    8  N   UNL     1      23.087  47.535  49.344  1.00  0.00    -0.172 NA
HETATM    9  C   UNL     1      24.303  47.342  49.760  1.00  0.00     0.084 A 
HETATM   10  C   UNL     1      26.148  50.178  48.138  1.00  0.00     0.018 A 
HETATM   11  C   UNL     1      27.453  49.991  48.589  1.00  0.00     0.001 A 
ENDROOT
BRANCH   9  12
HETATM   12  C   UNL     1      24.545  46.128  50.653  1.00  0.00     0.185 C 
BRANCH  12  13
HETATM   13  N   UNL     1      24.486  44.920  49.857  1.00  0.00    -0.351 N 
HETATM   14  C   UNL     1      24.327  43.676  50.426  1.00  0.00     0.253 C 
HETATM   15  O   UNL     1      24.105  43.518  51.624  1.00  0.00    -0.268 OA
HETATM   16  H   UNL     1      24.635  44.984  48.857  1.00  0.00     0.163 HD
BRANCH  14  17
HETATM   17  C   UNL     1      24.360  42.496  49.508  1.00  0.00     0.048 A 
HETATM   18  C   UNL     1      25.412  41.574  49.368  1.00  0.00     0.022 A 
HETATM   19  I   UNL     1      27.177  41.561  50.514  1.00  0.00    -0.043 I 
HETATM   20  C   UNL     1      25.299  40.520  48.446  1.00  0.00     0.019 A 
HETATM   21  C   UNL     1      24.145  40.364  47.678  1.00  0.00     0.001 A 
HETATM   22  C   UNL     1      23.090  41.255  47.827  1.00  0.00     0.001 A 
HETATM   23  C   UNL     1      23.196  42.311  48.735  1.00  0.00     0.018 A 
ENDBRANCH  14  17
ENDBRANCH  12  13
ENDBRANCH   9  12
BRANCH   7  24
HETATM   24  C   UNL     1      21.459  48.632  47.971  1.00  0.00     0.182 C 
BRANCH  24  25
HETATM   25  C   UNL     1      20.363  48.310  48.995  1.00  0.00     0.256 C 
BRANCH  25  26
HETATM   26  N   UNL     1      20.162  49.447  49.983  1.00  0.00    -0.070 N 
HETATM   27  H   UNL     1      20.839  49.323  50.748  1.00  0.00     0.279 HD
HETATM   28  C   UNL     1      18.774  49.439  50.605  1.00  0.00     0.235 C 
HETATM   29  C   UNL     1      18.104  50.683  50.057  1.00  0.00     0.029 C 
HETATM   30  C   UNL     1      19.249  51.666  49.949  1.00  0.00     0.029 C 
HETATM   31  C   UNL     1      20.367  50.824  49.371  1.00  0.00     0.235 C 
ENDBRANCH  25  26
ENDBRANCH  24  25
ENDBRANCH   7  24
TORSDOF 6
ENDMDL
MODEL 5
REMARK VINA RESULT:      -8.7      5.149      8.392
REMARK  6 active torsions:
REMARK  status: ('A' for Active; 'I' for Inactive)
REMARK    1  A    between atoms: N_7  and  C_8 
REMARK    2  A    between atoms: C_8  and  C_9 
REMARK    3  A    between atoms: C_9  and  N_10 
REMARK    4  A    between atoms: C_17  and  C_18 
REMARK    5  A    between atoms: C_18  and  N_19 
REMARK       I    between atoms: N_19  and  C_20 
REMARK    6  A    between atoms: C_20  and  C_21 
ROOT
HETATM    1  C   UNL     1      22.810  45.033  47.894  1.00  0.00     0.001 A 
HETATM    2  C   UNL     1      23.476  44.889  49.114  1.00  0.00     0.014 A 
HETATM    3  C   UNL     1      24.140  43.693  49.412  1.00  0.00     0.008 A 
HETATM    4  C   UNL     1      24.137  42.655  48.483  1.00  0.00     0.046 A 
HETATM    5  C   UNL     1      24.857  41.403  48.785  1.00  0.00     0.274 A 
HETATM    6  O   UNL     1      24.919  40.502  47.953  1.00  0.00    -0.266 OA
HETATM    7  N   UNL     1      25.450  41.316  50.040  1.00  0.00    -0.232 N 
HETATM    8  N   UNL     1      25.471  42.335  50.946  1.00  0.00    -0.172 NA
HETATM    9  C   UNL     1      24.867  43.455  50.680  1.00  0.00     0.084 A 
HETATM   10  C   UNL     1      23.469  42.801  47.260  1.00  0.00     0.018 A 
HETATM   11  C   UNL     1      22.805  43.990  46.969  1.00  0.00     0.001 A 
ENDROOT
BRANCH   9  12
HETATM   12  C   UNL     1      24.951  44.554  51.735  1.00  0.00     0.185 C 
BRANCH  12  13
HETATM   13  N   UNL     1      26.235  44.489  52.403  1.00  0.00    -0.351 N 
HETATM   14  C   UNL     1      26.345  44.250  53.755  1.00  0.00     0.253 C 
HETATM   15  O   UNL     1      25.380  43.959  54.457  1.00  0.00    -0.268 OA
HETATM   16  H   UNL     1      27.074  44.693  51.873  1.00  0.00     0.163 HD
BRANCH  14  17
HETATM   17  C   UNL     1      27.718  44.283  54.345  1.00  0.00     0.048 A 
HETATM   18  C   UNL     1      28.355  45.398  54.920  1.00  0.00     0.022 A 
HETATM   19  I   UNL     1      27.476  47.290  55.199  1.00  0.00    -0.043 I 
HETATM   20  C   UNL     1      29.662  45.274  55.420  1.00  0.00     0.019 A 
HETATM   21  C   UNL     1      30.331  44.051  55.373  1.00  0.00     0.001 A 
HETATM   22  C   UNL     1      29.702  42.939  54.829  1.00  0.00     0.001 A 
HETATM   23  C   UNL     1      28.407  43.054  54.321  1.00  0.00     0.018 A 
ENDBRANCH  14  17
ENDBRANCH  12  13
ENDBRANCH   9  12
BRANCH   7  24
HETATM   24  C   UNL     1      26.294  40.168  50.341  1.00  0.00     0.182 C 
BRANCH  24  25
HETATM   25  C   UNL     1      27.721  40.551  50.754  1.00  0.00     0.256 C 
BRANCH  25  26
HETATM   26  N   UNL     1      28.762  39.885  49.869  1.00  0.00    -0.070 N 
HETATM   27  H   UNL     1      29.692  40.131  50.236  1.00  0.00     0.279 HD
HETATM   28  C   UNL     1      28.702  40.373  48.430  1.00  0.00     0.235 C 
HETATM   29  C   UNL     1      28.229  39.171  47.639  1.00  0.00     0.029 C 
HETATM   30  C   UNL     1      28.861  38.010  48.375  1.00  0.00     0.029 C 
HETATM   31  C   UNL     1      28.642  38.370  49.830  1.00  0.00     0.235 C 
ENDBRANCH  25  26
ENDBRANCH  24  25
ENDBRANCH   7  24
TORSDOF 6
ENDMDL
MODEL 6
REMARK VINA RESULT:      -8.7     19.874     21.439
REMARK  6 active torsions:
REMARK  status: ('A' for Active; 'I' for Inactive)
REMARK    1  A    between atoms: N_7  and  C_8 
REMARK    2  A    between atoms: C_8  and  C_9 
REMARK    3  A    between atoms: C_9  and  N_10 
REMARK    4  A    between atoms: C_17  and  C_18 
REMARK    5  A    between atoms: C_18  and  N_19 
REMARK       I    between atoms: N_19  and  C_20 
REMARK    6  A    between atoms: C_20  and  C_21 
ROOT
HETATM    1  C   UNL     1      40.182  40.356  63.583  1.00  0.00     0.001 A 
HETATM    2  C   UNL     1      39.966  41.737  63.565  1.00  0.00     0.014 A 
HETATM    3  C   UNL     1      38.762  42.264  64.044  1.00  0.00     0.008 A 
HETATM    4  C   UNL     1      37.786  41.404  64.545  1.00  0.00     0.046 A 
HETATM    5  C   UNL     1      36.525  41.959  65.073  1.00  0.00     0.274 A 
HETATM    6  O   UNL     1      35.681  41.222  65.576  1.00  0.00    -0.266 OA
HETATM    7  N   UNL     1      36.364  43.337  64.971  1.00  0.00    -0.232 N 
HETATM    8  N   UNL     1      37.321  44.184  64.499  1.00  0.00    -0.172 NA
HETATM    9  C   UNL     1      38.449  43.711  64.058  1.00  0.00     0.084 A 
HETATM   10  C   UNL     1      38.004  40.020  64.563  1.00  0.00     0.018 A 
HETATM   11  C   UNL     1      39.202  39.499  64.080  1.00  0.00     0.001 A 
ENDROOT
BRANCH   9  12
HETATM   12  C   UNL     1      39.478  44.723  63.564  1.00  0.00     0.185 C 
BRANCH  12  13
HETATM   13  N   UNL     1      39.318  45.970  64.285  1.00  0.00    -0.351 N 
HETATM   14  C   UNL     1      40.393  46.759  64.628  1.00  0.00     0.253 C 
HETATM   15  O   UNL     1      41.537  46.526  64.246  1.00  0.00    -0.268 OA
HETATM   16  H   UNL     1      38.395  46.234  64.606  1.00  0.00     0.163 HD
BRANCH  14  17
HETATM   17  C   UNL     1      40.110  47.983  65.440  1.00  0.00     0.048 A 
HETATM   18  C   UNL     1      40.458  48.193  66.786  1.00  0.00     0.022 A 
HETATM   19  I   UNL     1      41.581  46.865  67.973  1.00  0.00    -0.043 I 
HETATM   20  C   UNL     1      40.106  49.397  67.419  1.00  0.00     0.019 A 
HETATM   21  C   UNL     1      39.431  50.399  66.721  1.00  0.00     0.001 A 
HETATM   22  C   UNL     1      39.104  50.210  65.384  1.00  0.00     0.001 A 
HETATM   23  C   UNL     1      39.442  49.014  64.750  1.00  0.00     0.018 A 
ENDBRANCH  14  17
ENDBRANCH  12  13
ENDBRANCH   9  12
BRANCH   7  24
HETATM   24  C   UNL     1      35.208  43.958  65.603  1.00  0.00     0.182 C 
BRANCH  24  25
HETATM   25  C   UNL     1      35.554  44.736  66.879  1.00  0.00     0.256 C 
BRANCH  25  26
HETATM   26  N   UNL     1      36.407  45.958  66.580  1.00  0.00    -0.070 N 
HETATM   27  H   UNL     1      36.893  45.794  65.688  1.00  0.00     0.279 HD
HETATM   28  C   UNL     1      37.474  46.196  67.638  1.00  0.00     0.235 C 
HETATM   29  C   UNL     1      37.053  47.481  68.321  1.00  0.00     0.029 C 
HETATM   30  C   UNL     1      36.432  48.278  67.195  1.00  0.00     0.029 C 
HETATM   31  C   UNL     1      35.602  47.243  66.464  1.00  0.00     0.235 C 
ENDBRANCH  25  26
ENDBRANCH  24  25
ENDBRANCH   7  24
TORSDOF 6
ENDMDL
MODEL 7
REMARK VINA RESULT:      -8.5      4.291      8.649
REMARK  6 active torsions:
REMARK  status: ('A' for Active; 'I' for Inactive)
REMARK    1  A    between atoms: N_7  and  C_8 
REMARK    2  A    between atoms: C_8  and  C_9 
REMARK    3  A    between atoms: C_9  and  N_10 
REMARK    4  A    between atoms: C_17  and  C_18 
REMARK    5  A    between atoms: C_18  and  N_19 
REMARK       I    between atoms: N_19  and  C_20 
REMARK    6  A    between atoms: C_20  and  C_21 
ROOT
HETATM    1  C   UNL     1      26.606  44.938  54.731  1.00  0.00     0.001 A 
HETATM    2  C   UNL     1      25.944  44.861  53.502  1.00  0.00     0.014 A 
HETATM    3  C   UNL     1      26.373  43.947  52.533  1.00  0.00     0.008 A 
HETATM    4  C   UNL     1      27.455  43.112  52.805  1.00  0.00     0.046 A 
HETATM    5  C   UNL     1      27.893  42.131  51.794  1.00  0.00     0.274 A 
HETATM    6  O   UNL     1      28.803  41.345  52.040  1.00  0.00    -0.266 OA
HETATM    7  N   UNL     1      27.218  42.152  50.577  1.00  0.00    -0.232 N 
HETATM    8  N   UNL     1      26.148  42.953  50.312  1.00  0.00    -0.172 NA
HETATM    9  C   UNL     1      25.733  43.802  51.206  1.00  0.00     0.084 A 
HETATM   10  C   UNL     1      28.117  43.190  54.037  1.00  0.00     0.018 A 
HETATM   11  C   UNL     1      27.692  44.105  54.998  1.00  0.00     0.001 A 
ENDROOT
BRANCH   9  12
HETATM   12  C   UNL     1      24.518  44.650  50.842  1.00  0.00     0.185 C 
BRANCH  12  13
HETATM   13  N   UNL     1      24.939  45.791  50.056  1.00  0.00    -0.351 N 
HETATM   14  C   UNL     1      25.079  47.046  50.604  1.00  0.00     0.253 C 
HETATM   15  O   UNL     1      24.976  47.258  51.810  1.00  0.00    -0.268 OA
HETATM   16  H   UNL     1      25.068  45.677  49.057  1.00  0.00     0.163 HD
BRANCH  14  17
HETATM   17  C   UNL     1      25.444  48.160  49.676  1.00  0.00     0.048 A 
HETATM   18  C   UNL     1      24.562  48.893  48.861  1.00  0.00     0.022 A 
HETATM   19  I   UNL     1      22.469  48.675  48.833  1.00  0.00    -0.043 I 
HETATM   20  C   UNL     1      25.062  49.906  48.026  1.00  0.00     0.019 A 
HETATM   21  C   UNL     1      26.423  50.209  48.008  1.00  0.00     0.001 A 
HETATM   22  C   UNL     1      27.299  49.508  48.827  1.00  0.00     0.001 A 
HETATM   23  C   UNL     1      26.813  48.494  49.654  1.00  0.00     0.018 A 
ENDBRANCH  14  17
ENDBRANCH  12  13
ENDBRANCH   9  12
BRANCH   7  24
HETATM   24  C   UNL     1      27.507  41.115  49.596  1.00  0.00     0.182 C 
BRANCH  24  25
HETATM   25  C   UNL     1      26.249  40.484  48.987  1.00  0.00     0.256 C 
BRANCH  25  26
HETATM   26  N   UNL     1      26.513  39.923  47.600  1.00  0.00    -0.070 N 
HETATM   27  H   UNL     1      26.216  38.937  47.596  1.00  0.00     0.279 HD
HETATM   28  C   UNL     1      27.989  39.949  47.233  1.00  0.00     0.235 C 
HETATM   29  C   UNL     1      28.085  40.966  46.114  1.00  0.00     0.029 C 
HETATM   30  C   UNL     1      26.777  40.783  45.375  1.00  0.00     0.029 C 
HETATM   31  C   UNL     1      25.768  40.658  46.498  1.00  0.00     0.235 C 
ENDBRANCH  25  26
ENDBRANCH  24  25
ENDBRANCH   7  24
TORSDOF 6
ENDMDL
MODEL 8
REMARK VINA RESULT:      -8.5      2.642      5.606
REMARK  6 active torsions:
REMARK  status: ('A' for Active; 'I' for Inactive)
REMARK    1  A    between atoms: N_7  and  C_8 
REMARK    2  A    between atoms: C_8  and  C_9 
REMARK    3  A    between atoms: C_9  and  N_10 
REMARK    4  A    between atoms: C_17  and  C_18 
REMARK    5  A    between atoms: C_18  and  N_19 
REMARK       I    between atoms: N_19  and  C_20 
REMARK    6  A    between atoms: C_20  and  C_21 
ROOT
HETATM    1  C   UNL     1      23.077  50.881  48.259  1.00  0.00     0.001 A 
HETATM    2  C   UNL     1      23.927  49.926  48.826  1.00  0.00     0.014 A 
HETATM    3  C   UNL     1      23.538  48.583  48.872  1.00  0.00     0.008 A 
HETATM    4  C   UNL     1      22.305  48.205  48.343  1.00  0.00     0.046 A 
HETATM    5  C   UNL     1      21.904  46.785  48.368  1.00  0.00     0.274 A 
HETATM    6  O   UNL     1      20.851  46.424  47.850  1.00  0.00    -0.266 OA
HETATM    7  N   UNL     1      22.780  45.905  48.997  1.00  0.00    -0.232 N 
HETATM    8  N   UNL     1      23.994  46.266  49.500  1.00  0.00    -0.172 NA
HETATM    9  C   UNL     1      24.373  47.509  49.457  1.00  0.00     0.084 A 
HETATM   10  C   UNL     1      21.455  49.162  47.774  1.00  0.00     0.018 A 
HETATM   11  C   UNL     1      21.843  50.499  47.735  1.00  0.00     0.001 A 
ENDROOT
BRANCH   9  12
HETATM   12  C   UNL     1      25.753  47.832  50.023  1.00  0.00     0.185 C 
BRANCH  12  13
HETATM   13  N   UNL     1      26.209  46.731  50.847  1.00  0.00    -0.351 N 
HETATM   14  C   UNL     1      26.015  46.709  52.210  1.00  0.00     0.253 C 
HETATM   15  O   UNL     1      25.342  47.551  52.798  1.00  0.00    -0.268 OA
HETATM   16  H   UNL     1      26.749  45.989  50.418  1.00  0.00     0.163 HD
BRANCH  14  17
HETATM   17  C   UNL     1      26.600  45.557  52.964  1.00  0.00     0.048 A 
HETATM   18  C   UNL     1      27.336  45.629  54.160  1.00  0.00     0.022 A 
HETATM   19  I   UNL     1      27.702  47.386  55.260  1.00  0.00    -0.043 I 
HETATM   20  C   UNL     1      27.837  44.452  54.743  1.00  0.00     0.019 A 
HETATM   21  C   UNL     1      27.596  43.208  54.160  1.00  0.00     0.001 A 
HETATM   22  C   UNL     1      26.849  43.126  52.991  1.00  0.00     0.001 A 
HETATM   23  C   UNL     1      26.355  44.290  52.400  1.00  0.00     0.018 A 
ENDBRANCH  14  17
ENDBRANCH  12  13
ENDBRANCH   9  12
BRANCH   7  24
HETATM   24  C   UNL     1      22.509  44.475  48.928  1.00  0.00     0.182 C 
BRANCH  24  25
HETATM   25  C   UNL     1      23.484  43.629  49.756  1.00  0.00     0.256 C 
BRANCH  25  26
HETATM   26  N   UNL     1      24.512  42.932  48.880  1.00  0.00    -0.070 N 
HETATM   27  H   UNL     1      24.286  43.145  47.898  1.00  0.00     0.279 HD
HETATM   28  C   UNL     1      24.477  41.419  49.032  1.00  0.00     0.235 C 
HETATM   29  C   UNL     1      25.792  41.073  49.700  1.00  0.00     0.029 C 
HETATM   30  C   UNL     1      26.747  42.092  49.119  1.00  0.00     0.029 C 
HETATM   31  C   UNL     1      25.940  43.374  49.156  1.00  0.00     0.235 C 
ENDBRANCH  25  26
ENDBRANCH  24  25
ENDBRANCH   7  24
TORSDOF 6
ENDMDL
MODEL 9
REMARK VINA RESULT:      -8.4      2.889      4.336
REMARK  6 active torsions:
REMARK  status: ('A' for Active; 'I' for Inactive)
REMARK    1  A    between atoms: N_7  and  C_8 
REMARK    2  A    between atoms: C_8  and  C_9 
REMARK    3  A    between atoms: C_9  and  N_10 
REMARK    4  A    between atoms: C_17  and  C_18 
REMARK    5  A    between atoms: C_18  and  N_19 
REMARK       I    between atoms: N_19  and  C_20 
REMARK    6  A    between atoms: C_20  and  C_21 
ROOT
HETATM    1  C   UNL     1      22.431  44.071  46.653  1.00  0.00     0.001 A 
HETATM    2  C   UNL     1      22.608  45.272  47.347  1.00  0.00     0.014 A 
HETATM    3  C   UNL     1      21.495  45.980  47.814  1.00  0.00     0.008 A 
HETATM    4  C   UNL     1      20.215  45.477  47.588  1.00  0.00     0.046 A 
HETATM    5  C   UNL     1      19.042  46.210  48.101  1.00  0.00     0.274 A 
HETATM    6  O   UNL     1      17.911  45.750  47.967  1.00  0.00    -0.266 OA
HETATM    7  N   UNL     1      19.296  47.422  48.734  1.00  0.00    -0.232 N 
HETATM    8  N   UNL     1      20.546  47.910  48.974  1.00  0.00    -0.172 NA
HETATM    9  C   UNL     1      21.590  47.259  48.554  1.00  0.00     0.084 A 
HETATM   10  C   UNL     1      20.039  44.274  46.893  1.00  0.00     0.018 A 
HETATM   11  C   UNL     1      21.149  43.574  46.425  1.00  0.00     0.001 A 
ENDROOT
BRANCH   9  12
HETATM   12  C   UNL     1      22.956  47.859  48.877  1.00  0.00     0.185 C 
BRANCH  12  13
HETATM   13  N   UNL     1      23.447  47.304  50.122  1.00  0.00    -0.351 N 
HETATM   14  C   UNL     1      24.773  46.980  50.305  1.00  0.00     0.253 C 
HETATM   15  O   UNL     1      25.642  47.250  49.479  1.00  0.00    -0.268 OA
HETATM   16  H   UNL     1      22.785  47.083  50.855  1.00  0.00     0.163 HD
BRANCH  14  17
HETATM   17  C   UNL     1      25.147  46.341  51.604  1.00  0.00     0.048 A 
HETATM   18  C   UNL     1      25.029  44.979  51.931  1.00  0.00     0.022 A 
HETATM   19  I   UNL     1      24.395  43.463  50.615  1.00  0.00    -0.043 I 
HETATM   20  C   UNL     1      25.410  44.531  53.207  1.00  0.00     0.019 A 
HETATM   21  C   UNL     1      25.925  45.420  54.151  1.00  0.00     0.001 A 
HETATM   22  C   UNL     1      26.068  46.764  53.829  1.00  0.00     0.001 A 
HETATM   23  C   UNL     1      25.684  47.219  52.567  1.00  0.00     0.018 A 
ENDBRANCH  14  17
ENDBRANCH  12  13
ENDBRANCH   9  12
BRANCH   7  24
HETATM   24  C   UNL     1      18.196  48.119  49.387  1.00  0.00     0.182 C 
BRANCH  24  25
HETATM   25  C   UNL     1      18.651  49.078  50.494  1.00  0.00     0.256 C 
BRANCH  25  26
HETATM   26  N   UNL     1      18.556  50.531  50.056  1.00  0.00    -0.070 N 
HETATM   27  H   UNL     1      17.993  51.035  50.756  1.00  0.00     0.279 HD
HETATM   28  C   UNL     1      17.857  50.690  48.715  1.00  0.00     0.235 C 
HETATM   29  C   UNL     1      18.943  51.171  47.775  1.00  0.00     0.029 C 
HETATM   30  C   UNL     1      19.808  52.034  48.667  1.00  0.00     0.029 C 
HETATM   31  C   UNL     1      19.909  51.215  49.937  1.00  0.00     0.235 C 
ENDBRANCH  25  26
ENDBRANCH  24  25
ENDBRANCH   7  24
TORSDOF 6
ENDMDL
MODEL 10
REMARK VINA RESULT:      -8.3      2.691      3.463
REMARK  6 active torsions:
REMARK  status: ('A' for Active; 'I' for Inactive)
REMARK    1  A    between atoms: N_7  and  C_8 
REMARK    2  A    between atoms: C_8  and  C_9 
REMARK    3  A    between atoms: C_9  and  N_10 
REMARK    4  A    between atoms: C_17  and  C_18 
REMARK    5  A    between atoms: C_18  and  N_19 
REMARK       I    between atoms: N_19  and  C_20 
REMARK    6  A    between atoms: C_20  and  C_21 
ROOT
HETATM    1  C   UNL     1      24.078  50.313  48.382  1.00  0.00     0.001 A 
HETATM    2  C   UNL     1      23.807  48.947  48.506  1.00  0.00     0.014 A 
HETATM    3  C   UNL     1      22.482  48.500  48.569  1.00  0.00     0.008 A 
HETATM    4  C   UNL     1      21.440  49.424  48.501  1.00  0.00     0.046 A 
HETATM    5  C   UNL     1      20.043  48.953  48.543  1.00  0.00     0.274 A 
HETATM    6  O   UNL     1      19.113  49.744  48.420  1.00  0.00    -0.266 OA
HETATM    7  N   UNL     1      19.855  47.585  48.721  1.00  0.00    -0.232 N 
HETATM    8  N   UNL     1      20.869  46.676  48.771  1.00  0.00    -0.172 NA
HETATM    9  C   UNL     1      22.105  47.075  48.704  1.00  0.00     0.084 A 
HETATM   10  C   UNL     1      21.714  50.792  48.376  1.00  0.00     0.018 A 
HETATM   11  C   UNL     1      23.034  51.234  48.318  1.00  0.00     0.001 A 
ENDROOT
BRANCH   9  12
HETATM   12  C   UNL     1      23.183  45.996  48.747  1.00  0.00     0.185 C 
BRANCH  12  13
HETATM   13  N   UNL     1      23.811  45.988  50.052  1.00  0.00    -0.351 N 
HETATM   14  C   UNL     1      25.179  45.968  50.206  1.00  0.00     0.253 C 
HETATM   15  O   UNL     1      25.955  46.077  49.259  1.00  0.00    -0.268 OA
HETATM   16  H   UNL     1      23.226  45.926  50.876  1.00  0.00     0.163 HD
BRANCH  14  17
HETATM   17  C   UNL     1      25.709  45.882  51.601  1.00  0.00     0.048 A 
HETATM   18  C   UNL     1      26.377  44.786  52.177  1.00  0.00     0.022 A 
HETATM   19  I   UNL     1      26.905  43.017  51.166  1.00  0.00    -0.043 I 
HETATM   20  C   UNL     1      26.803  44.852  53.514  1.00  0.00     0.019 A 
HETATM   21  C   UNL     1      26.589  46.001  54.275  1.00  0.00     0.001 A 
HETATM   22  C   UNL     1      25.952  47.097  53.708  1.00  0.00     0.001 A 
HETATM   23  C   UNL     1      25.518  47.038  52.383  1.00  0.00     0.018 A 
ENDBRANCH  14  17
ENDBRANCH  12  13
ENDBRANCH   9  12
BRANCH   7  24
HETATM   24  C   UNL     1      18.506  47.043  48.626  1.00  0.00     0.182 C 
BRANCH  24  25
HETATM   25  C   UNL     1      18.086  46.700  47.192  1.00  0.00     0.256 C 
BRANCH  25  26
HETATM   26  N   UNL     1      16.606  46.960  46.960  1.00  0.00    -0.070 N 
HETATM   27  H   UNL     1      16.111  46.062  47.048  1.00  0.00     0.279 HD
HETATM   28  C   UNL     1      16.321  47.497  45.565  1.00  0.00     0.235 C 
HETATM   29  C   UNL     1      15.854  48.920  45.794  1.00  0.00     0.029 C 
HETATM   30  C   UNL     1      15.104  48.826  47.104  1.00  0.00     0.029 C 
HETATM   31  C   UNL     1      16.004  47.946  47.948  1.00  0.00     0.235 C 
ENDBRANCH  25  26
ENDBRANCH  24  25
ENDBRANCH   7  24
TORSDOF 6
ENDMDL
