MODEL 1
REMARK VINA RESULT:     -10.4      0.000      0.000
REMARK  6 active torsions:
REMARK  status: ('A' for Active; 'I' for Inactive)
REMARK    1  A    between atoms: O_2  and  C_3 
REMARK    2  A    between atoms: C_5  and  C_6 
REMARK    3  A    between atoms: C_12  and  C_13 
REMARK       I    between atoms: C_13  and  N_14 
REMARK    4  A    between atoms: N_14  and  C_15 
REMARK    5  A    between atoms: C_15  and  C_16 
REMARK    6  A    between atoms: C_23  and  C_24 
ROOT
HETATM    1  C   UNL     1      25.787  46.625  50.112  1.00  0.00     0.118 C 
HETATM    2  N   UNL     1      26.198  46.775  51.510  1.00  0.00    -0.365 N 
HETATM    3  C   UNL     1      25.783  45.892  52.458  1.00  0.00     0.138 A 
HETATM    4  N   UNL     1      24.890  44.894  52.142  1.00  0.00    -0.240 N 
HETATM    5  N   UNL     1      24.462  44.187  53.197  1.00  0.00    -0.181 NA
HETATM    6  C   UNL     1      25.169  44.697  54.208  1.00  0.00     0.160 A 
HETATM    7  C   UNL     1      26.028  45.755  53.813  1.00  0.00     0.096 A 
HETATM    8  C   UNL     1      24.305  44.699  50.829  1.00  0.00     0.221 C 
HETATM    9  C   UNL     1      24.378  46.014  50.034  1.00  0.00     0.066 C 
HETATM   10  H   UNL     1      26.485  47.721  51.770  1.00  0.00     0.161 HD
ENDROOT
BRANCH   7  11
HETATM   11  C   UNL     1      26.920  46.484  54.694  1.00  0.00     0.257 C 
HETATM   12  N   UNL     1      28.142  45.896  54.914  1.00  0.00    -0.352 N 
HETATM   13  H   UNL     1      28.276  44.946  54.590  1.00  0.00     0.163 HD
HETATM   14  O   UNL     1      26.577  47.534  55.226  1.00  0.00    -0.267 OA
BRANCH  12  15
HETATM   15  C   UNL     1      29.089  46.443  55.859  1.00  0.00     0.161 C 
BRANCH  15  16
HETATM   16  C   UNL     1      30.061  45.412  56.378  1.00  0.00    -0.041 A 
HETATM   17  C   UNL     1      30.600  45.494  57.672  1.00  0.00     0.009 A 
HETATM   18  C   UNL     1      31.435  44.488  58.160  1.00  0.00     0.001 A 
HETATM   19  C   UNL     1      31.729  43.379  57.370  1.00  0.00     0.000 A 
HETATM   20  C   UNL     1      31.187  43.274  56.092  1.00  0.00     0.001 A 
HETATM   21  C   UNL     1      30.356  44.282  55.599  1.00  0.00     0.009 A 
ENDBRANCH  15  16
ENDBRANCH  12  15
ENDBRANCH   7  11
BRANCH   1  22
HETATM   22  C   UNL     1      25.924  47.956  49.397  1.00  0.00    -0.033 A 
HETATM   23  C   UNL     1      24.843  48.574  48.747  1.00  0.00     0.046 A 
HETATM   24  C   UNL     1      24.993  49.803  48.093  1.00  0.00     0.068 A 
HETATM   25  C   UNL     1      26.233  50.439  48.105  1.00  0.00     0.037 A 
HETATM   26  C   UNL     1      27.312  49.851  48.767  1.00  0.00     0.003 A 
HETATM   27  C   UNL     1      27.159  48.622  49.411  1.00  0.00     0.009 A 
BRANCH  24  28
HETATM   28  O   UNL     1      23.857  50.268  47.489  1.00  0.00    -0.356 OA
HETATM   29  C   UNL     1      22.886  50.878  48.330  1.00  0.00     0.210 C 
ENDBRANCH  24  28
ENDBRANCH   1  22
BRANCH   8  30
HETATM   30  C   UNL     1      24.987  43.546  50.128  1.00  0.00     0.409 C 
HETATM   31  F   UNL     1      25.004  43.675  48.784  1.00  0.00    -0.169 F 
HETATM   32  F   UNL     1      26.260  43.361  50.538  1.00  0.00    -0.169 F 
HETATM   33  F   UNL     1      24.326  42.389  50.397  1.00  0.00    -0.169 F 
ENDBRANCH   8  30
TORSDOF 6
ENDMDL
MODEL 2
REMARK VINA RESULT:     -10.0      4.369      8.463
REMARK  6 active torsions:
REMARK  status: ('A' for Active; 'I' for Inactive)
REMARK    1  A    between atoms: O_2  and  C_3 
REMARK    2  A    between atoms: C_5  and  C_6 
REMARK    3  A    between atoms: C_12  and  C_13 
REMARK       I    between atoms: C_13  and  N_14 
REMARK    4  A    between atoms: N_14  and  C_15 
REMARK    5  A    between atoms: C_15  and  C_16 
REMARK    6  A    between atoms: C_23  and  C_24 
ROOT
HETATM    1  C   UNL     1      28.406  41.717  51.795  1.00  0.00     0.118 C 
HETATM    2  N   UNL     1      27.263  42.616  51.623  1.00  0.00    -0.365 N 
HETATM    3  C   UNL     1      26.802  43.365  52.661  1.00  0.00     0.138 A 
HETATM    4  N   UNL     1      27.338  43.221  53.920  1.00  0.00    -0.240 N 
HETATM    5  N   UNL     1      26.699  43.916  54.872  1.00  0.00    -0.181 NA
HETATM    6  C   UNL     1      25.775  44.590  54.183  1.00  0.00     0.160 A 
HETATM    7  C   UNL     1      25.796  44.305  52.792  1.00  0.00     0.096 A 
HETATM    8  C   UNL     1      28.391  42.283  54.264  1.00  0.00     0.221 C 
HETATM    9  C   UNL     1      28.428  41.150  53.225  1.00  0.00     0.066 C 
HETATM   10  H   UNL     1      26.652  42.382  50.839  1.00  0.00     0.161 HD
ENDROOT
BRANCH   7  11
HETATM   11  C   UNL     1      24.918  44.899  51.802  1.00  0.00     0.257 C 
HETATM   12  N   UNL     1      25.337  46.103  51.289  1.00  0.00    -0.352 N 
HETATM   13  H   UNL     1      26.121  46.561  51.737  1.00  0.00     0.163 HD
HETATM   14  O   UNL     1      23.860  44.367  51.483  1.00  0.00    -0.267 OA
BRANCH  12  15
HETATM   15  C   UNL     1      24.513  46.870  50.383  1.00  0.00     0.161 C 
BRANCH  15  16
HETATM   16  C   UNL     1      25.292  47.923  49.633  1.00  0.00    -0.041 A 
HETATM   17  C   UNL     1      24.647  48.932  48.900  1.00  0.00     0.009 A 
HETATM   18  C   UNL     1      25.384  49.941  48.278  1.00  0.00     0.001 A 
HETATM   19  C   UNL     1      26.772  49.966  48.395  1.00  0.00     0.000 A 
HETATM   20  C   UNL     1      27.424  48.982  49.134  1.00  0.00     0.001 A 
HETATM   21  C   UNL     1      26.689  47.968  49.751  1.00  0.00     0.009 A 
ENDBRANCH  15  16
ENDBRANCH  12  15
ENDBRANCH   7  11
BRANCH   1  22
HETATM   22  C   UNL     1      28.385  40.656  50.711  1.00  0.00    -0.033 A 
HETATM   23  C   UNL     1      29.092  39.448  50.827  1.00  0.00     0.046 A 
HETATM   24  C   UNL     1      29.058  38.483  49.813  1.00  0.00     0.068 A 
HETATM   25  C   UNL     1      28.289  38.713  48.674  1.00  0.00     0.037 A 
HETATM   26  C   UNL     1      27.559  39.897  48.552  1.00  0.00     0.003 A 
HETATM   27  C   UNL     1      27.603  40.858  49.563  1.00  0.00     0.009 A 
BRANCH  24  28
HETATM   28  O   UNL     1      29.814  37.370  50.061  1.00  0.00    -0.356 OA
HETATM   29  C   UNL     1      29.916  36.953  51.418  1.00  0.00     0.210 C 
ENDBRANCH  24  28
ENDBRANCH   1  22
BRANCH   8  30
HETATM   30  C   UNL     1      29.708  43.013  54.392  1.00  0.00     0.409 C 
HETATM   31  F   UNL     1      30.254  42.917  55.624  1.00  0.00    -0.169 F 
HETATM   32  F   UNL     1      30.631  42.591  53.501  1.00  0.00    -0.169 F 
HETATM   33  F   UNL     1      29.524  44.339  54.154  1.00  0.00    -0.169 F 
ENDBRANCH   8  30
TORSDOF 6
ENDMDL
MODEL 3
REMARK VINA RESULT:      -9.7      1.279      1.945
REMARK  6 active torsions:
REMARK  status: ('A' for Active; 'I' for Inactive)
REMARK    1  A    between atoms: O_2  and  C_3 
REMARK    2  A    between atoms: C_5  and  C_6 
REMARK    3  A    between atoms: C_12  and  C_13 
REMARK       I    between atoms: C_13  and  N_14 
REMARK    4  A    between atoms: N_14  and  C_15 
REMARK    5  A    between atoms: C_15  and  C_16 
REMARK    6  A    between atoms: C_23  and  C_24 
ROOT
HETATM    1  C   UNL     1      24.485  46.913  49.676  1.00  0.00     0.118 C 
HETATM    2  N   UNL     1      25.105  46.987  51.000  1.00  0.00    -0.365 N 
HETATM    3  C   UNL     1      25.207  45.881  51.786  1.00  0.00     0.138 A 
HETATM    4  N   UNL     1      24.643  44.689  51.394  1.00  0.00    -0.240 N 
HETATM    5  N   UNL     1      24.698  43.724  52.322  1.00  0.00    -0.181 NA
HETATM    6  C   UNL     1      25.394  44.295  53.308  1.00  0.00     0.160 A 
HETATM    7  C   UNL     1      25.759  45.638  53.031  1.00  0.00     0.096 A 
HETATM    8  C   UNL     1      23.894  44.498  50.165  1.00  0.00     0.221 C 
HETATM    9  C   UNL     1      23.368  45.855  49.669  1.00  0.00     0.066 C 
HETATM   10  H   UNL     1      25.116  47.921  51.413  1.00  0.00     0.161 HD
ENDROOT
BRANCH   7  11
HETATM   11  C   UNL     1      26.528  46.496  53.912  1.00  0.00     0.257 C 
HETATM   12  N   UNL     1      27.635  45.916  54.483  1.00  0.00    -0.352 N 
HETATM   13  H   UNL     1      27.748  44.915  54.385  1.00  0.00     0.163 HD
HETATM   14  O   UNL     1      26.179  47.648  54.148  1.00  0.00    -0.267 OA
BRANCH  12  15
HETATM   15  C   UNL     1      28.430  46.607  55.472  1.00  0.00     0.161 C 
BRANCH  15  16
HETATM   16  C   UNL     1      29.388  45.694  56.195  1.00  0.00    -0.041 A 
HETATM   17  C   UNL     1      30.030  44.632  55.540  1.00  0.00     0.009 A 
HETATM   18  C   UNL     1      30.973  43.848  56.208  1.00  0.00     0.001 A 
HETATM   19  C   UNL     1      31.300  44.127  57.533  1.00  0.00     0.000 A 
HETATM   20  C   UNL     1      30.685  45.189  58.192  1.00  0.00     0.001 A 
HETATM   21  C   UNL     1      29.737  45.970  57.527  1.00  0.00     0.009 A 
ENDBRANCH  15  16
ENDBRANCH  12  15
ENDBRANCH   7  11
BRANCH   1  22
HETATM   22  C   UNL     1      24.029  48.296  49.250  1.00  0.00    -0.033 A 
HETATM   23  C   UNL     1      22.685  48.700  49.325  1.00  0.00     0.046 A 
HETATM   24  C   UNL     1      22.288  49.982  48.926  1.00  0.00     0.068 A 
HETATM   25  C   UNL     1      23.245  50.885  48.468  1.00  0.00     0.037 A 
HETATM   26  C   UNL     1      24.588  50.509  48.411  1.00  0.00     0.003 A 
HETATM   27  C   UNL     1      24.978  49.227  48.802  1.00  0.00     0.009 A 
BRANCH  24  28
HETATM   28  O   UNL     1      20.945  50.220  49.036  1.00  0.00    -0.356 OA
HETATM   29  C   UNL     1      20.073  49.140  48.722  1.00  0.00     0.210 C 
ENDBRANCH  24  28
ENDBRANCH   1  22
BRANCH   8  30
HETATM   30  C   UNL     1      24.754  43.788  49.145  1.00  0.00     0.409 C 
HETATM   31  F   UNL     1      26.050  44.166  49.184  1.00  0.00    -0.169 F 
HETATM   32  F   UNL     1      24.715  42.444  49.268  1.00  0.00    -0.169 F 
HETATM   33  F   UNL     1      24.308  44.071  47.892  1.00  0.00    -0.169 F 
ENDBRANCH   8  30
TORSDOF 6
ENDMDL
MODEL 4
REMARK VINA RESULT:      -9.6      3.956      8.313
REMARK  6 active torsions:
REMARK  status: ('A' for Active; 'I' for Inactive)
REMARK    1  A    between atoms: O_2  and  C_3 
REMARK    2  A    between atoms: C_5  and  C_6 
REMARK    3  A    between atoms: C_12  and  C_13 
REMARK       I    between atoms: C_13  and  N_14 
REMARK    4  A    between atoms: N_14  and  C_15 
REMARK    5  A    between atoms: C_15  and  C_16 
REMARK    6  A    between atoms: C_23  and  C_24 
ROOT
HETATM    1  C   UNL     1      27.803  44.665  53.171  1.00  0.00     0.118 C 
HETATM    2  N   UNL     1      27.569  43.416  52.442  1.00  0.00    -0.365 N 
HETATM    3  C   UNL     1      26.408  43.212  51.762  1.00  0.00     0.138 A 
HETATM    4  N   UNL     1      25.389  44.135  51.825  1.00  0.00    -0.240 N 
HETATM    5  N   UNL     1      24.256  43.743  51.225  1.00  0.00    -0.181 NA
HETATM    6  C   UNL     1      24.591  42.566  50.690  1.00  0.00     0.160 A 
HETATM    7  C   UNL     1      25.928  42.183  50.973  1.00  0.00     0.096 A 
HETATM    8  C   UNL     1      25.433  45.358  52.605  1.00  0.00     0.221 C 
HETATM    9  C   UNL     1      26.478  45.215  53.724  1.00  0.00     0.066 C 
HETATM   10  H   UNL     1      28.130  42.625  52.762  1.00  0.00     0.161 HD
ENDROOT
BRANCH   7  11
HETATM   11  C   UNL     1      26.566  40.965  50.511  1.00  0.00     0.257 C 
HETATM   12  N   UNL     1      27.816  41.124  49.965  1.00  0.00    -0.352 N 
HETATM   13  H   UNL     1      28.134  42.067  49.777  1.00  0.00     0.163 HD
HETATM   14  O   UNL     1      25.998  39.880  50.578  1.00  0.00    -0.267 OA
BRANCH  12  15
HETATM   15  C   UNL     1      28.525  40.022  49.357  1.00  0.00     0.161 C 
BRANCH  15  16
HETATM   16  C   UNL     1      28.267  39.906  47.875  1.00  0.00    -0.041 A 
HETATM   17  C   UNL     1      28.187  41.039  47.050  1.00  0.00     0.009 A 
HETATM   18  C   UNL     1      28.027  40.906  45.670  1.00  0.00     0.001 A 
HETATM   19  C   UNL     1      27.961  39.640  45.093  1.00  0.00     0.000 A 
HETATM   20  C   UNL     1      28.057  38.505  45.896  1.00  0.00     0.001 A 
HETATM   21  C   UNL     1      28.212  38.637  47.278  1.00  0.00     0.009 A 
ENDBRANCH  15  16
ENDBRANCH  12  15
ENDBRANCH   7  11
BRANCH   1  22
HETATM   22  C   UNL     1      28.869  44.443  54.227  1.00  0.00    -0.033 A 
HETATM   23  C   UNL     1      29.078  45.344  55.285  1.00  0.00     0.046 A 
HETATM   24  C   UNL     1      30.068  45.119  56.248  1.00  0.00     0.068 A 
HETATM   25  C   UNL     1      30.849  43.967  56.173  1.00  0.00     0.037 A 
HETATM   26  C   UNL     1      30.638  43.048  55.143  1.00  0.00     0.003 A 
HETATM   27  C   UNL     1      29.655  43.282  54.181  1.00  0.00     0.009 A 
BRANCH  24  28
HETATM   28  O   UNL     1      30.165  46.095  57.202  1.00  0.00    -0.356 OA
HETATM   29  C   UNL     1      30.659  45.700  58.477  1.00  0.00     0.210 C 
ENDBRANCH  24  28
ENDBRANCH   1  22
BRANCH   8  30
HETATM   30  C   UNL     1      25.696  46.537  51.696  1.00  0.00     0.409 C 
HETATM   31  F   UNL     1      26.467  46.227  50.631  1.00  0.00    -0.169 F 
HETATM   32  F   UNL     1      24.564  47.105  51.231  1.00  0.00    -0.169 F 
HETATM   33  F   UNL     1      26.358  47.507  52.382  1.00  0.00    -0.169 F 
ENDBRANCH   8  30
TORSDOF 6
ENDMDL
MODEL 5
REMARK VINA RESULT:      -9.5      2.610      7.870
REMARK  6 active torsions:
REMARK  status: ('A' for Active; 'I' for Inactive)
REMARK    1  A    between atoms: O_2  and  C_3 
REMARK    2  A    between atoms: C_5  and  C_6 
REMARK    3  A    between atoms: C_12  and  C_13 
REMARK       I    between atoms: C_13  and  N_14 
REMARK    4  A    between atoms: N_14  and  C_15 
REMARK    5  A    between atoms: C_15  and  C_16 
REMARK    6  A    between atoms: C_23  and  C_24 
ROOT
HETATM    1  C   UNL     1      28.383  43.306  53.542  1.00  0.00     0.118 C 
HETATM    2  N   UNL     1      27.362  44.069  52.820  1.00  0.00    -0.365 N 
HETATM    3  C   UNL     1      27.014  43.739  51.547  1.00  0.00     0.138 A 
HETATM    4  N   UNL     1      27.682  42.742  50.875  1.00  0.00    -0.240 N 
HETATM    5  N   UNL     1      27.331  42.618  49.587  1.00  0.00    -0.181 NA
HETATM    6  C   UNL     1      26.347  43.510  49.456  1.00  0.00     0.160 A 
HETATM    7  C   UNL     1      26.085  44.234  50.649  1.00  0.00     0.096 A 
HETATM    8  C   UNL     1      28.794  41.985  51.419  1.00  0.00     0.221 C 
HETATM    9  C   UNL     1      29.447  42.780  52.562  1.00  0.00     0.066 C 
HETATM   10  H   UNL     1      27.211  45.016  53.172  1.00  0.00     0.161 HD
ENDROOT
BRANCH   7  11
HETATM   11  C   UNL     1      25.065  45.254  50.804  1.00  0.00     0.257 C 
HETATM   12  N   UNL     1      24.679  45.882  49.644  1.00  0.00    -0.352 N 
HETATM   13  H   UNL     1      25.227  45.715  48.810  1.00  0.00     0.163 HD
HETATM   14  O   UNL     1      24.615  45.547  51.906  1.00  0.00    -0.267 OA
BRANCH  12  15
HETATM   15  C   UNL     1      23.761  46.997  49.655  1.00  0.00     0.161 C 
BRANCH  15  16
HETATM   16  C   UNL     1      24.371  48.265  49.110  1.00  0.00    -0.041 A 
HETATM   17  C   UNL     1      25.750  48.515  49.199  1.00  0.00     0.009 A 
HETATM   18  C   UNL     1      26.305  49.657  48.618  1.00  0.00     0.001 A 
HETATM   19  C   UNL     1      25.494  50.554  47.927  1.00  0.00     0.000 A 
HETATM   20  C   UNL     1      24.127  50.310  47.814  1.00  0.00     0.001 A 
HETATM   21  C   UNL     1      23.569  49.171  48.399  1.00  0.00     0.009 A 
ENDBRANCH  15  16
ENDBRANCH  12  15
ENDBRANCH   7  11
BRANCH   1  22
HETATM   22  C   UNL     1      28.946  44.150  54.669  1.00  0.00    -0.033 A 
HETATM   23  C   UNL     1      28.258  45.258  55.194  1.00  0.00     0.046 A 
HETATM   24  C   UNL     1      28.798  46.023  56.235  1.00  0.00     0.068 A 
HETATM   25  C   UNL     1      30.030  45.667  56.779  1.00  0.00     0.037 A 
HETATM   26  C   UNL     1      30.716  44.555  56.287  1.00  0.00     0.003 A 
HETATM   27  C   UNL     1      30.177  43.801  55.244  1.00  0.00     0.009 A 
BRANCH  24  28
HETATM   28  O   UNL     1      28.022  47.081  56.624  1.00  0.00    -0.356 OA
HETATM   29  C   UNL     1      27.178  47.656  55.634  1.00  0.00     0.210 C 
ENDBRANCH  24  28
ENDBRANCH   1  22
BRANCH   8  30
HETATM   30  C   UNL     1      28.321  40.614  51.848  1.00  0.00     0.409 C 
HETATM   31  F   UNL     1      28.507  39.667  50.903  1.00  0.00    -0.169 F 
HETATM   32  F   UNL     1      28.914  40.184  52.982  1.00  0.00    -0.169 F 
HETATM   33  F   UNL     1      26.986  40.648  52.102  1.00  0.00    -0.169 F 
ENDBRANCH   8  30
TORSDOF 6
ENDMDL
MODEL 6
REMARK VINA RESULT:      -9.5      2.742      8.325
REMARK  6 active torsions:
REMARK  status: ('A' for Active; 'I' for Inactive)
REMARK    1  A    between atoms: O_2  and  C_3 
REMARK    2  A    between atoms: C_5  and  C_6 
REMARK    3  A    between atoms: C_12  and  C_13 
REMARK       I    between atoms: C_13  and  N_14 
REMARK    4  A    between atoms: N_14  and  C_15 
REMARK    5  A    between atoms: C_15  and  C_16 
REMARK    6  A    between atoms: C_23  and  C_24 
ROOT
HETATM    1  C   UNL     1      28.299  43.535  53.663  1.00  0.00     0.118 C 
HETATM    2  N   UNL     1      27.310  44.313  52.913  1.00  0.00    -0.365 N 
HETATM    3  C   UNL     1      26.996  43.990  51.630  1.00  0.00     0.138 A 
HETATM    4  N   UNL     1      27.671  42.985  50.975  1.00  0.00    -0.240 N 
HETATM    5  N   UNL     1      27.358  42.868  49.677  1.00  0.00    -0.181 NA
HETATM    6  C   UNL     1      26.390  43.774  49.519  1.00  0.00     0.160 A 
HETATM    7  C   UNL     1      26.102  44.498  50.705  1.00  0.00     0.096 A 
HETATM    8  C   UNL     1      28.756  42.212  51.552  1.00  0.00     0.221 C 
HETATM    9  C   UNL     1      29.384  42.997  52.715  1.00  0.00     0.066 C 
HETATM   10  H   UNL     1      27.161  45.262  53.262  1.00  0.00     0.161 HD
ENDROOT
BRANCH   7  11
HETATM   11  C   UNL     1      25.091  45.532  50.831  1.00  0.00     0.257 C 
HETATM   12  N   UNL     1      24.546  45.971  49.648  1.00  0.00    -0.352 N 
HETATM   13  H   UNL     1      24.985  45.673  48.786  1.00  0.00     0.163 HD
HETATM   14  O   UNL     1      24.782  45.995  51.923  1.00  0.00    -0.267 OA
BRANCH  12  15
HETATM   15  C   UNL     1      23.616  47.075  49.605  1.00  0.00     0.161 C 
BRANCH  15  16
HETATM   16  C   UNL     1      24.232  48.339  49.059  1.00  0.00    -0.041 A 
HETATM   17  C   UNL     1      25.616  48.568  49.116  1.00  0.00     0.009 A 
HETATM   18  C   UNL     1      26.174  49.708  48.535  1.00  0.00     0.001 A 
HETATM   19  C   UNL     1      25.359  50.625  47.874  1.00  0.00     0.000 A 
HETATM   20  C   UNL     1      23.987  50.403  47.793  1.00  0.00     0.001 A 
HETATM   21  C   UNL     1      23.426  49.266  48.379  1.00  0.00     0.009 A 
ENDBRANCH  15  16
ENDBRANCH  12  15
ENDBRANCH   7  11
BRANCH   1  22
HETATM   22  C   UNL     1      28.838  44.370  54.809  1.00  0.00    -0.033 A 
HETATM   23  C   UNL     1      30.026  44.042  55.484  1.00  0.00     0.046 A 
HETATM   24  C   UNL     1      30.504  44.827  56.540  1.00  0.00     0.068 A 
HETATM   25  C   UNL     1      29.803  45.971  56.915  1.00  0.00     0.037 A 
HETATM   26  C   UNL     1      28.634  46.327  56.239  1.00  0.00     0.003 A 
HETATM   27  C   UNL     1      28.158  45.536  55.193  1.00  0.00     0.009 A 
BRANCH  24  28
HETATM   28  O   UNL     1      31.659  44.368  57.112  1.00  0.00    -0.356 OA
HETATM   29  C   UNL     1      31.850  42.959  57.131  1.00  0.00     0.210 C 
ENDBRANCH  24  28
ENDBRANCH   1  22
BRANCH   8  30
HETATM   30  C   UNL     1      28.252  40.847  51.963  1.00  0.00     0.409 C 
HETATM   31  F   UNL     1      28.507  39.888  51.047  1.00  0.00    -0.169 F 
HETATM   32  F   UNL     1      28.760  40.433  53.143  1.00  0.00    -0.169 F 
HETATM   33  F   UNL     1      26.902  40.883  52.117  1.00  0.00    -0.169 F 
ENDBRANCH   8  30
TORSDOF 6
ENDMDL
MODEL 7
REMARK VINA RESULT:      -9.4      4.522      6.498
REMARK  6 active torsions:
REMARK  status: ('A' for Active; 'I' for Inactive)
REMARK    1  A    between atoms: O_2  and  C_3 
REMARK    2  A    between atoms: C_5  and  C_6 
REMARK    3  A    between atoms: C_12  and  C_13 
REMARK       I    between atoms: C_13  and  N_14 
REMARK    4  A    between atoms: N_14  and  C_15 
REMARK    5  A    between atoms: C_15  and  C_16 
REMARK    6  A    between atoms: C_23  and  C_24 
ROOT
HETATM    1  C   UNL     1      21.017  48.289  48.823  1.00  0.00     0.118 C 
HETATM    2  N   UNL     1      22.057  47.465  49.442  1.00  0.00    -0.365 N 
HETATM    3  C   UNL     1      23.363  47.842  49.398  1.00  0.00     0.138 A 
HETATM    4  N   UNL     1      23.748  48.955  48.687  1.00  0.00    -0.240 N 
HETATM    5  N   UNL     1      25.075  49.129  48.613  1.00  0.00    -0.181 NA
HETATM    6  C   UNL     1      25.550  48.140  49.374  1.00  0.00     0.160 A 
HETATM    7  C   UNL     1      24.533  47.308  49.910  1.00  0.00     0.096 A 
HETATM    8  C   UNL     1      22.844  49.796  47.924  1.00  0.00     0.221 C 
HETATM    9  C   UNL     1      21.573  49.003  47.578  1.00  0.00     0.066 C 
HETATM   10  H   UNL     1      21.802  46.485  49.572  1.00  0.00     0.161 HD
ENDROOT
BRANCH   7  11
HETATM   11  C   UNL     1      24.754  46.168  50.779  1.00  0.00     0.257 C 
HETATM   12  N   UNL     1      25.865  46.247  51.583  1.00  0.00    -0.352 N 
HETATM   13  H   UNL     1      26.525  46.994  51.407  1.00  0.00     0.163 HD
HETATM   14  O   UNL     1      24.010  45.194  50.759  1.00  0.00    -0.267 OA
BRANCH  12  15
HETATM   15  C   UNL     1      26.281  45.141  52.415  1.00  0.00     0.161 C 
BRANCH  15  16
HETATM   16  C   UNL     1      27.082  45.579  53.615  1.00  0.00    -0.041 A 
HETATM   17  C   UNL     1      28.098  44.775  54.156  1.00  0.00     0.009 A 
HETATM   18  C   UNL     1      28.880  45.233  55.217  1.00  0.00     0.001 A 
HETATM   19  C   UNL     1      28.671  46.507  55.741  1.00  0.00     0.000 A 
HETATM   20  C   UNL     1      27.679  47.324  55.203  1.00  0.00     0.001 A 
HETATM   21  C   UNL     1      26.891  46.865  54.145  1.00  0.00     0.009 A 
ENDBRANCH  15  16
ENDBRANCH  12  15
ENDBRANCH   7  11
BRANCH   1  22
HETATM   22  C   UNL     1      19.791  47.438  48.550  1.00  0.00    -0.033 A 
HETATM   23  C   UNL     1      19.882  46.120  48.073  1.00  0.00     0.046 A 
HETATM   24  C   UNL     1      18.737  45.353  47.828  1.00  0.00     0.068 A 
HETATM   25  C   UNL     1      17.480  45.898  48.084  1.00  0.00     0.037 A 
HETATM   26  C   UNL     1      17.371  47.197  48.581  1.00  0.00     0.003 A 
HETATM   27  C   UNL     1      18.516  47.960  48.816  1.00  0.00     0.009 A 
BRANCH  24  28
HETATM   28  O   UNL     1      18.986  44.097  47.346  1.00  0.00    -0.356 OA
HETATM   29  C   UNL     1      20.063  43.964  46.426  1.00  0.00     0.210 C 
ENDBRANCH  24  28
ENDBRANCH   1  22
BRANCH   8  30
HETATM   30  C   UNL     1      22.557  51.069  48.688  1.00  0.00     0.409 C 
HETATM   31  F   UNL     1      21.337  51.585  48.425  1.00  0.00    -0.169 F 
HETATM   32  F   UNL     1      22.656  50.912  50.026  1.00  0.00    -0.169 F 
HETATM   33  F   UNL     1      23.462  52.024  48.347  1.00  0.00    -0.169 F 
ENDBRANCH   8  30
TORSDOF 6
ENDMDL
MODEL 8
REMARK VINA RESULT:      -9.4      2.804      8.728
REMARK  6 active torsions:
REMARK  status: ('A' for Active; 'I' for Inactive)
REMARK    1  A    between atoms: O_2  and  C_3 
REMARK    2  A    between atoms: C_5  and  C_6 
REMARK    3  A    between atoms: C_12  and  C_13 
REMARK       I    between atoms: C_13  and  N_14 
REMARK    4  A    between atoms: N_14  and  C_15 
REMARK    5  A    between atoms: C_15  and  C_16 
REMARK    6  A    between atoms: C_23  and  C_24 
ROOT
HETATM    1  C   UNL     1      27.946  43.988  53.573  1.00  0.00     0.118 C 
HETATM    2  N   UNL     1      27.117  44.963  52.861  1.00  0.00    -0.365 N 
HETATM    3  C   UNL     1      26.792  44.779  51.553  1.00  0.00     0.138 A 
HETATM    4  N   UNL     1      27.317  43.724  50.843  1.00  0.00    -0.240 N 
HETATM    5  N   UNL     1      27.026  43.744  49.534  1.00  0.00    -0.181 NA
HETATM    6  C   UNL     1      26.220  44.802  49.422  1.00  0.00     0.160 A 
HETATM    7  C   UNL     1      26.017  45.484  50.650  1.00  0.00     0.096 A 
HETATM    8  C   UNL     1      28.247  42.750  51.383  1.00  0.00     0.221 C 
HETATM    9  C   UNL     1      28.959  43.346  52.609  1.00  0.00     0.066 C 
HETATM   10  H   UNL     1      27.111  45.898  53.272  1.00  0.00     0.161 HD
ENDROOT
BRANCH   7  11
HETATM   11  C   UNL     1      25.181  46.656  50.829  1.00  0.00     0.257 C 
HETATM   12  N   UNL     1      24.484  47.059  49.715  1.00  0.00    -0.352 N 
HETATM   13  H   UNL     1      24.715  46.627  48.830  1.00  0.00     0.163 HD
HETATM   14  O   UNL     1      25.139  47.255  51.898  1.00  0.00    -0.267 OA
BRANCH  12  15
HETATM   15  C   UNL     1      23.703  48.275  49.707  1.00  0.00     0.161 C 
BRANCH  15  16
HETATM   16  C   UNL     1      22.449  48.160  48.876  1.00  0.00    -0.041 A 
HETATM   17  C   UNL     1      21.452  49.148  48.908  1.00  0.00     0.009 A 
HETATM   18  C   UNL     1      20.337  49.061  48.073  1.00  0.00     0.001 A 
HETATM   19  C   UNL     1      20.213  47.998  47.182  1.00  0.00     0.000 A 
HETATM   20  C   UNL     1      21.203  47.020  47.126  1.00  0.00     0.001 A 
HETATM   21  C   UNL     1      22.316  47.101  47.965  1.00  0.00     0.009 A 
ENDBRANCH  15  16
ENDBRANCH  12  15
ENDBRANCH   7  11
BRANCH   1  22
HETATM   22  C   UNL     1      28.579  44.648  54.783  1.00  0.00    -0.033 A 
HETATM   23  C   UNL     1      29.813  44.229  55.309  1.00  0.00     0.046 A 
HETATM   24  C   UNL     1      30.377  44.854  56.428  1.00  0.00     0.068 A 
HETATM   25  C   UNL     1      29.716  45.928  57.020  1.00  0.00     0.037 A 
HETATM   26  C   UNL     1      28.501  46.374  56.496  1.00  0.00     0.003 A 
HETATM   27  C   UNL     1      27.939  45.743  55.385  1.00  0.00     0.009 A 
BRANCH  24  28
HETATM   28  O   UNL     1      31.569  44.320  56.836  1.00  0.00    -0.356 OA
HETATM   29  C   UNL     1      31.577  42.933  57.151  1.00  0.00     0.210 C 
ENDBRANCH  24  28
ENDBRANCH   1  22
BRANCH   8  30
HETATM   30  C   UNL     1      27.521  41.460  51.689  1.00  0.00     0.409 C 
HETATM   31  F   UNL     1      26.177  41.577  51.621  1.00  0.00    -0.169 F 
HETATM   32  F   UNL     1      27.886  40.446  50.877  1.00  0.00    -0.169 F 
HETATM   33  F   UNL     1      27.809  41.060  52.956  1.00  0.00    -0.169 F 
ENDBRANCH   8  30
TORSDOF 6
ENDMDL
MODEL 9
REMARK VINA RESULT:      -9.1      2.480      8.351
REMARK  6 active torsions:
REMARK  status: ('A' for Active; 'I' for Inactive)
REMARK    1  A    between atoms: O_2  and  C_3 
REMARK    2  A    between atoms: C_5  and  C_6 
REMARK    3  A    between atoms: C_12  and  C_13 
REMARK       I    between atoms: C_13  and  N_14 
REMARK    4  A    between atoms: N_14  and  C_15 
REMARK    5  A    between atoms: C_15  and  C_16 
REMARK    6  A    between atoms: C_23  and  C_24 
ROOT
HETATM    1  C   UNL     1      28.226  43.237  53.199  1.00  0.00     0.118 C 
HETATM    2  N   UNL     1      27.640  44.398  52.526  1.00  0.00    -0.365 N 
HETATM    3  C   UNL     1      27.168  44.303  51.254  1.00  0.00     0.138 A 
HETATM    4  N   UNL     1      27.320  43.139  50.536  1.00  0.00    -0.240 N 
HETATM    5  N   UNL     1      26.937  43.230  49.255  1.00  0.00    -0.181 NA
HETATM    6  C   UNL     1      26.446  44.469  49.175  1.00  0.00     0.160 A 
HETATM    7  C   UNL     1      26.544  45.189  50.395  1.00  0.00     0.096 A 
HETATM    8  C   UNL     1      27.989  41.949  51.030  1.00  0.00     0.221 C 
HETATM    9  C   UNL     1      28.938  42.333  52.178  1.00  0.00     0.066 C 
HETATM   10  H   UNL     1      27.927  45.301  52.909  1.00  0.00     0.161 HD
ENDROOT
BRANCH   7  11
HETATM   11  C   UNL     1      26.081  46.548  50.604  1.00  0.00     0.257 C 
HETATM   12  N   UNL     1      25.936  47.304  49.466  1.00  0.00    -0.352 N 
HETATM   13  H   UNL     1      26.304  46.931  48.600  1.00  0.00     0.163 HD
HETATM   14  O   UNL     1      25.872  46.986  51.731  1.00  0.00    -0.267 OA
BRANCH  12  15
HETATM   15  C   UNL     1      25.596  48.707  49.525  1.00  0.00     0.161 C 
BRANCH  15  16
HETATM   16  C   UNL     1      24.250  49.010  48.917  1.00  0.00    -0.041 A 
HETATM   17  C   UNL     1      23.129  48.204  49.170  1.00  0.00     0.009 A 
HETATM   18  C   UNL     1      21.875  48.546  48.661  1.00  0.00     0.001 A 
HETATM   19  C   UNL     1      21.721  49.707  47.907  1.00  0.00     0.000 A 
HETATM   20  C   UNL     1      22.820  50.528  47.663  1.00  0.00     0.001 A 
HETATM   21  C   UNL     1      24.076  50.183  48.166  1.00  0.00     0.009 A 
ENDBRANCH  15  16
ENDBRANCH  12  15
ENDBRANCH   7  11
BRANCH   1  22
HETATM   22  C   UNL     1      29.116  43.704  54.335  1.00  0.00    -0.033 A 
HETATM   23  C   UNL     1      28.823  44.848  55.098  1.00  0.00     0.046 A 
HETATM   24  C   UNL     1      29.660  45.260  56.142  1.00  0.00     0.068 A 
HETATM   25  C   UNL     1      30.794  44.511  56.448  1.00  0.00     0.037 A 
HETATM   26  C   UNL     1      31.087  43.358  55.718  1.00  0.00     0.003 A 
HETATM   27  C   UNL     1      30.254  42.956  54.673  1.00  0.00     0.009 A 
BRANCH  24  28
HETATM   28  O   UNL     1      29.255  46.403  56.777  1.00  0.00    -0.356 OA
HETATM   29  C   UNL     1      28.798  46.265  58.117  1.00  0.00     0.210 C 
ENDBRANCH  24  28
ENDBRANCH   1  22
BRANCH   8  30
HETATM   30  C   UNL     1      26.964  40.913  51.431  1.00  0.00     0.409 C 
HETATM   31  F   UNL     1      27.161  40.423  52.675  1.00  0.00    -0.169 F 
HETATM   32  F   UNL     1      25.697  41.375  51.369  1.00  0.00    -0.169 F 
HETATM   33  F   UNL     1      27.028  39.852  50.584  1.00  0.00    -0.169 F 
ENDBRANCH   8  30
TORSDOF 6
ENDMDL
MODEL 10
REMARK VINA RESULT:      -9.0      3.950      7.816
REMARK  6 active torsions:
REMARK  status: ('A' for Active; 'I' for Inactive)
REMARK    1  A    between atoms: O_2  and  C_3 
REMARK    2  A    between atoms: C_5  and  C_6 
REMARK    3  A    between atoms: C_12  and  C_13 
REMARK       I    between atoms: C_13  and  N_14 
REMARK    4  A    between atoms: N_14  and  C_15 
REMARK    5  A    between atoms: C_15  and  C_16 
REMARK    6  A    between atoms: C_23  and  C_24 
ROOT
HETATM    1  C   UNL     1      25.375  46.777  50.463  1.00  0.00     0.118 C 
HETATM    2  N   UNL     1      24.184  46.216  49.820  1.00  0.00    -0.365 N 
HETATM    3  C   UNL     1      23.810  44.928  50.048  1.00  0.00     0.138 A 
HETATM    4  N   UNL     1      24.596  44.095  50.810  1.00  0.00    -0.240 N 
HETATM    5  N   UNL     1      24.181  42.820  50.836  1.00  0.00    -0.181 NA
HETATM    6  C   UNL     1      23.045  42.860  50.135  1.00  0.00     0.160 A 
HETATM    7  C   UNL     1      22.745  44.151  49.628  1.00  0.00     0.096 A 
HETATM    8  C   UNL     1      25.862  44.477  51.408  1.00  0.00     0.221 C 
HETATM    9  C   UNL     1      26.442  45.685  50.653  1.00  0.00     0.066 C 
HETATM   10  H   UNL     1      23.892  46.700  48.970  1.00  0.00     0.161 HD
ENDROOT
BRANCH   7  11
HETATM   11  C   UNL     1      21.573  44.492  48.844  1.00  0.00     0.257 C 
HETATM   12  N   UNL     1      20.911  45.630  49.238  1.00  0.00    -0.352 N 
HETATM   13  H   UNL     1      21.179  46.053  50.117  1.00  0.00     0.163 HD
HETATM   14  O   UNL     1      21.192  43.782  47.920  1.00  0.00    -0.267 OA
BRANCH  12  15
HETATM   15  C   UNL     1      19.664  46.032  48.629  1.00  0.00     0.161 C 
BRANCH  15  16
HETATM   16  C   UNL     1      19.427  47.520  48.705  1.00  0.00    -0.041 A 
HETATM   17  C   UNL     1      19.039  48.144  49.901  1.00  0.00     0.009 A 
HETATM   18  C   UNL     1      18.903  49.531  49.969  1.00  0.00     0.001 A 
HETATM   19  C   UNL     1      19.168  50.315  48.848  1.00  0.00     0.000 A 
HETATM   20  C   UNL     1      19.571  49.712  47.659  1.00  0.00     0.001 A 
HETATM   21  C   UNL     1      19.703  48.323  47.588  1.00  0.00     0.009 A 
ENDBRANCH  15  16
ENDBRANCH  12  15
ENDBRANCH   7  11
BRANCH   1  22
HETATM   22  C   UNL     1      25.857  47.980  49.676  1.00  0.00    -0.033 A 
HETATM   23  C   UNL     1      24.986  48.780  48.917  1.00  0.00     0.046 A 
HETATM   24  C   UNL     1      25.454  49.886  48.198  1.00  0.00     0.068 A 
HETATM   25  C   UNL     1      26.807  50.217  48.253  1.00  0.00     0.037 A 
HETATM   26  C   UNL     1      27.682  49.449  49.022  1.00  0.00     0.003 A 
HETATM   27  C   UNL     1      27.212  48.343  49.730  1.00  0.00     0.009 A 
BRANCH  24  28
HETATM   28  O   UNL     1      24.491  50.553  47.490  1.00  0.00    -0.356 OA
HETATM   29  C   UNL     1      23.196  50.619  48.074  1.00  0.00     0.210 C 
ENDBRANCH  24  28
ENDBRANCH   1  22
BRANCH   8  30
HETATM   30  C   UNL     1      25.674  44.737  52.885  1.00  0.00     0.409 C 
HETATM   31  F   UNL     1      26.475  45.716  53.360  1.00  0.00    -0.169 F 
HETATM   32  F   UNL     1      24.403  45.057  53.206  1.00  0.00    -0.169 F 
HETATM   33  F   UNL     1      25.977  43.615  53.591  1.00  0.00    -0.169 F 
ENDBRANCH   8  30
TORSDOF 6
ENDMDL
