MODEL 1
REMARK VINA RESULT:      -9.2      0.000      0.000
REMARK  5 active torsions:
REMARK  status: ('A' for Active; 'I' for Inactive)
REMARK    1  A    between atoms: C_10  and  C_11 
REMARK    2  A    between atoms: C_13  and  O_14 
REMARK    3  A    between atoms: C_16  and  O_17 
REMARK    4  A    between atoms: O_17  and  C_18 
REMARK    5  A    between atoms: C_18  and  C_19 
ROOT
HETATM    1  C   UNL     1      26.031  41.414  49.476  1.00  0.00    -0.013 A 
HETATM    2  C   UNL     1      26.307  42.749  49.116  1.00  0.00     0.050 A 
HETATM    3  C   UNL     1      27.044  43.588  49.956  1.00  0.00     0.102 A 
HETATM    4  C   UNL     1      27.550  43.068  51.154  1.00  0.00     0.112 A 
HETATM    5  C   UNL     1      27.260  41.764  51.553  1.00  0.00     0.041 A 
HETATM    6  C   UNL     1      26.514  40.940  50.710  1.00  0.00     0.014 A 
ENDROOT
BRANCH   1   7
HETATM    7  C   UNL     1      25.308  40.451  48.548  1.00  0.00     0.219 C 
HETATM    8  N   UNL     1      25.431  40.814  47.149  1.00  0.00    -0.358 N 
HETATM    9  C   UNL     1      26.349  40.202  46.374  1.00  0.00     0.088 A 
HETATM   10  H   UNL     1      25.087  41.741  46.912  1.00  0.00     0.162 HD
HETATM   11  C   UNL     1      27.014  39.061  46.754  1.00  0.00     0.073 A 
HETATM   12  S   UNL     1      26.830  40.759  44.842  1.00  0.00    -0.074 SA
HETATM   13  C   UNL     1      27.947  38.630  45.756  1.00  0.00    -0.023 A 
HETATM   14  C   UNL     1      26.707  38.460  48.039  1.00  0.00     0.256 C 
HETATM   15  C   UNL     1      27.942  39.483  44.668  1.00  0.00     0.018 A 
HETATM   16  C   UNL     1      28.856  37.438  45.821  1.00  0.00     0.068 C 
HETATM   17  C   UNL     1      28.782  39.317  43.449  1.00  0.00     0.281 C 
HETATM   18  N   UNL     1      29.924  38.346  43.723  1.00  0.00    -0.070 N 
HETATM   19  C   UNL     1      30.705  38.035  42.486  1.00  0.00     0.270 C 
HETATM   20  H   UNL     1      30.557  38.830  44.375  1.00  0.00     0.279 HD
HETATM   21  C   UNL     1      29.434  37.088  44.438  1.00  0.00     0.239 C 
HETATM   22  N   UNL     1      25.745  39.096  48.769  1.00  0.00    -0.332 N 
HETATM   23  O   UNL     1      27.248  37.433  48.433  1.00  0.00    -0.267 OA
HETATM   24  H   UNL     1      25.602  38.705  49.689  1.00  0.00     0.165 HD
ENDBRANCH   1   7
BRANCH   3  25
HETATM   25  O   UNL     1      27.349  44.895  49.685  1.00  0.00    -0.353 OA
HETATM   26  C   UNL     1      26.280  45.830  49.726  1.00  0.00     0.210 C 
ENDBRANCH   3  25
BRANCH   4  27
HETATM   27  O   UNL     1      28.313  43.930  51.961  1.00  0.00    -0.272 OA
BRANCH  27  28
HETATM   28  C   UNL     1      27.728  44.315  53.150  1.00  0.00     0.300 C 
HETATM   29  O   UNL     1      26.597  44.714  53.364  1.00  0.00    -0.259 OA
BRANCH  28  30
HETATM   30  C   UNL     1      28.757  44.203  54.190  1.00  0.00     0.061 A 
HETATM   31  C   UNL     1      29.020  45.270  55.056  1.00  0.00     0.051 A 
HETATM   32 CL   UNL     1      28.166  46.768  54.963  1.00  0.00    -0.083 Cl
HETATM   33  C   UNL     1      30.018  45.144  56.026  1.00  0.00     0.048 A 
HETATM   34  C   UNL     1      30.748  43.959  56.115  1.00  0.00     0.035 A 
HETATM   35 CL   UNL     1      31.977  43.807  57.308  1.00  0.00    -0.084 Cl
HETATM   36  C   UNL     1      30.495  42.899  55.243  1.00  0.00     0.025 A 
HETATM   37  C   UNL     1      29.499  43.019  54.272  1.00  0.00     0.021 A 
ENDBRANCH  28  30
ENDBRANCH  27  28
ENDBRANCH   4  27
TORSDOF 5
ENDMDL
MODEL 2
REMARK VINA RESULT:      -9.2      6.010      9.909
REMARK  5 active torsions:
REMARK  status: ('A' for Active; 'I' for Inactive)
REMARK    1  A    between atoms: C_10  and  C_11 
REMARK    2  A    between atoms: C_13  and  O_14 
REMARK    3  A    between atoms: C_16  and  O_17 
REMARK    4  A    between atoms: O_17  and  C_18 
REMARK    5  A    between atoms: C_18  and  C_19 
ROOT
HETATM    1  C   UNL     1      24.184  47.236  49.552  1.00  0.00    -0.013 A 
HETATM    2  C   UNL     1      25.090  47.495  50.599  1.00  0.00     0.050 A 
HETATM    3  C   UNL     1      25.389  46.522  51.557  1.00  0.00     0.102 A 
HETATM    4  C   UNL     1      24.805  45.254  51.435  1.00  0.00     0.112 A 
HETATM    5  C   UNL     1      23.876  44.983  50.432  1.00  0.00     0.041 A 
HETATM    6  C   UNL     1      23.578  45.967  49.490  1.00  0.00     0.014 A 
ENDROOT
BRANCH   1   7
HETATM    7  C   UNL     1      23.903  48.242  48.447  1.00  0.00     0.219 C 
HETATM    8  N   UNL     1      22.650  47.995  47.761  1.00  0.00    -0.358 N 
HETATM    9  C   UNL     1      21.549  48.697  48.097  1.00  0.00     0.088 A 
HETATM   10  H   UNL     1      22.569  47.078  47.330  1.00  0.00     0.162 HD
HETATM   11  C   UNL     1      21.587  49.828  48.877  1.00  0.00     0.073 A 
HETATM   12  S   UNL     1      19.969  48.279  47.630  1.00  0.00    -0.074 SA
HETATM   13  C   UNL     1      20.279  50.368  49.098  1.00  0.00    -0.023 A 
HETATM   14  C   UNL     1      22.870  50.315  49.351  1.00  0.00     0.256 C 
HETATM   15  C   UNL     1      19.312  49.603  48.472  1.00  0.00     0.018 A 
HETATM   16  C   UNL     1      19.925  51.582  49.905  1.00  0.00     0.068 C 
HETATM   17  C   UNL     1      17.851  49.893  48.489  1.00  0.00     0.281 C 
HETATM   18  N   UNL     1      17.521  50.880  49.603  1.00  0.00    -0.070 N 
HETATM   19  C   UNL     1      16.091  51.313  49.562  1.00  0.00     0.270 C 
HETATM   20  H   UNL     1      17.665  50.369  50.484  1.00  0.00     0.279 HD
HETATM   21  C   UNL     1      18.491  52.060  49.615  1.00  0.00     0.239 C 
HETATM   22  N   UNL     1      23.956  49.591  48.953  1.00  0.00    -0.332 N 
HETATM   23  O   UNL     1      22.979  51.327  50.034  1.00  0.00    -0.267 OA
HETATM   24  H   UNL     1      24.828  49.904  49.355  1.00  0.00     0.165 HD
ENDBRANCH   1   7
BRANCH   3  25
HETATM   25  O   UNL     1      26.252  46.695  52.606  1.00  0.00    -0.353 OA
HETATM   26  C   UNL     1      25.768  47.423  53.725  1.00  0.00     0.210 C 
ENDBRANCH   3  25
BRANCH   4  27
HETATM   27  O   UNL     1      25.151  44.289  52.397  1.00  0.00    -0.272 OA
BRANCH  27  28
HETATM   28  C   UNL     1      25.983  43.279  51.961  1.00  0.00     0.300 C 
HETATM   29  O   UNL     1      25.801  42.447  51.090  1.00  0.00    -0.259 OA
BRANCH  28  30
HETATM   30  C   UNL     1      27.193  43.331  52.790  1.00  0.00     0.061 A 
HETATM   31  C   UNL     1      27.109  43.545  54.170  1.00  0.00     0.051 A 
HETATM   32 CL   UNL     1      25.599  43.759  54.982  1.00  0.00    -0.083 Cl
HETATM   33  C   UNL     1      28.277  43.609  54.932  1.00  0.00     0.048 A 
HETATM   34  C   UNL     1      29.517  43.467  54.309  1.00  0.00     0.035 A 
HETATM   35 CL   UNL     1      30.954  43.548  55.250  1.00  0.00    -0.084 Cl
HETATM   36  C   UNL     1      29.602  43.266  52.930  1.00  0.00     0.025 A 
HETATM   37  C   UNL     1      28.438  43.201  52.163  1.00  0.00     0.021 A 
ENDBRANCH  28  30
ENDBRANCH  27  28
ENDBRANCH   4  27
TORSDOF 5
ENDMDL
MODEL 3
REMARK VINA RESULT:      -9.2      6.624      9.702
REMARK  5 active torsions:
REMARK  status: ('A' for Active; 'I' for Inactive)
REMARK    1  A    between atoms: C_10  and  C_11 
REMARK    2  A    between atoms: C_13  and  O_14 
REMARK    3  A    between atoms: C_16  and  O_17 
REMARK    4  A    between atoms: O_17  and  C_18 
REMARK    5  A    between atoms: C_18  and  C_19 
ROOT
HETATM    1  C   UNL     1      23.479  46.424  49.384  1.00  0.00    -0.013 A 
HETATM    2  C   UNL     1      24.477  47.403  49.563  1.00  0.00     0.050 A 
HETATM    3  C   UNL     1      25.484  47.247  50.520  1.00  0.00     0.102 A 
HETATM    4  C   UNL     1      25.516  46.070  51.279  1.00  0.00     0.112 A 
HETATM    5  C   UNL     1      24.520  45.103  51.150  1.00  0.00     0.041 A 
HETATM    6  C   UNL     1      23.515  45.277  50.199  1.00  0.00     0.014 A 
ENDROOT
BRANCH   1   7
HETATM    7  C   UNL     1      22.423  46.523  48.295  1.00  0.00     0.219 C 
HETATM    8  N   UNL     1      21.072  46.570  48.820  1.00  0.00    -0.358 N 
HETATM    9  C   UNL     1      20.442  47.755  48.948  1.00  0.00     0.088 A 
HETATM   10  H   UNL     1      20.805  45.776  49.395  1.00  0.00     0.162 HD
HETATM   11  C   UNL     1      20.896  48.916  48.369  1.00  0.00     0.073 A 
HETATM   12  S   UNL     1      19.021  47.989  49.853  1.00  0.00    -0.074 SA
HETATM   13  C   UNL     1      20.052  50.031  48.677  1.00  0.00    -0.023 A 
HETATM   14  C   UNL     1      22.099  48.876  47.559  1.00  0.00     0.256 C 
HETATM   15  C   UNL     1      18.999  49.651  49.488  1.00  0.00     0.018 A 
HETATM   16  C   UNL     1      20.234  51.454  48.236  1.00  0.00     0.068 C 
HETATM   17  C   UNL     1      17.928  50.562  49.981  1.00  0.00     0.281 C 
HETATM   18  N   UNL     1      18.360  52.015  49.829  1.00  0.00    -0.070 N 
HETATM   19  C   UNL     1      17.259  52.966  50.173  1.00  0.00     0.270 C 
HETATM   20  H   UNL     1      19.117  52.158  50.511  1.00  0.00     0.279 HD
HETATM   21  C   UNL     1      18.955  52.283  48.448  1.00  0.00     0.239 C 
HETATM   22  N   UNL     1      22.680  47.647  47.430  1.00  0.00    -0.332 N 
HETATM   23  O   UNL     1      22.550  49.869  46.999  1.00  0.00    -0.267 OA
HETATM   24  H   UNL     1      23.555  47.656  46.926  1.00  0.00     0.165 HD
ENDBRANCH   1   7
BRANCH   3  25
HETATM   25  O   UNL     1      26.484  48.151  50.759  1.00  0.00    -0.353 OA
HETATM   26  C   UNL     1      27.200  48.634  49.631  1.00  0.00     0.210 C 
ENDBRANCH   3  25
BRANCH   4  27
HETATM   27  O   UNL     1      26.559  45.931  52.210  1.00  0.00    -0.272 OA
BRANCH  27  28
HETATM   28  C   UNL     1      26.194  45.467  53.457  1.00  0.00     0.300 C 
HETATM   29  O   UNL     1      25.105  45.491  54.004  1.00  0.00    -0.259 OA
BRANCH  28  30
HETATM   30  C   UNL     1      27.406  44.938  54.091  1.00  0.00     0.061 A 
HETATM   31  C   UNL     1      28.198  45.747  54.912  1.00  0.00     0.051 A 
HETATM   32 CL   UNL     1      27.811  47.400  55.232  1.00  0.00    -0.083 Cl
HETATM   33  C   UNL     1      29.358  45.223  55.488  1.00  0.00     0.048 A 
HETATM   34  C   UNL     1      29.720  43.901  55.232  1.00  0.00     0.035 A 
HETATM   35 CL   UNL     1      31.149  43.259  55.942  1.00  0.00    -0.084 Cl
HETATM   36  C   UNL     1      28.937  43.096  54.403  1.00  0.00     0.025 A 
HETATM   37  C   UNL     1      27.777  43.614  53.824  1.00  0.00     0.021 A 
ENDBRANCH  28  30
ENDBRANCH  27  28
ENDBRANCH   4  27
TORSDOF 5
ENDMDL
MODEL 4
REMARK VINA RESULT:      -9.1      5.788      9.636
REMARK  5 active torsions:
REMARK  status: ('A' for Active; 'I' for Inactive)
REMARK    1  A    between atoms: C_10  and  C_11 
REMARK    2  A    between atoms: C_13  and  O_14 
REMARK    3  A    between atoms: C_16  and  O_17 
REMARK    4  A    between atoms: O_17  and  C_18 
REMARK    5  A    between atoms: C_18  and  C_19 
ROOT
HETATM    1  C   UNL     1      24.367  46.857  49.641  1.00  0.00    -0.013 A 
HETATM    2  C   UNL     1      23.911  45.543  49.875  1.00  0.00     0.050 A 
HETATM    3  C   UNL     1      24.218  44.870  51.061  1.00  0.00     0.102 A 
HETATM    4  C   UNL     1      24.954  45.540  52.046  1.00  0.00     0.112 A 
HETATM    5  C   UNL     1      25.449  46.824  51.826  1.00  0.00     0.041 A 
HETATM    6  C   UNL     1      25.146  47.481  50.633  1.00  0.00     0.014 A 
ENDROOT
BRANCH   1   7
HETATM    7  C   UNL     1      23.979  47.647  48.402  1.00  0.00     0.219 C 
HETATM    8  N   UNL     1      22.636  47.351  47.940  1.00  0.00    -0.358 N 
HETATM    9  C   UNL     1      21.618  48.175  48.263  1.00  0.00     0.088 A 
HETATM   10  H   UNL     1      22.463  46.376  47.714  1.00  0.00     0.162 HD
HETATM   11  C   UNL     1      21.803  49.430  48.791  1.00  0.00     0.073 A 
HETATM   12  S   UNL     1      19.975  47.775  48.089  1.00  0.00    -0.074 SA
HETATM   13  C   UNL     1      20.558  50.084  49.060  1.00  0.00    -0.023 A 
HETATM   14  C   UNL     1      23.155  49.917  48.995  1.00  0.00     0.256 C 
HETATM   15  C   UNL     1      19.488  49.276  48.725  1.00  0.00     0.018 A 
HETATM   16  C   UNL     1      20.362  51.451  49.647  1.00  0.00     0.068 C 
HETATM   17  C   UNL     1      18.054  49.656  48.865  1.00  0.00     0.281 C 
HETATM   18  N   UNL     1      17.914  50.858  49.792  1.00  0.00    -0.070 N 
HETATM   19  C   UNL     1      16.509  51.365  49.843  1.00  0.00     0.270 C 
HETATM   20  H   UNL     1      18.156  50.518  50.733  1.00  0.00     0.279 HD
HETATM   21  C   UNL     1      18.921  51.954  49.448  1.00  0.00     0.239 C 
HETATM   22  N   UNL     1      24.150  49.062  48.619  1.00  0.00    -0.332 N 
HETATM   23  O   UNL     1      23.393  51.032  49.445  1.00  0.00    -0.267 OA
HETATM   24  H   UNL     1      25.080  49.390  48.838  1.00  0.00     0.165 HD
ENDBRANCH   1   7
BRANCH   3  25
HETATM   25  O   UNL     1      23.821  43.595  51.362  1.00  0.00    -0.353 OA
HETATM   26  C   UNL     1      23.967  42.616  50.343  1.00  0.00     0.210 C 
ENDBRANCH   3  25
BRANCH   4  27
HETATM   27  O   UNL     1      25.219  44.845  53.239  1.00  0.00    -0.272 OA
BRANCH  27  28
HETATM   28  C   UNL     1      25.796  45.585  54.250  1.00  0.00     0.300 C 
HETATM   29  O   UNL     1      25.378  46.577  54.820  1.00  0.00    -0.259 OA
BRANCH  28  30
HETATM   30  C   UNL     1      27.102  44.979  54.534  1.00  0.00     0.061 A 
HETATM   31  C   UNL     1      28.101  45.704  55.191  1.00  0.00     0.051 A 
HETATM   32 CL   UNL     1      27.872  47.337  55.706  1.00  0.00    -0.083 Cl
HETATM   33  C   UNL     1      29.343  45.110  55.431  1.00  0.00     0.048 A 
HETATM   34  C   UNL     1      29.576  43.803  55.007  1.00  0.00     0.035 A 
HETATM   35 CL   UNL     1      31.105  43.074  55.303  1.00  0.00    -0.084 Cl
HETATM   36  C   UNL     1      28.584  43.082  54.340  1.00  0.00     0.025 A 
HETATM   37  C   UNL     1      27.341  43.671  54.096  1.00  0.00     0.021 A 
ENDBRANCH  28  30
ENDBRANCH  27  28
ENDBRANCH   4  27
TORSDOF 5
ENDMDL
MODEL 5
REMARK VINA RESULT:      -8.8      5.927      9.717
REMARK  5 active torsions:
REMARK  status: ('A' for Active; 'I' for Inactive)
REMARK    1  A    between atoms: C_10  and  C_11 
REMARK    2  A    between atoms: C_13  and  O_14 
REMARK    3  A    between atoms: C_16  and  O_17 
REMARK    4  A    between atoms: O_17  and  C_18 
REMARK    5  A    between atoms: C_18  and  C_19 
ROOT
HETATM    1  C   UNL     1      23.323  46.131  49.240  1.00  0.00    -0.013 A 
HETATM    2  C   UNL     1      23.398  44.843  49.808  1.00  0.00     0.050 A 
HETATM    3  C   UNL     1      24.156  44.601  50.958  1.00  0.00     0.102 A 
HETATM    4  C   UNL     1      24.811  45.676  51.573  1.00  0.00     0.112 A 
HETATM    5  C   UNL     1      24.785  46.951  51.011  1.00  0.00     0.041 A 
HETATM    6  C   UNL     1      24.034  47.177  49.857  1.00  0.00     0.014 A 
ENDROOT
BRANCH   1   7
HETATM    7  C   UNL     1      22.440  46.444  48.043  1.00  0.00     0.219 C 
HETATM    8  N   UNL     1      21.029  46.486  48.375  1.00  0.00    -0.358 N 
HETATM    9  C   UNL     1      20.425  47.672  48.593  1.00  0.00     0.088 A 
HETATM   10  H   UNL     1      20.657  45.631  48.780  1.00  0.00     0.162 HD
HETATM   11  C   UNL     1      20.995  48.879  48.267  1.00  0.00     0.073 A 
HETATM   12  S   UNL     1      18.896  47.845  49.317  1.00  0.00    -0.074 SA
HETATM   13  C   UNL     1      20.151  49.980  48.621  1.00  0.00    -0.023 A 
HETATM   14  C   UNL     1      22.302  48.893  47.636  1.00  0.00     0.256 C 
HETATM   15  C   UNL     1      18.980  49.542  49.210  1.00  0.00     0.018 A 
HETATM   16  C   UNL     1      20.441  51.440  48.432  1.00  0.00     0.068 C 
HETATM   17  C   UNL     1      17.878  50.427  49.682  1.00  0.00     0.281 C 
HETATM   18  N   UNL     1      18.374  51.862  49.815  1.00  0.00    -0.070 N 
HETATM   19  C   UNL     1      17.265  52.809  50.143  1.00  0.00     0.270 C 
HETATM   20  H   UNL     1      19.028  51.863  50.609  1.00  0.00     0.279 HD
HETATM   21  C   UNL     1      19.172  52.297  48.587  1.00  0.00     0.239 C 
HETATM   22  N   UNL     1      22.856  47.668  47.403  1.00  0.00    -0.332 N 
HETATM   23  O   UNL     1      22.861  49.932  47.302  1.00  0.00    -0.267 OA
HETATM   24  H   UNL     1      23.794  47.704  47.033  1.00  0.00     0.165 HD
ENDBRANCH   1   7
BRANCH   3  25
HETATM   25  O   UNL     1      24.285  43.382  51.567  1.00  0.00    -0.353 OA
HETATM   26  C   UNL     1      24.805  42.319  50.781  1.00  0.00     0.210 C 
ENDBRANCH   3  25
BRANCH   4  27
HETATM   27  O   UNL     1      25.538  45.403  52.744  1.00  0.00    -0.272 OA
BRANCH  27  28
HETATM   28  C   UNL     1      26.875  45.115  52.568  1.00  0.00     0.300 C 
HETATM   29  O   UNL     1      27.454  44.697  51.581  1.00  0.00    -0.259 OA
BRANCH  28  30
HETATM   30  C   UNL     1      27.542  45.368  53.850  1.00  0.00     0.061 A 
HETATM   31  C   UNL     1      27.235  46.504  54.607  1.00  0.00     0.051 A 
HETATM   32 CL   UNL     1      26.069  47.670  54.092  1.00  0.00    -0.083 Cl
HETATM   33  C   UNL     1      27.899  46.731  55.814  1.00  0.00     0.048 A 
HETATM   34  C   UNL     1      28.867  45.826  56.251  1.00  0.00     0.035 A 
HETATM   35 CL   UNL     1      29.683  46.109  57.738  1.00  0.00    -0.084 Cl
HETATM   36  C   UNL     1      29.183  44.699  55.491  1.00  0.00     0.025 A 
HETATM   37  C   UNL     1      28.523  44.468  54.283  1.00  0.00     0.021 A 
ENDBRANCH  28  30
ENDBRANCH  27  28
ENDBRANCH   4  27
TORSDOF 5
ENDMDL
MODEL 6
REMARK VINA RESULT:      -8.5     13.984     15.528
REMARK  5 active torsions:
REMARK  status: ('A' for Active; 'I' for Inactive)
REMARK    1  A    between atoms: C_10  and  C_11 
REMARK    2  A    between atoms: C_13  and  O_14 
REMARK    3  A    between atoms: C_16  and  O_17 
REMARK    4  A    between atoms: O_17  and  C_18 
REMARK    5  A    between atoms: C_18  and  C_19 
ROOT
HETATM    1  C   UNL     1      36.252  50.810  42.185  1.00  0.00    -0.013 A 
HETATM    2  C   UNL     1      37.561  50.485  42.593  1.00  0.00     0.050 A 
HETATM    3  C   UNL     1      38.139  51.082  43.718  1.00  0.00     0.102 A 
HETATM    4  C   UNL     1      37.375  51.984  44.470  1.00  0.00     0.112 A 
HETATM    5  C   UNL     1      36.093  52.352  44.067  1.00  0.00     0.041 A 
HETATM    6  C   UNL     1      35.532  51.758  42.936  1.00  0.00     0.014 A 
ENDROOT
BRANCH   1   7
HETATM    7  C   UNL     1      35.564  50.116  41.020  1.00  0.00     0.219 C 
HETATM    8  N   UNL     1      34.393  49.362  41.422  1.00  0.00    -0.358 N 
HETATM    9  C   UNL     1      33.165  49.899  41.273  1.00  0.00     0.088 A 
HETATM   10  H   UNL     1      34.563  48.639  42.115  1.00  0.00     0.162 HD
HETATM   11  C   UNL     1      32.920  51.022  40.521  1.00  0.00     0.073 A 
HETATM   12  S   UNL     1      31.759  49.284  42.007  1.00  0.00    -0.074 SA
HETATM   13  C   UNL     1      31.536  51.390  40.546  1.00  0.00    -0.023 A 
HETATM   14  C   UNL     1      34.023  51.661  39.827  1.00  0.00     0.256 C 
HETATM   15  C   UNL     1      30.803  50.520  41.332  1.00  0.00     0.018 A 
HETATM   16  C   UNL     1      30.897  52.560  39.858  1.00  0.00     0.068 C 
HETATM   17  C   UNL     1      29.333  50.606  41.560  1.00  0.00     0.281 C 
HETATM   18  N   UNL     1      28.819  51.986  41.167  1.00  0.00    -0.070 N 
HETATM   19  C   UNL     1      27.328  52.069  41.240  1.00  0.00     0.270 C 
HETATM   20  H   UNL     1      29.200  52.639  41.866  1.00  0.00     0.279 HD
HETATM   21  C   UNL     1      29.365  52.425  39.810  1.00  0.00     0.239 C 
HETATM   22  N   UNL     1      35.239  51.059  39.979  1.00  0.00    -0.332 N 
HETATM   23  O   UNL     1      33.874  52.654  39.125  1.00  0.00    -0.267 OA
HETATM   24  H   UNL     1      36.003  51.561  39.550  1.00  0.00     0.165 HD
ENDBRANCH   1   7
BRANCH   3  25
HETATM   25  O   UNL     1      39.403  50.827  44.176  1.00  0.00    -0.353 OA
HETATM   26  C   UNL     1      39.845  49.477  44.135  1.00  0.00     0.210 C 
ENDBRANCH   3  25
BRANCH   4  27
HETATM   27  O   UNL     1      37.975  52.542  45.612  1.00  0.00    -0.272 OA
BRANCH  27  28
HETATM   28  C   UNL     1      38.376  53.857  45.498  1.00  0.00     0.300 C 
HETATM   29  O   UNL     1      37.865  54.772  44.877  1.00  0.00    -0.259 OA
BRANCH  28  30
HETATM   30  C   UNL     1      39.622  53.994  46.260  1.00  0.00     0.061 A 
HETATM   31  C   UNL     1      39.613  53.978  47.659  1.00  0.00     0.051 A 
HETATM   32 CL   UNL     1      38.158  53.801  48.572  1.00  0.00    -0.083 Cl
HETATM   33  C   UNL     1      40.812  54.130  48.360  1.00  0.00     0.048 A 
HETATM   34  C   UNL     1      42.005  54.303  47.659  1.00  0.00     0.035 A 
HETATM   35 CL   UNL     1      43.479  54.491  48.525  1.00  0.00    -0.084 Cl
HETATM   36  C   UNL     1      42.013  54.331  46.263  1.00  0.00     0.025 A 
HETATM   37  C   UNL     1      40.818  54.181  45.557  1.00  0.00     0.021 A 
ENDBRANCH  28  30
ENDBRANCH  27  28
ENDBRANCH   4  27
TORSDOF 5
ENDMDL
MODEL 7
REMARK VINA RESULT:      -8.3     11.787     13.855
REMARK  5 active torsions:
REMARK  status: ('A' for Active; 'I' for Inactive)
REMARK    1  A    between atoms: C_10  and  C_11 
REMARK    2  A    between atoms: C_13  and  O_14 
REMARK    3  A    between atoms: C_16  and  O_17 
REMARK    4  A    between atoms: O_17  and  C_18 
REMARK    5  A    between atoms: C_18  and  C_19 
ROOT
HETATM    1  C   UNL     1      27.574  49.932  39.056  1.00  0.00    -0.013 A 
HETATM    2  C   UNL     1      28.250  49.357  40.151  1.00  0.00     0.050 A 
HETATM    3  C   UNL     1      28.975  50.145  41.050  1.00  0.00     0.102 A 
HETATM    4  C   UNL     1      28.984  51.535  40.874  1.00  0.00     0.112 A 
HETATM    5  C   UNL     1      28.356  52.125  39.779  1.00  0.00     0.041 A 
HETATM    6  C   UNL     1      27.646  51.326  38.882  1.00  0.00     0.014 A 
ENDROOT
BRANCH   1   7
HETATM    7  C   UNL     1      26.707  49.114  38.111  1.00  0.00     0.219 C 
HETATM    8  N   UNL     1      26.374  47.805  38.639  1.00  0.00    -0.358 N 
HETATM    9  C   UNL     1      25.178  47.603  39.229  1.00  0.00     0.088 A 
HETATM   10  H   UNL     1      27.171  47.217  38.867  1.00  0.00     0.162 HD
HETATM   11  C   UNL     1      24.134  48.491  39.137  1.00  0.00     0.073 A 
HETATM   12  S   UNL     1      24.800  46.246  40.181  1.00  0.00    -0.074 SA
HETATM   13  C   UNL     1      22.987  48.044  39.869  1.00  0.00    -0.023 A 
HETATM   14  C   UNL     1      24.303  49.700  38.352  1.00  0.00     0.256 C 
HETATM   15  C   UNL     1      23.233  46.833  40.489  1.00  0.00     0.018 A 
HETATM   16  C   UNL     1      21.671  48.750  40.011  1.00  0.00     0.068 C 
HETATM   17  C   UNL     1      22.249  46.082  41.318  1.00  0.00     0.281 C 
HETATM   18  N   UNL     1      21.102  46.997  41.733  1.00  0.00    -0.070 N 
HETATM   19  C   UNL     1      20.017  46.249  42.440  1.00  0.00     0.270 C 
HETATM   20  H   UNL     1      21.503  47.667  42.402  1.00  0.00     0.279 HD
HETATM   21  C   UNL     1      20.578  47.812  40.553  1.00  0.00     0.239 C 
HETATM   22  N   UNL     1      25.518  49.841  37.745  1.00  0.00    -0.332 N 
HETATM   23  O   UNL     1      23.408  50.526  38.212  1.00  0.00    -0.267 OA
HETATM   24  H   UNL     1      25.639  50.722  37.267  1.00  0.00     0.165 HD
ENDBRANCH   1   7
BRANCH   3  25
HETATM   25  O   UNL     1      29.662  49.666  42.132  1.00  0.00    -0.353 OA
HETATM   26  C   UNL     1      30.729  48.764  41.872  1.00  0.00     0.210 C 
ENDBRANCH   3  25
BRANCH   4  27
HETATM   27  O   UNL     1      29.696  52.300  41.813  1.00  0.00    -0.272 OA
BRANCH  27  28
HETATM   28  C   UNL     1      30.728  53.063  41.308  1.00  0.00     0.300 C 
HETATM   29  O   UNL     1      30.695  54.161  40.782  1.00  0.00    -0.259 OA
BRANCH  28  30
HETATM   30  C   UNL     1      31.960  52.283  41.475  1.00  0.00     0.061 A 
HETATM   31  C   UNL     1      32.627  51.750  40.367  1.00  0.00     0.051 A 
HETATM   32 CL   UNL     1      32.057  51.968  38.751  1.00  0.00    -0.083 Cl
HETATM   33  C   UNL     1      33.787  50.995  40.555  1.00  0.00     0.048 A 
HETATM   34  C   UNL     1      34.265  50.773  41.847  1.00  0.00     0.035 A 
HETATM   35 CL   UNL     1      35.693  49.843  42.076  1.00  0.00    -0.084 Cl
HETATM   36  C   UNL     1      33.593  51.294  42.954  1.00  0.00     0.025 A 
HETATM   37  C   UNL     1      32.433  52.049  42.772  1.00  0.00     0.021 A 
ENDBRANCH  28  30
ENDBRANCH  27  28
ENDBRANCH   4  27
TORSDOF 5
ENDMDL
MODEL 8
REMARK VINA RESULT:      -8.2      7.166     10.547
REMARK  5 active torsions:
REMARK  status: ('A' for Active; 'I' for Inactive)
REMARK    1  A    between atoms: C_10  and  C_11 
REMARK    2  A    between atoms: C_13  and  O_14 
REMARK    3  A    between atoms: C_16  and  O_17 
REMARK    4  A    between atoms: O_17  and  C_18 
REMARK    5  A    between atoms: C_18  and  C_19 
ROOT
HETATM    1  C   UNL     1      22.693  48.696  49.133  1.00  0.00    -0.013 A 
HETATM    2  C   UNL     1      22.226  47.520  48.513  1.00  0.00     0.050 A 
HETATM    3  C   UNL     1      22.919  46.312  48.633  1.00  0.00     0.102 A 
HETATM    4  C   UNL     1      24.074  46.273  49.425  1.00  0.00     0.112 A 
HETATM    5  C   UNL     1      24.579  47.429  50.018  1.00  0.00     0.041 A 
HETATM    6  C   UNL     1      23.884  48.630  49.880  1.00  0.00     0.014 A 
ENDROOT
BRANCH   1   7
HETATM    7  C   UNL     1      21.919  50.003  49.093  1.00  0.00     0.219 C 
HETATM    8  N   UNL     1      21.331  50.274  47.795  1.00  0.00    -0.358 N 
HETATM    9  C   UNL     1      20.032  49.990  47.573  1.00  0.00     0.088 A 
HETATM   10  H   UNL     1      21.992  50.318  47.024  1.00  0.00     0.162 HD
HETATM   11  C   UNL     1      19.143  49.696  48.580  1.00  0.00     0.073 A 
HETATM   12  S   UNL     1      19.317  49.930  46.032  1.00  0.00    -0.074 SA
HETATM   13  C   UNL     1      17.834  49.415  48.070  1.00  0.00    -0.023 A 
HETATM   14  C   UNL     1      19.604  49.712  49.955  1.00  0.00     0.256 C 
HETATM   15  C   UNL     1      17.807  49.504  46.690  1.00  0.00     0.018 A 
HETATM   16  C   UNL     1      16.614  49.045  48.861  1.00  0.00     0.068 C 
HETATM   17  C   UNL     1      16.600  49.286  45.844  1.00  0.00     0.281 C 
HETATM   18  N   UNL     1      15.522  48.560  46.640  1.00  0.00    -0.070 N 
HETATM   19  C   UNL     1      14.240  48.452  45.877  1.00  0.00     0.270 C 
HETATM   20  H   UNL     1      15.875  47.605  46.788  1.00  0.00     0.279 HD
HETATM   21  C   UNL     1      15.330  49.178  48.023  1.00  0.00     0.239 C 
HETATM   22  N   UNL     1      20.918  50.041  50.130  1.00  0.00    -0.332 N 
HETATM   23  O   UNL     1      18.862  49.478  50.902  1.00  0.00    -0.267 OA
HETATM   24  H   UNL     1      21.235  49.972  51.086  1.00  0.00     0.165 HD
ENDBRANCH   1   7
BRANCH   3  25
HETATM   25  O   UNL     1      22.536  45.130  48.059  1.00  0.00    -0.353 OA
HETATM   26  C   UNL     1      21.262  44.618  48.422  1.00  0.00     0.210 C 
ENDBRANCH   3  25
BRANCH   4  27
HETATM   27  O   UNL     1      24.729  45.036  49.550  1.00  0.00    -0.272 OA
BRANCH  27  28
HETATM   28  C   UNL     1      24.518  44.361  50.734  1.00  0.00     0.300 C 
HETATM   29  O   UNL     1      23.472  44.102  51.302  1.00  0.00    -0.259 OA
BRANCH  28  30
HETATM   30  C   UNL     1      25.838  44.008  51.269  1.00  0.00     0.061 A 
HETATM   31  C   UNL     1      26.395  44.724  52.334  1.00  0.00     0.051 A 
HETATM   32 CL   UNL     1      25.582  46.051  53.081  1.00  0.00    -0.083 Cl
HETATM   33  C   UNL     1      27.662  44.379  52.811  1.00  0.00     0.048 A 
HETATM   34  C   UNL     1      28.362  43.330  52.216  1.00  0.00     0.035 A 
HETATM   35 CL   UNL     1      29.921  42.908  52.805  1.00  0.00    -0.084 Cl
HETATM   36  C   UNL     1      27.812  42.623  51.145  1.00  0.00     0.025 A 
HETATM   37  C   UNL     1      26.547  42.964  50.664  1.00  0.00     0.021 A 
ENDBRANCH  28  30
ENDBRANCH  27  28
ENDBRANCH   4  27
TORSDOF 5
ENDMDL
MODEL 9
REMARK VINA RESULT:      -8.2      2.607      3.390
REMARK  5 active torsions:
REMARK  status: ('A' for Active; 'I' for Inactive)
REMARK    1  A    between atoms: C_10  and  C_11 
REMARK    2  A    between atoms: C_13  and  O_14 
REMARK    3  A    between atoms: C_16  and  O_17 
REMARK    4  A    between atoms: O_17  and  C_18 
REMARK    5  A    between atoms: C_18  and  C_19 
ROOT
HETATM    1  C   UNL     1      26.341  41.212  49.944  1.00  0.00    -0.013 A 
HETATM    2  C   UNL     1      25.056  41.775  50.082  1.00  0.00     0.050 A 
HETATM    3  C   UNL     1      24.843  42.912  50.866  1.00  0.00     0.102 A 
HETATM    4  C   UNL     1      25.942  43.521  51.484  1.00  0.00     0.112 A 
HETATM    5  C   UNL     1      27.217  42.965  51.396  1.00  0.00     0.041 A 
HETATM    6  C   UNL     1      27.414  41.823  50.620  1.00  0.00     0.014 A 
ENDROOT
BRANCH   1   7
HETATM    7  C   UNL     1      26.620  40.029  49.031  1.00  0.00     0.219 C 
HETATM    8  N   UNL     1      25.447  39.589  48.301  1.00  0.00    -0.358 N 
HETATM    9  C   UNL     1      25.262  39.985  47.025  1.00  0.00     0.088 A 
HETATM   10  H   UNL     1      24.657  39.315  48.879  1.00  0.00     0.162 HD
HETATM   11  C   UNL     1      26.247  40.575  46.270  1.00  0.00     0.073 A 
HETATM   12  S   UNL     1      23.793  39.834  46.182  1.00  0.00    -0.074 SA
HETATM   13  C   UNL     1      25.782  40.914  44.958  1.00  0.00    -0.023 A 
HETATM   14  C   UNL     1      27.562  40.769  46.852  1.00  0.00     0.256 C 
HETATM   15  C   UNL     1      24.454  40.565  44.794  1.00  0.00     0.018 A 
HETATM   16  C   UNL     1      26.563  41.580  43.864  1.00  0.00     0.068 C 
HETATM   17  C   UNL     1      23.666  40.764  43.546  1.00  0.00     0.281 C 
HETATM   18  N   UNL     1      24.370  41.759  42.631  1.00  0.00    -0.070 N 
HETATM   19  C   UNL     1      23.691  41.877  41.304  1.00  0.00     0.270 C 
HETATM   20  H   UNL     1      24.297  42.673  43.098  1.00  0.00     0.279 HD
HETATM   21  C   UNL     1      25.860  41.448  42.501  1.00  0.00     0.239 C 
HETATM   22  N   UNL     1      27.709  40.318  48.132  1.00  0.00    -0.332 N 
HETATM   23  O   UNL     1      28.491  41.271  46.230  1.00  0.00    -0.267 OA
HETATM   24  H   UNL     1      28.608  40.530  48.542  1.00  0.00     0.165 HD
ENDBRANCH   1   7
BRANCH   3  25
HETATM   25  O   UNL     1      23.629  43.515  51.057  1.00  0.00    -0.353 OA
HETATM   26  C   UNL     1      22.925  43.932  49.895  1.00  0.00     0.210 C 
ENDBRANCH   3  25
BRANCH   4  27
HETATM   27  O   UNL     1      25.698  44.681  52.240  1.00  0.00    -0.272 OA
BRANCH  27  28
HETATM   28  C   UNL     1      25.517  44.489  53.594  1.00  0.00     0.300 C 
HETATM   29  O   UNL     1      24.537  44.088  54.195  1.00  0.00    -0.259 OA
BRANCH  28  30
HETATM   30  C   UNL     1      26.758  44.908  54.256  1.00  0.00     0.061 A 
HETATM   31  C   UNL     1      27.009  46.259  54.522  1.00  0.00     0.051 A 
HETATM   32 CL   UNL     1      25.894  47.507  54.095  1.00  0.00    -0.083 Cl
HETATM   33  C   UNL     1      28.206  46.632  55.136  1.00  0.00     0.048 A 
HETATM   34  C   UNL     1      29.144  45.655  55.472  1.00  0.00     0.035 A 
HETATM   35 CL   UNL     1      30.617  46.118  56.227  1.00  0.00    -0.084 Cl
HETATM   36  C   UNL     1      28.900  44.309  55.196  1.00  0.00     0.025 A 
HETATM   37  C   UNL     1      27.705  43.930  54.582  1.00  0.00     0.021 A 
ENDBRANCH  28  30
ENDBRANCH  27  28
ENDBRANCH   4  27
TORSDOF 5
ENDMDL
MODEL 10
REMARK VINA RESULT:      -8.0     12.805     15.059
REMARK  5 active torsions:
REMARK  status: ('A' for Active; 'I' for Inactive)
REMARK    1  A    between atoms: C_10  and  C_11 
REMARK    2  A    between atoms: C_13  and  O_14 
REMARK    3  A    between atoms: C_16  and  O_17 
REMARK    4  A    between atoms: O_17  and  C_18 
REMARK    5  A    between atoms: C_18  and  C_19 
ROOT
HETATM    1  C   UNL     1      25.823  48.623  39.065  1.00  0.00    -0.013 A 
HETATM    2  C   UNL     1      27.136  48.205  39.364  1.00  0.00     0.050 A 
HETATM    3  C   UNL     1      28.244  48.969  38.986  1.00  0.00     0.102 A 
HETATM    4  C   UNL     1      28.030  50.193  38.339  1.00  0.00     0.112 A 
HETATM    5  C   UNL     1      26.745  50.611  37.996  1.00  0.00     0.041 A 
HETATM    6  C   UNL     1      25.649  49.833  38.369  1.00  0.00     0.014 A 
ENDROOT
BRANCH   1   7
HETATM    7  C   UNL     1      24.596  47.859  39.536  1.00  0.00     0.219 C 
HETATM    8  N   UNL     1      23.649  48.695  40.248  1.00  0.00    -0.358 N 
HETATM    9  C   UNL     1      22.570  49.186  39.604  1.00  0.00     0.088 A 
HETATM   10  H   UNL     1      24.019  49.163  41.070  1.00  0.00     0.162 HD
HETATM   11  C   UNL     1      22.160  48.737  38.372  1.00  0.00     0.073 A 
HETATM   12  S   UNL     1      21.586  50.436  40.205  1.00  0.00    -0.074 SA
HETATM   13  C   UNL     1      21.001  49.438  37.907  1.00  0.00    -0.023 A 
HETATM   14  C   UNL     1      22.899  47.666  37.729  1.00  0.00     0.256 C 
HETATM   15  C   UNL     1      20.599  50.397  38.819  1.00  0.00     0.018 A 
HETATM   16  C   UNL     1      20.279  49.234  36.608  1.00  0.00     0.068 C 
HETATM   17  C   UNL     1      19.420  51.293  38.653  1.00  0.00     0.281 C 
HETATM   18  N   UNL     1      18.970  51.308  37.197  1.00  0.00    -0.070 N 
HETATM   19  C   UNL     1      17.701  52.077  37.011  1.00  0.00     0.270 C 
HETATM   20  H   UNL     1      19.709  51.800  36.678  1.00  0.00     0.279 HD
HETATM   21  C   UNL     1      18.890  49.897  36.618  1.00  0.00     0.239 C 
HETATM   22  N   UNL     1      23.960  47.178  38.437  1.00  0.00    -0.332 N 
HETATM   23  O   UNL     1      22.579  47.204  36.640  1.00  0.00    -0.267 OA
HETATM   24  H   UNL     1      24.503  46.487  37.940  1.00  0.00     0.165 HD
ENDBRANCH   1   7
BRANCH   3  25
HETATM   25  O   UNL     1      29.547  48.633  39.233  1.00  0.00    -0.353 OA
HETATM   26  C   UNL     1      29.934  48.501  40.594  1.00  0.00     0.210 C 
ENDBRANCH   3  25
BRANCH   4  27
HETATM   27  O   UNL     1      29.164  50.951  38.001  1.00  0.00    -0.272 OA
BRANCH  27  28
HETATM   28  C   UNL     1      29.219  52.222  38.535  1.00  0.00     0.300 C 
HETATM   29  O   UNL     1      28.751  53.262  38.108  1.00  0.00    -0.259 OA
BRANCH  28  30
HETATM   30  C   UNL     1      30.015  52.137  39.764  1.00  0.00     0.061 A 
HETATM   31  C   UNL     1      29.405  52.208  41.021  1.00  0.00     0.051 A 
HETATM   32 CL   UNL     1      27.699  52.398  41.211  1.00  0.00    -0.083 Cl
HETATM   33  C   UNL     1      30.189  52.145  42.175  1.00  0.00     0.048 A 
HETATM   34  C   UNL     1      31.574  52.019  42.063  1.00  0.00     0.035 A 
HETATM   35 CL   UNL     1      32.537  51.942  43.486  1.00  0.00    -0.084 Cl
HETATM   36  C   UNL     1      32.185  51.960  40.810  1.00  0.00     0.025 A 
HETATM   37  C   UNL     1      31.406  52.024  39.652  1.00  0.00     0.021 A 
ENDBRANCH  28  30
ENDBRANCH  27  28
ENDBRANCH   4  27
TORSDOF 5
ENDMDL
