MODEL 1
REMARK VINA RESULT:      -8.5      0.000      0.000
REMARK  4 active torsions:
REMARK  status: ('A' for Active; 'I' for Inactive)
REMARK    1  A    between atoms: C_6  and  N_7 
REMARK       I    between atoms: N_7  and  C_8 
REMARK    2  A    between atoms: C_8  and  C_9 
REMARK    3  A    between atoms: C_10  and  C_11 
REMARK    4  A    between atoms: C_12  and  O_13 
ROOT
HETATM    1  C   UNL     1      25.498  42.815  49.669  1.00  0.00     0.063 A 
HETATM    2  C   UNL     1      25.770  41.868  48.508  1.00  0.00     0.205 A 
HETATM    3  N   UNL     1      24.520  41.362  47.924  1.00  0.00    -0.084 N 
HETATM    4  C   UNL     1      23.272  41.692  48.381  1.00  0.00     0.725 A 
HETATM    5  N   UNL     1      23.152  42.513  49.439  1.00  0.00    -0.192 N 
HETATM    6  N   UNL     1      24.444  40.624  46.793  1.00  0.00    -0.149 NA
HETATM    7  C   UNL     1      23.119  40.479  46.682  1.00  0.00     0.275 A 
HETATM    8  N   UNL     1      22.365  41.122  47.628  1.00  0.00    -0.054 NA
HETATM    9  C   UNL     1      24.238  43.092  50.086  1.00  0.00     0.037 A 
HETATM   10  C   UNL     1      23.899  44.029  51.221  1.00  0.00     0.070 C 
HETATM   11  H   UNL     1      22.222  42.755  49.771  1.00  0.00     0.184 HD
ENDROOT
BRANCH   1  12
HETATM   12  C   UNL     1      26.666  43.380  50.396  1.00  0.00     0.256 C 
HETATM   13  N   UNL     1      26.797  42.888  51.678  1.00  0.00    -0.323 N 
HETATM   14  H   UNL     1      26.067  42.279  52.016  1.00  0.00     0.169 HD
HETATM   15  O   UNL     1      27.403  44.170  49.818  1.00  0.00    -0.267 OA
BRANCH  13  16
HETATM   16  C   UNL     1      27.871  43.104  52.578  1.00  0.00     0.041 A 
HETATM   17  C   UNL     1      27.667  43.947  53.692  1.00  0.00    -0.035 A 
HETATM   18  C   UNL     1      28.703  44.120  54.631  1.00  0.00     0.015 A 
HETATM   19  C   UNL     1      26.369  44.675  53.927  1.00  0.00     0.050 C 
HETATM   20  C   UNL     1      29.941  43.490  54.471  1.00  0.00    -0.061 A 
HETATM   21  C   UNL     1      31.020  43.640  55.500  1.00  0.00     0.048 C 
HETATM   22  C   UNL     1      30.135  42.666  53.363  1.00  0.00     0.009 A 
HETATM   23  C   UNL     1      29.114  42.481  52.425  1.00  0.00     0.030 A 
ENDBRANCH  13  16
ENDBRANCH   1  12
BRANCH   2  24
HETATM   24  C   UNL     1      26.687  40.709  48.879  1.00  0.00     0.005 A 
HETATM   25  C   UNL     1      27.912  40.520  48.212  1.00  0.00     0.076 A 
HETATM   26  C   UNL     1      28.747  39.458  48.575  1.00  0.00     0.037 A 
HETATM   27  C   UNL     1      28.362  38.567  49.580  1.00  0.00     0.003 A 
HETATM   28  C   UNL     1      27.148  38.739  50.237  1.00  0.00     0.001 A 
HETATM   29  C   UNL     1      26.316  39.803  49.892  1.00  0.00     0.012 A 
BRANCH  25  30
HETATM   30  O   UNL     1      28.238  41.446  47.254  1.00  0.00    -0.355 OA
HETATM   31  C   UNL     1      28.198  40.983  45.906  1.00  0.00     0.210 C 
ENDBRANCH  25  30
ENDBRANCH   2  24
TORSDOF 4
ENDMDL
MODEL 2
REMARK VINA RESULT:      -8.4      2.516      5.038
REMARK  4 active torsions:
REMARK  status: ('A' for Active; 'I' for Inactive)
REMARK    1  A    between atoms: C_6  and  N_7 
REMARK       I    between atoms: N_7  and  C_8 
REMARK    2  A    between atoms: C_8  and  C_9 
REMARK    3  A    between atoms: C_10  and  C_11 
REMARK    4  A    between atoms: C_12  and  O_13 
ROOT
HETATM    1  C   UNL     1      26.983  43.037  51.705  1.00  0.00     0.063 A 
HETATM    2  C   UNL     1      25.840  44.036  51.595  1.00  0.00     0.205 A 
HETATM    3  N   UNL     1      24.708  43.476  50.842  1.00  0.00    -0.084 N 
HETATM    4  C   UNL     1      24.697  42.220  50.298  1.00  0.00     0.725 A 
HETATM    5  N   UNL     1      25.781  41.434  50.428  1.00  0.00    -0.192 N 
HETATM    6  N   UNL     1      23.502  44.074  50.711  1.00  0.00    -0.149 NA
HETATM    7  C   UNL     1      22.845  43.150  50.001  1.00  0.00     0.275 A 
HETATM    8  N   UNL     1      23.537  41.998  49.733  1.00  0.00    -0.054 NA
HETATM    9  C   UNL     1      26.920  41.810  51.131  1.00  0.00     0.037 A 
HETATM   10  C   UNL     1      28.011  40.770  51.211  1.00  0.00     0.070 C 
HETATM   11  H   UNL     1      25.763  40.502  50.023  1.00  0.00     0.184 HD
ENDROOT
BRANCH   1  12
HETATM   12  C   UNL     1      28.222  43.471  52.404  1.00  0.00     0.256 C 
HETATM   13  N   UNL     1      28.067  43.572  53.771  1.00  0.00    -0.323 N 
HETATM   14  H   UNL     1      27.139  43.430  54.142  1.00  0.00     0.169 HD
HETATM   15  O   UNL     1      29.242  43.660  51.751  1.00  0.00    -0.267 OA
BRANCH  13  16
HETATM   16  C   UNL     1      29.075  43.815  54.737  1.00  0.00     0.041 A 
HETATM   17  C   UNL     1      29.097  45.061  55.401  1.00  0.00    -0.035 A 
HETATM   18  C   UNL     1      30.052  45.293  56.410  1.00  0.00     0.015 A 
HETATM   19  C   UNL     1      28.126  46.166  55.077  1.00  0.00     0.050 C 
HETATM   20  C   UNL     1      30.997  44.321  56.754  1.00  0.00    -0.061 A 
HETATM   21  C   UNL     1      31.977  44.558  57.863  1.00  0.00     0.048 C 
HETATM   22  C   UNL     1      30.972  43.097  56.087  1.00  0.00     0.009 A 
HETATM   23  C   UNL     1      30.026  42.851  55.086  1.00  0.00     0.030 A 
ENDBRANCH  13  16
ENDBRANCH   1  12
BRANCH   2  24
HETATM   24  C   UNL     1      26.262  45.372  50.997  1.00  0.00     0.005 A 
HETATM   25  C   UNL     1      25.959  46.581  51.652  1.00  0.00     0.076 A 
HETATM   26  C   UNL     1      26.366  47.797  51.093  1.00  0.00     0.037 A 
HETATM   27  C   UNL     1      27.054  47.823  49.878  1.00  0.00     0.003 A 
HETATM   28  C   UNL     1      27.349  46.634  49.218  1.00  0.00     0.001 A 
HETATM   29  C   UNL     1      26.959  45.416  49.773  1.00  0.00     0.012 A 
BRANCH  25  30
HETATM   30  O   UNL     1      25.304  46.480  52.853  1.00  0.00    -0.355 OA
HETATM   31  C   UNL     1      25.595  47.500  53.805  1.00  0.00     0.210 C 
ENDBRANCH  25  30
ENDBRANCH   2  24
TORSDOF 4
ENDMDL
MODEL 3
REMARK VINA RESULT:      -8.3      2.218      4.863
REMARK  4 active torsions:
REMARK  status: ('A' for Active; 'I' for Inactive)
REMARK    1  A    between atoms: C_6  and  N_7 
REMARK       I    between atoms: N_7  and  C_8 
REMARK    2  A    between atoms: C_8  and  C_9 
REMARK    3  A    between atoms: C_10  and  C_11 
REMARK    4  A    between atoms: C_12  and  O_13 
ROOT
HETATM    1  C   UNL     1      26.897  42.060  51.324  1.00  0.00     0.063 A 
HETATM    2  C   UNL     1      25.645  42.812  50.891  1.00  0.00     0.205 A 
HETATM    3  N   UNL     1      25.266  42.473  49.512  1.00  0.00    -0.084 N 
HETATM    4  C   UNL     1      25.963  41.602  48.717  1.00  0.00     0.725 A 
HETATM    5  N   UNL     1      27.078  41.021  49.194  1.00  0.00    -0.192 N 
HETATM    6  N   UNL     1      24.121  42.869  48.912  1.00  0.00    -0.149 NA
HETATM    7  C   UNL     1      24.243  42.265  47.725  1.00  0.00     0.275 A 
HETATM    8  N   UNL     1      25.352  41.475  47.567  1.00  0.00    -0.054 NA
HETATM    9  C   UNL     1      27.554  41.221  50.485  1.00  0.00     0.037 A 
HETATM   10  C   UNL     1      28.791  40.438  50.854  1.00  0.00     0.070 C 
HETATM   11  H   UNL     1      27.589  40.374  48.598  1.00  0.00     0.184 HD
ENDROOT
BRANCH   1  12
HETATM   12  C   UNL     1      27.435  42.328  52.684  1.00  0.00     0.256 C 
HETATM   13  N   UNL     1      28.180  43.487  52.755  1.00  0.00    -0.323 N 
HETATM   14  H   UNL     1      28.351  43.979  51.890  1.00  0.00     0.169 HD
HETATM   15  O   UNL     1      27.162  41.558  53.597  1.00  0.00    -0.267 OA
BRANCH  13  16
HETATM   16  C   UNL     1      28.706  44.104  53.917  1.00  0.00     0.041 A 
HETATM   17  C   UNL     1      29.910  43.610  54.465  1.00  0.00    -0.035 A 
HETATM   18  C   UNL     1      30.479  44.253  55.582  1.00  0.00     0.015 A 
HETATM   19  C   UNL     1      30.625  42.412  53.896  1.00  0.00     0.050 C 
HETATM   20  C   UNL     1      29.865  45.360  56.175  1.00  0.00    -0.061 A 
HETATM   21  C   UNL     1      30.504  46.068  57.331  1.00  0.00     0.048 C 
HETATM   22  C   UNL     1      28.673  45.835  55.631  1.00  0.00     0.009 A 
HETATM   23  C   UNL     1      28.098  45.210  54.520  1.00  0.00     0.030 A 
ENDBRANCH  13  16
ENDBRANCH   1  12
BRANCH   2  24
HETATM   24  C   UNL     1      25.765  44.322  51.050  1.00  0.00     0.005 A 
HETATM   25  C   UNL     1      25.182  44.977  52.152  1.00  0.00     0.076 A 
HETATM   26  C   UNL     1      25.313  46.363  52.287  1.00  0.00     0.037 A 
HETATM   27  C   UNL     1      26.000  47.106  51.325  1.00  0.00     0.003 A 
HETATM   28  C   UNL     1      26.569  46.470  50.227  1.00  0.00     0.001 A 
HETATM   29  C   UNL     1      26.457  45.087  50.090  1.00  0.00     0.012 A 
BRANCH  25  30
HETATM   30  O   UNL     1      24.545  44.182  53.070  1.00  0.00    -0.355 OA
HETATM   31  C   UNL     1      24.890  44.411  54.434  1.00  0.00     0.210 C 
ENDBRANCH  25  30
ENDBRANCH   2  24
TORSDOF 4
ENDMDL
MODEL 4
REMARK VINA RESULT:      -8.0      5.503      8.717
REMARK  4 active torsions:
REMARK  status: ('A' for Active; 'I' for Inactive)
REMARK    1  A    between atoms: C_6  and  N_7 
REMARK       I    between atoms: N_7  and  C_8 
REMARK    2  A    between atoms: C_8  and  C_9 
REMARK    3  A    between atoms: C_10  and  C_11 
REMARK    4  A    between atoms: C_12  and  O_13 
ROOT
HETATM    1  C   UNL     1      23.300  46.469  49.115  1.00  0.00     0.063 A 
HETATM    2  C   UNL     1      22.778  45.041  49.206  1.00  0.00     0.205 A 
HETATM    3  N   UNL     1      23.775  44.143  49.808  1.00  0.00    -0.084 N 
HETATM    4  C   UNL     1      25.018  44.543  50.218  1.00  0.00     0.725 A 
HETATM    5  N   UNL     1      25.386  45.827  50.057  1.00  0.00    -0.192 N 
HETATM    6  N   UNL     1      23.540  42.856  50.151  1.00  0.00    -0.149 NA
HETATM    7  C   UNL     1      24.721  42.525  50.685  1.00  0.00     0.275 A 
HETATM    8  N   UNL     1      25.650  43.529  50.752  1.00  0.00    -0.054 NA
HETATM    9  C   UNL     1      24.549  46.802  49.525  1.00  0.00     0.037 A 
HETATM   10  C   UNL     1      25.122  48.198  49.473  1.00  0.00     0.070 C 
HETATM   11  H   UNL     1      26.310  46.116  50.366  1.00  0.00     0.184 HD
ENDROOT
BRANCH   1  12
HETATM   12  C   UNL     1      22.422  47.492  48.487  1.00  0.00     0.256 C 
HETATM   13  N   UNL     1      21.617  48.147  49.396  1.00  0.00    -0.323 N 
HETATM   14  H   UNL     1      21.639  47.822  50.351  1.00  0.00     0.169 HD
HETATM   15  O   UNL     1      22.503  47.689  47.281  1.00  0.00    -0.267 OA
BRANCH  13  16
HETATM   16  C   UNL     1      20.780  49.266  49.156  1.00  0.00     0.041 A 
HETATM   17  C   UNL     1      21.370  50.542  49.026  1.00  0.00    -0.035 A 
HETATM   18  C   UNL     1      20.559  51.654  48.723  1.00  0.00     0.015 A 
HETATM   19  C   UNL     1      22.850  50.769  49.195  1.00  0.00     0.050 C 
HETATM   20  C   UNL     1      19.176  51.524  48.569  1.00  0.00    -0.061 A 
HETATM   21  C   UNL     1      18.328  52.702  48.197  1.00  0.00     0.048 C 
HETATM   22  C   UNL     1      18.602  50.261  48.707  1.00  0.00     0.009 A 
HETATM   23  C   UNL     1      19.395  49.147  49.003  1.00  0.00     0.030 A 
ENDBRANCH  13  16
ENDBRANCH   1  12
BRANCH   2  24
HETATM   24  C   UNL     1      22.307  44.486  47.868  1.00  0.00     0.005 A 
HETATM   25  C   UNL     1      20.934  44.339  47.594  1.00  0.00     0.076 A 
HETATM   26  C   UNL     1      20.520  43.838  46.355  1.00  0.00     0.037 A 
HETATM   27  C   UNL     1      21.461  43.463  45.394  1.00  0.00     0.003 A 
HETATM   28  C   UNL     1      22.820  43.594  45.659  1.00  0.00     0.001 A 
HETATM   29  C   UNL     1      23.243  44.104  46.886  1.00  0.00     0.012 A 
BRANCH  25  30
HETATM   30  O   UNL     1      20.066  44.751  48.573  1.00  0.00    -0.355 OA
HETATM   31  C   UNL     1      18.945  45.509  48.128  1.00  0.00     0.210 C 
ENDBRANCH  25  30
ENDBRANCH   2  24
TORSDOF 4
ENDMDL
MODEL 5
REMARK VINA RESULT:      -7.6     18.113     19.849
REMARK  4 active torsions:
REMARK  status: ('A' for Active; 'I' for Inactive)
REMARK    1  A    between atoms: C_6  and  N_7 
REMARK       I    between atoms: N_7  and  C_8 
REMARK    2  A    between atoms: C_8  and  C_9 
REMARK    3  A    between atoms: C_10  and  C_11 
REMARK    4  A    between atoms: C_12  and  O_13 
ROOT
HETATM    1  C   UNL     1      37.496  44.021  64.445  1.00  0.00     0.063 A 
HETATM    2  C   UNL     1      38.791  43.464  63.871  1.00  0.00     0.205 A 
HETATM    3  N   UNL     1      38.878  42.008  64.057  1.00  0.00    -0.084 N 
HETATM    4  C   UNL     1      37.919  41.256  64.682  1.00  0.00     0.725 A 
HETATM    5  N   UNL     1      36.828  41.863  65.184  1.00  0.00    -0.192 N 
HETATM    6  N   UNL     1      39.839  41.222  63.521  1.00  0.00    -0.149 NA
HETATM    7  C   UNL     1      39.435  40.018  63.941  1.00  0.00     0.275 A 
HETATM    8  N   UNL     1      38.262  39.994  64.649  1.00  0.00    -0.054 NA
HETATM    9  C   UNL     1      36.589  43.227  65.068  1.00  0.00     0.037 A 
HETATM   10  C   UNL     1      35.283  43.713  65.648  1.00  0.00     0.070 C 
HETATM   11  H   UNL     1      36.120  41.297  65.645  1.00  0.00     0.184 HD
ENDROOT
BRANCH   1  12
HETATM   12  C   UNL     1      37.277  45.490  64.373  1.00  0.00     0.256 C 
HETATM   13  N   UNL     1      37.779  46.167  65.465  1.00  0.00    -0.323 N 
HETATM   14  H   UNL     1      38.157  45.613  66.219  1.00  0.00     0.169 HD
HETATM   15  O   UNL     1      36.728  45.965  63.386  1.00  0.00    -0.267 OA
BRANCH  13  16
HETATM   16  C   UNL     1      37.868  47.571  65.642  1.00  0.00     0.041 A 
HETATM   17  C   UNL     1      36.942  48.210  66.496  1.00  0.00    -0.035 A 
HETATM   18  C   UNL     1      37.058  49.594  66.733  1.00  0.00     0.015 A 
HETATM   19  C   UNL     1      35.825  47.465  67.178  1.00  0.00     0.050 C 
HETATM   20  C   UNL     1      38.059  50.355  66.123  1.00  0.00    -0.061 A 
HETATM   21  C   UNL     1      38.206  51.816  66.420  1.00  0.00     0.048 C 
HETATM   22  C   UNL     1      38.963  49.716  65.275  1.00  0.00     0.009 A 
HETATM   23  C   UNL     1      38.864  48.341  65.034  1.00  0.00     0.030 A 
ENDBRANCH  13  16
ENDBRANCH   1  12
BRANCH   2  24
HETATM   24  C   UNL     1      40.037  44.142  64.425  1.00  0.00     0.005 A 
HETATM   25  C   UNL     1      40.406  43.976  65.774  1.00  0.00     0.076 A 
HETATM   26  C   UNL     1      41.560  44.598  66.262  1.00  0.00     0.037 A 
HETATM   27  C   UNL     1      42.339  45.400  65.426  1.00  0.00     0.003 A 
HETATM   28  C   UNL     1      41.977  45.579  64.095  1.00  0.00     0.001 A 
HETATM   29  C   UNL     1      40.836  44.953  63.595  1.00  0.00     0.012 A 
BRANCH  25  30
HETATM   30  O   UNL     1      39.609  43.155  66.530  1.00  0.00    -0.355 OA
HETATM   31  C   UNL     1      39.210  43.673  67.797  1.00  0.00     0.210 C 
ENDBRANCH  25  30
ENDBRANCH   2  24
TORSDOF 4
ENDMDL
MODEL 6
REMARK VINA RESULT:      -7.4      7.157     10.514
REMARK  4 active torsions:
REMARK  status: ('A' for Active; 'I' for Inactive)
REMARK    1  A    between atoms: C_6  and  N_7 
REMARK       I    between atoms: N_7  and  C_8 
REMARK    2  A    between atoms: C_8  and  C_9 
REMARK    3  A    between atoms: C_10  and  C_11 
REMARK    4  A    between atoms: C_12  and  O_13 
ROOT
HETATM    1  C   UNL     1      21.150  47.498  48.524  1.00  0.00     0.063 A 
HETATM    2  C   UNL     1      20.831  46.016  48.381  1.00  0.00     0.205 A 
HETATM    3  N   UNL     1      21.969  45.181  48.790  1.00  0.00    -0.084 N 
HETATM    4  C   UNL     1      23.168  45.678  49.228  1.00  0.00     0.725 A 
HETATM    5  N   UNL     1      23.350  47.010  49.281  1.00  0.00    -0.192 N 
HETATM    6  N   UNL     1      21.928  43.834  48.911  1.00  0.00    -0.149 NA
HETATM    7  C   UNL     1      23.169  43.589  49.345  1.00  0.00     0.275 A 
HETATM    8  N   UNL     1      23.957  44.689  49.559  1.00  0.00    -0.054 NA
HETATM    9  C   UNL     1      22.363  47.932  48.950  1.00  0.00     0.037 A 
HETATM   10  C   UNL     1      22.739  49.383  49.124  1.00  0.00     0.070 C 
HETATM   11  H   UNL     1      24.241  47.371  49.609  1.00  0.00     0.184 HD
ENDROOT
BRANCH   1  12
HETATM   12  C   UNL     1      20.111  48.478  48.109  1.00  0.00     0.256 C 
HETATM   13  N   UNL     1      19.223  48.787  49.118  1.00  0.00    -0.323 N 
HETATM   14  H   UNL     1      19.309  48.274  49.982  1.00  0.00     0.169 HD
HETATM   15  O   UNL     1      20.143  48.938  46.973  1.00  0.00    -0.267 OA
BRANCH  13  16
HETATM   16  C   UNL     1      18.214  49.782  49.102  1.00  0.00     0.041 A 
HETATM   17  C   UNL     1      18.504  51.055  49.641  1.00  0.00    -0.035 A 
HETATM   18  C   UNL     1      17.533  52.074  49.574  1.00  0.00     0.015 A 
HETATM   19  C   UNL     1      19.825  51.376  50.288  1.00  0.00     0.050 C 
HETATM   20  C   UNL     1      16.278  51.846  49.003  1.00  0.00    -0.061 A 
HETATM   21  C   UNL     1      15.270  52.951  48.891  1.00  0.00     0.048 C 
HETATM   22  C   UNL     1      15.999  50.585  48.481  1.00  0.00     0.009 A 
HETATM   23  C   UNL     1      16.954  49.564  48.536  1.00  0.00     0.030 A 
ENDBRANCH  13  16
ENDBRANCH   1  12
BRANCH   2  24
HETATM   24  C   UNL     1      20.370  45.632  46.981  1.00  0.00     0.005 A 
HETATM   25  C   UNL     1      19.094  45.075  46.772  1.00  0.00     0.076 A 
HETATM   26  C   UNL     1      18.683  44.740  45.478  1.00  0.00     0.037 A 
HETATM   27  C   UNL     1      19.538  44.934  44.391  1.00  0.00     0.003 A 
HETATM   28  C   UNL     1      20.805  45.474  44.589  1.00  0.00     0.001 A 
HETATM   29  C   UNL     1      21.219  45.824  45.873  1.00  0.00     0.012 A 
BRANCH  25  30
HETATM   30  O   UNL     1      18.297  44.935  47.880  1.00  0.00    -0.355 OA
HETATM   31  C   UNL     1      17.309  45.945  48.064  1.00  0.00     0.210 C 
ENDBRANCH  25  30
ENDBRANCH   2  24
TORSDOF 4
ENDMDL
MODEL 7
REMARK VINA RESULT:      -7.3     12.750     15.915
REMARK  4 active torsions:
REMARK  status: ('A' for Active; 'I' for Inactive)
REMARK    1  A    between atoms: C_6  and  N_7 
REMARK       I    between atoms: N_7  and  C_8 
REMARK    2  A    between atoms: C_8  and  C_9 
REMARK    3  A    between atoms: C_10  and  C_11 
REMARK    4  A    between atoms: C_12  and  O_13 
ROOT
HETATM    1  C   UNL     1      15.185  52.732  46.525  1.00  0.00     0.063 A 
HETATM    2  C   UNL     1      15.527  52.042  47.838  1.00  0.00     0.205 A 
HETATM    3  N   UNL     1      15.081  52.835  48.993  1.00  0.00    -0.084 N 
HETATM    4  C   UNL     1      14.453  54.047  48.894  1.00  0.00     0.725 A 
HETATM    5  N   UNL     1      14.232  54.579  47.678  1.00  0.00    -0.192 N 
HETATM    6  N   UNL     1      15.114  52.408  50.276  1.00  0.00    -0.149 NA
HETATM    7  C   UNL     1      14.566  53.457  50.899  1.00  0.00     0.275 A 
HETATM    8  N   UNL     1      14.141  54.478  50.090  1.00  0.00    -0.054 NA
HETATM    9  C   UNL     1      14.574  53.942  46.490  1.00  0.00     0.037 A 
HETATM   10  C   UNL     1      14.197  54.674  45.225  1.00  0.00     0.070 C 
HETATM   11  H   UNL     1      13.763  55.479  47.613  1.00  0.00     0.184 HD
ENDROOT
BRANCH   1  12
HETATM   12  C   UNL     1      15.610  52.074  45.261  1.00  0.00     0.256 C 
HETATM   13  N   UNL     1      16.756  52.621  44.723  1.00  0.00    -0.323 N 
HETATM   14  H   UNL     1      17.134  53.439  45.177  1.00  0.00     0.169 HD
HETATM   15  O   UNL     1      14.963  51.124  44.835  1.00  0.00    -0.267 OA
BRANCH  13  16
HETATM   16  C   UNL     1      17.503  52.142  43.618  1.00  0.00     0.041 A 
HETATM   17  C   UNL     1      17.461  52.862  42.403  1.00  0.00    -0.035 A 
HETATM   18  C   UNL     1      18.248  52.435  41.316  1.00  0.00     0.015 A 
HETATM   19  C   UNL     1      16.603  54.086  42.220  1.00  0.00     0.050 C 
HETATM   20  C   UNL     1      19.057  51.297  41.407  1.00  0.00    -0.061 A 
HETATM   21  C   UNL     1      19.930  50.880  40.262  1.00  0.00     0.048 C 
HETATM   22  C   UNL     1      19.086  50.590  42.607  1.00  0.00     0.009 A 
HETATM   23  C   UNL     1      18.313  51.004  43.697  1.00  0.00     0.030 A 
ENDBRANCH  13  16
ENDBRANCH   1  12
BRANCH   2  24
HETATM   24  C   UNL     1      17.005  51.699  47.972  1.00  0.00     0.005 A 
HETATM   25  C   UNL     1      17.454  50.376  47.804  1.00  0.00     0.076 A 
HETATM   26  C   UNL     1      18.817  50.083  47.918  1.00  0.00     0.037 A 
HETATM   27  C   UNL     1      19.735  51.091  48.219  1.00  0.00     0.003 A 
HETATM   28  C   UNL     1      19.300  52.400  48.397  1.00  0.00     0.001 A 
HETATM   29  C   UNL     1      17.945  52.705  48.272  1.00  0.00     0.012 A 
BRANCH  25  30
HETATM   30  O   UNL     1      16.502  49.441  47.486  1.00  0.00    -0.355 OA
HETATM   31  C   UNL     1      16.817  48.582  46.393  1.00  0.00     0.210 C 
ENDBRANCH  25  30
ENDBRANCH   2  24
TORSDOF 4
ENDMDL
MODEL 8
REMARK VINA RESULT:      -7.3      7.739     10.627
REMARK  4 active torsions:
REMARK  status: ('A' for Active; 'I' for Inactive)
REMARK    1  A    between atoms: C_6  and  N_7 
REMARK       I    between atoms: N_7  and  C_8 
REMARK    2  A    between atoms: C_8  and  C_9 
REMARK    3  A    between atoms: C_10  and  C_11 
REMARK    4  A    between atoms: C_12  and  O_13 
ROOT
HETATM    1  C   UNL     1      18.939  47.317  46.984  1.00  0.00     0.063 A 
HETATM    2  C   UNL     1      17.858  48.230  47.547  1.00  0.00     0.205 A 
HETATM    3  N   UNL     1      16.834  48.535  46.537  1.00  0.00    -0.084 N 
HETATM    4  C   UNL     1      16.863  48.068  45.251  1.00  0.00     0.725 A 
HETATM    5  N   UNL     1      17.889  47.294  44.852  1.00  0.00    -0.192 N 
HETATM    6  N   UNL     1      15.681  49.196  46.789  1.00  0.00    -0.149 NA
HETATM    7  C   UNL     1      15.108  49.160  45.580  1.00  0.00     0.275 A 
HETATM    8  N   UNL     1      15.794  48.473  44.613  1.00  0.00    -0.054 NA
HETATM    9  C   UNL     1      18.922  46.898  45.695  1.00  0.00     0.037 A 
HETATM   10  C   UNL     1      19.954  45.985  45.078  1.00  0.00     0.070 C 
HETATM   11  H   UNL     1      17.901  46.949  43.896  1.00  0.00     0.184 HD
ENDROOT
BRANCH   1  12
HETATM   12  C   UNL     1      20.073  46.950  47.874  1.00  0.00     0.256 C 
HETATM   13  N   UNL     1      21.262  47.548  47.511  1.00  0.00    -0.323 N 
HETATM   14  H   UNL     1      21.266  48.090  46.660  1.00  0.00     0.169 HD
HETATM   15  O   UNL     1      19.867  46.211  48.829  1.00  0.00    -0.267 OA
BRANCH  13  16
HETATM   16  C   UNL     1      22.488  47.528  48.223  1.00  0.00     0.041 A 
HETATM   17  C   UNL     1      23.193  48.739  48.398  1.00  0.00    -0.035 A 
HETATM   18  C   UNL     1      24.380  48.746  49.158  1.00  0.00     0.015 A 
HETATM   19  C   UNL     1      22.723  50.041  47.804  1.00  0.00     0.050 C 
HETATM   20  C   UNL     1      24.887  47.574  49.726  1.00  0.00    -0.061 A 
HETATM   21  C   UNL     1      26.122  47.601  50.575  1.00  0.00     0.048 C 
HETATM   22  C   UNL     1      24.187  46.383  49.540  1.00  0.00     0.009 A 
HETATM   23  C   UNL     1      23.005  46.360  48.792  1.00  0.00     0.030 A 
ENDBRANCH  13  16
ENDBRANCH   1  12
BRANCH   2  24
HETATM   24  C   UNL     1      18.409  49.517  48.147  1.00  0.00     0.005 A 
HETATM   25  C   UNL     1      18.452  49.700  49.542  1.00  0.00     0.076 A 
HETATM   26  C   UNL     1      18.973  50.884  50.074  1.00  0.00     0.037 A 
HETATM   27  C   UNL     1      19.432  51.898  49.230  1.00  0.00     0.003 A 
HETATM   28  C   UNL     1      19.382  51.731  47.850  1.00  0.00     0.001 A 
HETATM   29  C   UNL     1      18.878  50.550  47.309  1.00  0.00     0.012 A 
BRANCH  25  30
HETATM   30  O   UNL     1      18.009  48.654  50.311  1.00  0.00    -0.355 OA
HETATM   31  C   UNL     1      18.600  48.541  51.603  1.00  0.00     0.210 C 
ENDBRANCH  25  30
ENDBRANCH   2  24
TORSDOF 4
ENDMDL
MODEL 9
REMARK VINA RESULT:      -7.1      2.007      2.908
REMARK  4 active torsions:
REMARK  status: ('A' for Active; 'I' for Inactive)
REMARK    1  A    between atoms: C_6  and  N_7 
REMARK       I    between atoms: N_7  and  C_8 
REMARK    2  A    between atoms: C_8  and  C_9 
REMARK    3  A    between atoms: C_10  and  C_11 
REMARK    4  A    between atoms: C_12  and  O_13 
ROOT
HETATM    1  C   UNL     1      27.382  41.381  49.761  1.00  0.00     0.063 A 
HETATM    2  C   UNL     1      28.287  40.480  48.930  1.00  0.00     0.205 A 
HETATM    3  N   UNL     1      27.790  40.343  47.553  1.00  0.00    -0.084 N 
HETATM    4  C   UNL     1      26.648  40.940  47.088  1.00  0.00     0.725 A 
HETATM    5  N   UNL     1      25.906  41.688  47.924  1.00  0.00    -0.192 N 
HETATM    6  N   UNL     1      28.461  39.730  46.553  1.00  0.00    -0.149 NA
HETATM    7  C   UNL     1      27.617  39.926  45.534  1.00  0.00     0.275 A 
HETATM    8  N   UNL     1      26.500  40.667  45.817  1.00  0.00    -0.054 NA
HETATM    9  C   UNL     1      26.255  41.932  49.247  1.00  0.00     0.037 A 
HETATM   10  C   UNL     1      25.322  42.841  50.012  1.00  0.00     0.070 C 
HETATM   11  H   UNL     1      25.062  42.129  47.569  1.00  0.00     0.184 HD
ENDROOT
BRANCH   1  12
HETATM   12  C   UNL     1      27.728  41.585  51.193  1.00  0.00     0.256 C 
HETATM   13  N   UNL     1      28.629  42.611  51.392  1.00  0.00    -0.323 N 
HETATM   14  H   UNL     1      29.016  43.051  50.571  1.00  0.00     0.169 HD
HETATM   15  O   UNL     1      27.188  40.888  52.043  1.00  0.00    -0.267 OA
BRANCH  13  16
HETATM   16  C   UNL     1      29.052  43.158  52.629  1.00  0.00     0.041 A 
HETATM   17  C   UNL     1      28.271  44.171  53.228  1.00  0.00    -0.035 A 
HETATM   18  C   UNL     1      28.643  44.679  54.489  1.00  0.00     0.015 A 
HETATM   19  C   UNL     1      27.039  44.736  52.571  1.00  0.00     0.050 C 
HETATM   20  C   UNL     1      29.783  44.216  55.152  1.00  0.00    -0.061 A 
HETATM   21  C   UNL     1      30.142  44.726  56.515  1.00  0.00     0.048 C 
HETATM   22  C   UNL     1      30.550  43.221  54.549  1.00  0.00     0.009 A 
HETATM   23  C   UNL     1      30.192  42.704  53.300  1.00  0.00     0.030 A 
ENDBRANCH  13  16
ENDBRANCH   1  12
BRANCH   2  24
HETATM   24  C   UNL     1      28.505  39.107  49.552  1.00  0.00     0.005 A 
HETATM   25  C   UNL     1      27.509  38.116  49.472  1.00  0.00     0.076 A 
HETATM   26  C   UNL     1      27.732  36.856  50.038  1.00  0.00     0.037 A 
HETATM   27  C   UNL     1      28.929  36.581  50.703  1.00  0.00     0.003 A 
HETATM   28  C   UNL     1      29.915  37.558  50.797  1.00  0.00     0.001 A 
HETATM   29  C   UNL     1      29.708  38.812  50.224  1.00  0.00     0.012 A 
BRANCH  25  30
HETATM   30  O   UNL     1      26.369  38.446  48.783  1.00  0.00    -0.355 OA
HETATM   31  C   UNL     1      25.879  37.454  47.885  1.00  0.00     0.210 C 
ENDBRANCH  25  30
ENDBRANCH   2  24
TORSDOF 4
ENDMDL
MODEL 10
REMARK VINA RESULT:      -7.0      8.163     12.462
REMARK  4 active torsions:
REMARK  status: ('A' for Active; 'I' for Inactive)
REMARK    1  A    between atoms: C_6  and  N_7 
REMARK       I    between atoms: N_7  and  C_8 
REMARK    2  A    between atoms: C_8  and  C_9 
REMARK    3  A    between atoms: C_10  and  C_11 
REMARK    4  A    between atoms: C_12  and  O_13 
ROOT
HETATM    1  C   UNL     1      20.405  47.718  47.789  1.00  0.00     0.063 A 
HETATM    2  C   UNL     1      20.978  49.098  47.495  1.00  0.00     0.205 A 
HETATM    3  N   UNL     1      22.348  49.231  48.011  1.00  0.00    -0.084 N 
HETATM    4  C   UNL     1      23.013  48.241  48.684  1.00  0.00     0.725 A 
HETATM    5  N   UNL     1      22.394  47.070  48.918  1.00  0.00    -0.192 N 
HETATM    6  N   UNL     1      23.159  50.286  47.770  1.00  0.00    -0.149 NA
HETATM    7  C   UNL     1      24.269  49.892  48.404  1.00  0.00     0.275 A 
HETATM    8  N   UNL     1      24.224  48.645  48.970  1.00  0.00    -0.054 NA
HETATM    9  C   UNL     1      21.108  46.783  48.474  1.00  0.00     0.037 A 
HETATM   10  C   UNL     1      20.604  45.395  48.789  1.00  0.00     0.070 C 
HETATM   11  H   UNL     1      22.896  46.340  49.416  1.00  0.00     0.184 HD
ENDROOT
BRANCH   1  12
HETATM   12  C   UNL     1      19.006  47.440  47.367  1.00  0.00     0.256 C 
HETATM   13  N   UNL     1      18.898  47.110  46.032  1.00  0.00    -0.323 N 
HETATM   14  H   UNL     1      19.735  47.169  45.473  1.00  0.00     0.169 HD
HETATM   15  O   UNL     1      18.110  47.489  48.201  1.00  0.00    -0.267 OA
BRANCH  13  16
HETATM   16  C   UNL     1      17.744  46.650  45.349  1.00  0.00     0.041 A 
HETATM   17  C   UNL     1      17.550  45.259  45.200  1.00  0.00    -0.035 A 
HETATM   18  C   UNL     1      16.376  44.785  44.581  1.00  0.00     0.015 A 
HETATM   19  C   UNL     1      18.554  44.247  45.685  1.00  0.00     0.050 C 
HETATM   20  C   UNL     1      15.407  45.665  44.091  1.00  0.00    -0.061 A 
HETATM   21  C   UNL     1      14.139  45.150  43.480  1.00  0.00     0.048 C 
HETATM   22  C   UNL     1      15.611  47.036  44.236  1.00  0.00     0.009 A 
HETATM   23  C   UNL     1      16.769  47.522  44.853  1.00  0.00     0.030 A 
ENDBRANCH  13  16
ENDBRANCH   1  12
BRANCH   2  24
HETATM   24  C   UNL     1      20.106  50.235  48.013  1.00  0.00     0.005 A 
HETATM   25  C   UNL     1      19.225  50.915  47.151  1.00  0.00     0.076 A 
HETATM   26  C   UNL     1      18.423  51.949  47.647  1.00  0.00     0.037 A 
HETATM   27  C   UNL     1      18.505  52.325  48.990  1.00  0.00     0.003 A 
HETATM   28  C   UNL     1      19.380  51.667  49.847  1.00  0.00     0.001 A 
HETATM   29  C   UNL     1      20.174  50.627  49.365  1.00  0.00     0.012 A 
BRANCH  25  30
HETATM   30  O   UNL     1      19.178  50.476  45.852  1.00  0.00    -0.355 OA
HETATM   31  C   UNL     1      18.100  50.980  45.067  1.00  0.00     0.210 C 
ENDBRANCH  25  30
ENDBRANCH   2  24
TORSDOF 4
ENDMDL
