MODEL 1
REMARK VINA RESULT:      -8.9      0.000      0.000
REMARK  6 active torsions:
REMARK  status: ('A' for Active; 'I' for Inactive)
REMARK    1  A    between atoms: O_2  and  C_3 
REMARK    2  A    between atoms: C_6  and  C_7 
REMARK    3  A    between atoms: C_7  and  N_8 
REMARK       I    between atoms: N_8  and  C_9 
REMARK    4  A    between atoms: C_9  and  C_10 
REMARK    5  A    between atoms: C_10  and  O_11 
REMARK    6  A    between atoms: N_12  and  C_13 
ROOT
HETATM    1  C   UNL     1      26.702  42.863  50.146  1.00  0.00     0.256 C 
HETATM    2  N   UNL     1      25.393  43.430  50.491  1.00  0.00    -0.248 N 
HETATM    3  C   UNL     1      24.261  42.635  50.450  1.00  0.00     0.330 C 
HETATM    4  O   UNL     1      23.225  42.868  51.073  1.00  0.00    -0.246 OA
HETATM    5  N   UNL     1      24.320  41.499  49.698  1.00  0.00    -0.308 N 
HETATM    6  C   UNL     1      25.401  41.124  48.911  1.00  0.00     0.048 A 
HETATM    7  C   UNL     1      26.602  41.809  49.059  1.00  0.00     0.034 A 
HETATM    8  C   UNL     1      25.270  40.079  47.997  1.00  0.00     0.030 A 
HETATM    9  C   UNL     1      26.357  39.717  47.204  1.00  0.00     0.002 A 
HETATM   10  C   UNL     1      27.570  40.390  47.334  1.00  0.00     0.001 A 
HETATM   11  C   UNL     1      27.695  41.426  48.262  1.00  0.00     0.015 A 
HETATM   12  H   UNL     1      23.444  40.999  49.627  1.00  0.00     0.170 HD
ENDROOT
BRANCH   1  13
HETATM   13  C   UNL     1      27.447  42.221  51.390  1.00  0.00     0.279 C 
HETATM   14  N   UNL     1      28.439  42.956  52.008  1.00  0.00    -0.352 N 
HETATM   15  H   UNL     1      28.847  43.735  51.508  1.00  0.00     0.162 HD
HETATM   16  O   UNL     1      27.091  41.116  51.815  1.00  0.00    -0.268 OA
BRANCH  14  17
HETATM   17  C   UNL     1      29.248  42.325  53.024  1.00  0.00     0.161 C 
BRANCH  17  18
HETATM   18  C   UNL     1      29.536  43.241  54.183  1.00  0.00    -0.040 A 
HETATM   19  C   UNL     1      30.643  43.010  55.011  1.00  0.00     0.011 A 
HETATM   20  C   UNL     1      30.970  43.906  56.035  1.00  0.00     0.037 A 
HETATM   21  C   UNL     1      30.194  45.046  56.243  1.00  0.00     0.068 A 
HETATM   22  C   UNL     1      29.069  45.259  55.446  1.00  0.00     0.037 A 
HETATM   23  C   UNL     1      28.741  44.368  54.421  1.00  0.00     0.011 A 
BRANCH  21  24
HETATM   24  O   UNL     1      30.425  46.011  57.185  1.00  0.00    -0.356 OA
HETATM   25  C   UNL     1      30.297  45.611  58.544  1.00  0.00     0.210 C 
ENDBRANCH  21  24
ENDBRANCH  17  18
ENDBRANCH  14  17
ENDBRANCH   1  13
BRANCH   1  26
HETATM   26  O   UNL     1      27.511  43.912  49.592  1.00  0.00    -0.359 OA
HETATM   27  H   UNL     1      27.902  44.360  50.367  1.00  0.00     0.213 HD
ENDBRANCH   1  26
BRANCH   2  28
HETATM   28  C   UNL     1      25.281  44.782  50.970  1.00  0.00     0.120 A 
HETATM   29  C   UNL     1      25.501  45.143  52.305  1.00  0.00     0.146 A 
HETATM   30  F   UNL     1      25.774  44.215  53.233  1.00  0.00    -0.204 F 
HETATM   31  C   UNL     1      25.397  46.467  52.742  1.00  0.00     0.045 A 
HETATM   32  C   UNL     1      25.086  47.477  51.838  1.00  0.00     0.006 A 
HETATM   33  C   UNL     1      24.884  47.155  50.499  1.00  0.00     0.045 A 
HETATM   34  C   UNL     1      24.981  45.826  50.078  1.00  0.00     0.146 A 
HETATM   35  F   UNL     1      24.869  45.589  48.761  1.00  0.00    -0.204 F 
ENDBRANCH   2  28
TORSDOF 6
ENDMDL
MODEL 2
REMARK VINA RESULT:      -8.8     12.062     13.405
REMARK  6 active torsions:
REMARK  status: ('A' for Active; 'I' for Inactive)
REMARK    1  A    between atoms: O_2  and  C_3 
REMARK    2  A    between atoms: C_6  and  C_7 
REMARK    3  A    between atoms: C_7  and  N_8 
REMARK       I    between atoms: N_8  and  C_9 
REMARK    4  A    between atoms: C_9  and  C_10 
REMARK    5  A    between atoms: C_10  and  O_11 
REMARK    6  A    between atoms: N_12  and  C_13 
ROOT
HETATM    1  C   UNL     1      29.992  48.783  39.956  1.00  0.00     0.256 C 
HETATM    2  N   UNL     1      29.032  49.781  40.440  1.00  0.00    -0.248 N 
HETATM    3  C   UNL     1      28.022  49.407  41.308  1.00  0.00     0.330 C 
HETATM    4  O   UNL     1      27.432  50.180  42.064  1.00  0.00    -0.246 OA
HETATM    5  N   UNL     1      27.689  48.085  41.349  1.00  0.00    -0.308 N 
HETATM    6  C   UNL     1      28.234  47.104  40.532  1.00  0.00     0.048 A 
HETATM    7  C   UNL     1      29.357  47.417  39.774  1.00  0.00     0.034 A 
HETATM    8  C   UNL     1      27.657  45.835  40.484  1.00  0.00     0.030 A 
HETATM    9  C   UNL     1      28.205  44.860  39.652  1.00  0.00     0.002 A 
HETATM   10  C   UNL     1      29.329  45.153  38.882  1.00  0.00     0.001 A 
HETATM   11  C   UNL     1      29.908  46.422  38.948  1.00  0.00     0.015 A 
HETATM   12  H   UNL     1      26.888  47.874  41.930  1.00  0.00     0.170 HD
ENDROOT
BRANCH   1  13
HETATM   13  C   UNL     1      31.250  48.620  40.908  1.00  0.00     0.279 C 
HETATM   14  N   UNL     1      32.484  49.020  40.435  1.00  0.00    -0.352 N 
HETATM   15  H   UNL     1      32.604  49.141  39.438  1.00  0.00     0.162 HD
HETATM   16  O   UNL     1      31.097  48.199  42.061  1.00  0.00    -0.268 OA
BRANCH  14  17
HETATM   17  C   UNL     1      33.664  48.718  41.212  1.00  0.00     0.161 C 
BRANCH  17  18
HETATM   18  C   UNL     1      34.229  49.932  41.897  1.00  0.00    -0.040 A 
HETATM   19  C   UNL     1      33.436  50.684  42.775  1.00  0.00     0.011 A 
HETATM   20  C   UNL     1      33.978  51.760  43.486  1.00  0.00     0.037 A 
HETATM   21  C   UNL     1      35.322  52.097  43.330  1.00  0.00     0.068 A 
HETATM   22  C   UNL     1      36.105  51.376  42.428  1.00  0.00     0.037 A 
HETATM   23  C   UNL     1      35.568  50.298  41.719  1.00  0.00     0.011 A 
BRANCH  21  24
HETATM   24  O   UNL     1      35.978  53.102  43.987  1.00  0.00    -0.356 OA
HETATM   25  C   UNL     1      37.163  52.735  44.682  1.00  0.00     0.210 C 
ENDBRANCH  21  24
ENDBRANCH  17  18
ENDBRANCH  14  17
ENDBRANCH   1  13
BRANCH   1  26
HETATM   26  O   UNL     1      30.431  49.182  38.648  1.00  0.00    -0.359 OA
HETATM   27  H   UNL     1      31.054  49.917  38.808  1.00  0.00     0.213 HD
ENDBRANCH   1  26
BRANCH   2  28
HETATM   28  C   UNL     1      29.185  51.172  40.103  1.00  0.00     0.120 A 
HETATM   29  C   UNL     1      28.571  51.763  38.991  1.00  0.00     0.146 A 
HETATM   30  F   UNL     1      27.844  51.031  38.135  1.00  0.00    -0.204 F 
HETATM   31  C   UNL     1      28.726  53.120  38.693  1.00  0.00     0.045 A 
HETATM   32  C   UNL     1      29.492  53.933  39.522  1.00  0.00     0.006 A 
HETATM   33  C   UNL     1      30.097  53.381  40.647  1.00  0.00     0.045 A 
HETATM   34  C   UNL     1      29.942  52.021  40.928  1.00  0.00     0.146 A 
HETATM   35  F   UNL     1      30.470  51.566  42.075  1.00  0.00    -0.204 F 
ENDBRANCH   2  28
TORSDOF 6
ENDMDL
MODEL 3
REMARK VINA RESULT:      -8.7     11.324     13.325
REMARK  6 active torsions:
REMARK  status: ('A' for Active; 'I' for Inactive)
REMARK    1  A    between atoms: O_2  and  C_3 
REMARK    2  A    between atoms: C_6  and  C_7 
REMARK    3  A    between atoms: C_7  and  N_8 
REMARK       I    between atoms: N_8  and  C_9 
REMARK    4  A    between atoms: C_9  and  C_10 
REMARK    5  A    between atoms: C_10  and  O_11 
REMARK    6  A    between atoms: N_12  and  C_13 
ROOT
HETATM    1  C   UNL     1      28.004  49.532  40.812  1.00  0.00     0.256 C 
HETATM    2  N   UNL     1      27.183  48.720  39.908  1.00  0.00    -0.248 N 
HETATM    3  C   UNL     1      27.319  48.857  38.537  1.00  0.00     0.330 C 
HETATM    4  O   UNL     1      26.999  47.996  37.717  1.00  0.00    -0.246 OA
HETATM    5  N   UNL     1      27.879  50.011  38.075  1.00  0.00    -0.308 N 
HETATM    6  C   UNL     1      28.251  51.086  38.871  1.00  0.00     0.048 A 
HETATM    7  C   UNL     1      28.280  50.915  40.251  1.00  0.00     0.034 A 
HETATM    8  C   UNL     1      28.586  52.307  38.285  1.00  0.00     0.030 A 
HETATM    9  C   UNL     1      28.947  53.384  39.093  1.00  0.00     0.002 A 
HETATM   10  C   UNL     1      28.981  53.234  40.478  1.00  0.00     0.001 A 
HETATM   11  C   UNL     1      28.657  52.005  41.055  1.00  0.00     0.015 A 
HETATM   12  H   UNL     1      27.876  50.104  37.068  1.00  0.00     0.170 HD
ENDROOT
BRANCH   1  13
HETATM   13  C   UNL     1      29.396  48.856  41.161  1.00  0.00     0.279 C 
HETATM   14  N   UNL     1      29.806  48.849  42.481  1.00  0.00    -0.352 N 
HETATM   15  H   UNL     1      29.368  49.493  43.126  1.00  0.00     0.162 HD
HETATM   16  O   UNL     1      30.050  48.302  40.271  1.00  0.00    -0.268 OA
BRANCH  14  17
HETATM   17  C   UNL     1      31.142  48.401  42.796  1.00  0.00     0.161 C 
BRANCH  17  18
HETATM   18  C   UNL     1      32.164  49.496  42.663  1.00  0.00    -0.040 A 
HETATM   19  C   UNL     1      32.122  50.612  43.510  1.00  0.00     0.011 A 
HETATM   20  C   UNL     1      33.120  51.592  43.454  1.00  0.00     0.037 A 
HETATM   21  C   UNL     1      34.174  51.466  42.550  1.00  0.00     0.068 A 
HETATM   22  C   UNL     1      34.198  50.377  41.678  1.00  0.00     0.037 A 
HETATM   23  C   UNL     1      33.206  49.395  41.734  1.00  0.00     0.011 A 
BRANCH  21  24
HETATM   24  O   UNL     1      35.223  52.334  42.417  1.00  0.00    -0.356 OA
HETATM   25  C   UNL     1      36.154  52.369  43.492  1.00  0.00     0.210 C 
ENDBRANCH  21  24
ENDBRANCH  17  18
ENDBRANCH  14  17
ENDBRANCH   1  13
BRANCH   1  26
HETATM   26  O   UNL     1      27.260  49.748  42.020  1.00  0.00    -0.359 OA
HETATM   27  H   UNL     1      26.419  50.148  41.725  1.00  0.00     0.213 HD
ENDBRANCH   1  26
BRANCH   2  28
HETATM   28  C   UNL     1      26.303  47.706  40.425  1.00  0.00     0.120 A 
HETATM   29  C   UNL     1      26.762  46.504  40.979  1.00  0.00     0.146 A 
HETATM   30  F   UNL     1      28.069  46.208  40.998  1.00  0.00    -0.204 F 
HETATM   31  C   UNL     1      25.886  45.540  41.485  1.00  0.00     0.045 A 
HETATM   32  C   UNL     1      24.513  45.766  41.469  1.00  0.00     0.006 A 
HETATM   33  C   UNL     1      24.027  46.961  40.946  1.00  0.00     0.045 A 
HETATM   34  C   UNL     1      24.913  47.912  40.434  1.00  0.00     0.146 A 
HETATM   35  F   UNL     1      24.393  49.082  40.030  1.00  0.00    -0.204 F 
ENDBRANCH   2  28
TORSDOF 6
ENDMDL
MODEL 4
REMARK VINA RESULT:      -8.6      6.615      9.262
REMARK  6 active torsions:
REMARK  status: ('A' for Active; 'I' for Inactive)
REMARK    1  A    between atoms: O_2  and  C_3 
REMARK    2  A    between atoms: C_6  and  C_7 
REMARK    3  A    between atoms: C_7  and  N_8 
REMARK       I    between atoms: N_8  and  C_9 
REMARK    4  A    between atoms: C_9  and  C_10 
REMARK    5  A    between atoms: C_10  and  O_11 
REMARK    6  A    between atoms: N_12  and  C_13 
ROOT
HETATM    1  C   UNL     1      19.566  49.028  47.947  1.00  0.00     0.256 C 
HETATM    2  N   UNL     1      18.709  49.271  49.112  1.00  0.00    -0.248 N 
HETATM    3  C   UNL     1      18.743  48.404  50.191  1.00  0.00     0.330 C 
HETATM    4  O   UNL     1      18.395  48.702  51.333  1.00  0.00    -0.246 OA
HETATM    5  N   UNL     1      19.232  47.150  49.971  1.00  0.00    -0.308 N 
HETATM    6  C   UNL     1      19.624  46.657  48.733  1.00  0.00     0.048 A 
HETATM    7  C   UNL     1      19.756  47.547  47.673  1.00  0.00     0.034 A 
HETATM    8  C   UNL     1      19.877  45.295  48.572  1.00  0.00     0.030 A 
HETATM    9  C   UNL     1      20.259  44.808  47.323  1.00  0.00     0.002 A 
HETATM   10  C   UNL     1      20.396  45.682  46.247  1.00  0.00     0.001 A 
HETATM   11  C   UNL     1      20.154  47.046  46.422  1.00  0.00     0.015 A 
HETATM   12  H   UNL     1      19.154  46.526  50.763  1.00  0.00     0.170 HD
ENDROOT
BRANCH   1  13
HETATM   13  C   UNL     1      21.000  49.693  48.081  1.00  0.00     0.279 C 
HETATM   14  N   UNL     1      22.024  48.935  48.616  1.00  0.00    -0.352 N 
HETATM   15  H   UNL     1      21.786  48.108  49.148  1.00  0.00     0.162 HD
HETATM   16  O   UNL     1      21.188  50.838  47.656  1.00  0.00    -0.268 OA
BRANCH  14  17
HETATM   17  C   UNL     1      23.286  49.572  48.911  1.00  0.00     0.161 C 
BRANCH  17  18
HETATM   18  C   UNL     1      24.367  48.581  49.246  1.00  0.00    -0.040 A 
HETATM   19  C   UNL     1      24.038  47.267  49.608  1.00  0.00     0.011 A 
HETATM   20  C   UNL     1      25.037  46.315  49.832  1.00  0.00     0.037 A 
HETATM   21  C   UNL     1      26.380  46.664  49.697  1.00  0.00     0.068 A 
HETATM   22  C   UNL     1      26.714  47.980  49.376  1.00  0.00     0.037 A 
HETATM   23  C   UNL     1      25.718  48.933  49.147  1.00  0.00     0.011 A 
BRANCH  21  24
HETATM   24  O   UNL     1      27.447  45.823  49.858  1.00  0.00    -0.356 OA
HETATM   25  C   UNL     1      27.145  44.483  50.229  1.00  0.00     0.210 C 
ENDBRANCH  21  24
ENDBRANCH  17  18
ENDBRANCH  14  17
ENDBRANCH   1  13
BRANCH   1  26
HETATM   26  O   UNL     1      18.902  49.552  46.787  1.00  0.00    -0.359 OA
HETATM   27  H   UNL     1      18.806  50.508  46.966  1.00  0.00     0.213 HD
ENDBRANCH   1  26
BRANCH   2  28
HETATM   28  C   UNL     1      17.902  50.460  49.196  1.00  0.00     0.120 A 
HETATM   29  C   UNL     1      16.561  50.505  48.794  1.00  0.00     0.146 A 
HETATM   30  F   UNL     1      15.971  49.436  48.242  1.00  0.00    -0.204 F 
HETATM   31  C   UNL     1      15.796  51.670  48.897  1.00  0.00     0.045 A 
HETATM   32  C   UNL     1      16.354  52.826  49.432  1.00  0.00     0.006 A 
HETATM   33  C   UNL     1      17.677  52.808  49.862  1.00  0.00     0.045 A 
HETATM   34  C   UNL     1      18.434  51.640  49.744  1.00  0.00     0.146 A 
HETATM   35  F   UNL     1      19.673  51.655  50.261  1.00  0.00    -0.204 F 
ENDBRANCH   2  28
TORSDOF 6
ENDMDL
MODEL 5
REMARK VINA RESULT:      -8.3      2.582      6.788
REMARK  6 active torsions:
REMARK  status: ('A' for Active; 'I' for Inactive)
REMARK    1  A    between atoms: O_2  and  C_3 
REMARK    2  A    between atoms: C_6  and  C_7 
REMARK    3  A    between atoms: C_7  and  N_8 
REMARK       I    between atoms: N_8  and  C_9 
REMARK    4  A    between atoms: C_9  and  C_10 
REMARK    5  A    between atoms: C_10  and  O_11 
REMARK    6  A    between atoms: N_12  and  C_13 
ROOT
HETATM    1  C   UNL     1      27.606  43.351  52.138  1.00  0.00     0.256 C 
HETATM    2  N   UNL     1      27.452  43.690  53.557  1.00  0.00    -0.248 N 
HETATM    3  C   UNL     1      26.190  43.743  54.123  1.00  0.00     0.330 C 
HETATM    4  O   UNL     1      25.963  43.623  55.327  1.00  0.00    -0.246 OA
HETATM    5  N   UNL     1      25.131  43.902  53.280  1.00  0.00    -0.308 N 
HETATM    6  C   UNL     1      25.231  44.091  51.908  1.00  0.00     0.048 A 
HETATM    7  C   UNL     1      26.460  43.879  51.294  1.00  0.00     0.034 A 
HETATM    8  C   UNL     1      24.112  44.485  51.173  1.00  0.00     0.030 A 
HETATM    9  C   UNL     1      24.225  44.682  49.798  1.00  0.00     0.002 A 
HETATM   10  C   UNL     1      25.448  44.477  49.163  1.00  0.00     0.001 A 
HETATM   11  C   UNL     1      26.559  44.069  49.905  1.00  0.00     0.015 A 
HETATM   12  H   UNL     1      24.240  44.025  53.745  1.00  0.00     0.170 HD
ENDROOT
BRANCH   1  13
HETATM   13  C   UNL     1      27.728  41.790  51.883  1.00  0.00     0.279 C 
HETATM   14  N   UNL     1      28.763  41.338  51.087  1.00  0.00    -0.352 N 
HETATM   15  H   UNL     1      29.232  41.998  50.482  1.00  0.00     0.162 HD
HETATM   16  O   UNL     1      26.944  41.013  52.440  1.00  0.00    -0.268 OA
BRANCH  14  17
HETATM   17  C   UNL     1      28.790  39.947  50.697  1.00  0.00     0.161 C 
BRANCH  17  18
HETATM   18  C   UNL     1      28.564  39.758  49.222  1.00  0.00    -0.040 A 
HETATM   19  C   UNL     1      28.689  38.488  48.643  1.00  0.00     0.011 A 
HETATM   20  C   UNL     1      28.393  38.286  47.290  1.00  0.00     0.037 A 
HETATM   21  C   UNL     1      27.964  39.352  46.500  1.00  0.00     0.068 A 
HETATM   22  C   UNL     1      27.875  40.625  47.063  1.00  0.00     0.037 A 
HETATM   23  C   UNL     1      28.168  40.830  48.414  1.00  0.00     0.011 A 
BRANCH  21  24
HETATM   24  O   UNL     1      27.615  39.280  45.179  1.00  0.00    -0.356 OA
HETATM   25  C   UNL     1      27.674  40.496  44.443  1.00  0.00     0.210 C 
ENDBRANCH  21  24
ENDBRANCH  17  18
ENDBRANCH  14  17
ENDBRANCH   1  13
BRANCH   1  26
HETATM   26  O   UNL     1      28.782  44.010  51.646  1.00  0.00    -0.359 OA
HETATM   27  H   UNL     1      29.041  43.499  50.855  1.00  0.00     0.213 HD
ENDBRANCH   1  26
BRANCH   2  28
HETATM   28  C   UNL     1      28.604  43.871  54.399  1.00  0.00     0.120 A 
HETATM   29  C   UNL     1      29.492  42.835  54.717  1.00  0.00     0.146 A 
HETATM   30  F   UNL     1      29.271  41.583  54.291  1.00  0.00    -0.204 F 
HETATM   31  C   UNL     1      30.611  43.041  55.528  1.00  0.00     0.045 A 
HETATM   32  C   UNL     1      30.884  44.309  56.031  1.00  0.00     0.006 A 
HETATM   33  C   UNL     1      30.034  45.364  55.715  1.00  0.00     0.045 A 
HETATM   34  C   UNL     1      28.914  45.143  54.911  1.00  0.00     0.146 A 
HETATM   35  F   UNL     1      28.184  46.215  54.564  1.00  0.00    -0.204 F 
ENDBRANCH   2  28
TORSDOF 6
ENDMDL
MODEL 6
REMARK VINA RESULT:      -8.0      9.889     13.618
REMARK  6 active torsions:
REMARK  status: ('A' for Active; 'I' for Inactive)
REMARK    1  A    between atoms: O_2  and  C_3 
REMARK    2  A    between atoms: C_6  and  C_7 
REMARK    3  A    between atoms: C_7  and  N_8 
REMARK       I    between atoms: N_8  and  C_9 
REMARK    4  A    between atoms: C_9  and  C_10 
REMARK    5  A    between atoms: C_10  and  O_11 
REMARK    6  A    between atoms: N_12  and  C_13 
ROOT
HETATM    1  C   UNL     1      16.289  51.386  48.268  1.00  0.00     0.256 C 
HETATM    2  N   UNL     1      16.287  51.353  46.801  1.00  0.00    -0.248 N 
HETATM    3  C   UNL     1      16.039  52.509  46.082  1.00  0.00     0.330 C 
HETATM    4  O   UNL     1      16.391  52.692  44.917  1.00  0.00    -0.246 OA
HETATM    5  N   UNL     1      15.394  53.522  46.728  1.00  0.00    -0.308 N 
HETATM    6  C   UNL     1      14.901  53.450  48.024  1.00  0.00     0.048 A 
HETATM    7  C   UNL     1      15.277  52.373  48.820  1.00  0.00     0.034 A 
HETATM    8  C   UNL     1      14.049  54.444  48.504  1.00  0.00     0.030 A 
HETATM    9  C   UNL     1      13.551  54.357  49.803  1.00  0.00     0.002 A 
HETATM   10  C   UNL     1      13.914  53.286  50.618  1.00  0.00     0.001 A 
HETATM   11  C   UNL     1      14.778  52.303  50.133  1.00  0.00     0.015 A 
HETATM   12  H   UNL     1      15.156  54.309  46.138  1.00  0.00     0.170 HD
ENDROOT
BRANCH   1  13
HETATM   13  C   UNL     1      17.708  51.740  48.879  1.00  0.00     0.279 C 
HETATM   14  N   UNL     1      18.419  50.735  49.507  1.00  0.00    -0.352 N 
HETATM   15  H   UNL     1      17.924  49.903  49.800  1.00  0.00     0.162 HD
HETATM   16  O   UNL     1      18.174  52.876  48.733  1.00  0.00    -0.268 OA
BRANCH  14  17
HETATM   17  C   UNL     1      19.626  51.074  50.223  1.00  0.00     0.161 C 
BRANCH  17  18
HETATM   18  C   UNL     1      20.870  50.720  49.454  1.00  0.00    -0.040 A 
HETATM   19  C   UNL     1      20.786  49.962  48.278  1.00  0.00     0.011 A 
HETATM   20  C   UNL     1      21.925  49.706  47.508  1.00  0.00     0.037 A 
HETATM   21  C   UNL     1      23.165  50.206  47.904  1.00  0.00     0.068 A 
HETATM   22  C   UNL     1      23.261  50.927  49.094  1.00  0.00     0.037 A 
HETATM   23  C   UNL     1      22.124  51.189  49.864  1.00  0.00     0.011 A 
BRANCH  21  24
HETATM   24  O   UNL     1      24.344  50.053  47.227  1.00  0.00    -0.356 OA
HETATM   25  C   UNL     1      25.524  49.989  48.019  1.00  0.00     0.210 C 
ENDBRANCH  21  24
ENDBRANCH  17  18
ENDBRANCH  14  17
ENDBRANCH   1  13
BRANCH   1  26
HETATM   26  O   UNL     1      15.870  50.098  48.745  1.00  0.00    -0.359 OA
HETATM   27  H   UNL     1      15.134  50.288  49.359  1.00  0.00     0.213 HD
ENDBRANCH   1  26
BRANCH   2  28
HETATM   28  C   UNL     1      16.641  50.151  46.093  1.00  0.00     0.120 A 
HETATM   29  C   UNL     1      15.702  49.191  45.695  1.00  0.00     0.146 A 
HETATM   30  F   UNL     1      14.407  49.320  46.015  1.00  0.00    -0.204 F 
HETATM   31  C   UNL     1      16.071  48.038  44.997  1.00  0.00     0.045 A 
HETATM   32  C   UNL     1      17.403  47.824  44.658  1.00  0.00     0.006 A 
HETATM   33  C   UNL     1      18.358  48.770  45.019  1.00  0.00     0.045 A 
HETATM   34  C   UNL     1      17.977  49.914  45.725  1.00  0.00     0.146 A 
HETATM   35  F   UNL     1      18.925  50.834  45.963  1.00  0.00    -0.204 F 
ENDBRANCH   2  28
TORSDOF 6
ENDMDL
MODEL 7
REMARK VINA RESULT:      -8.0      2.933      6.949
REMARK  6 active torsions:
REMARK  status: ('A' for Active; 'I' for Inactive)
REMARK    1  A    between atoms: O_2  and  C_3 
REMARK    2  A    between atoms: C_6  and  C_7 
REMARK    3  A    between atoms: C_7  and  N_8 
REMARK       I    between atoms: N_8  and  C_9 
REMARK    4  A    between atoms: C_9  and  C_10 
REMARK    5  A    between atoms: C_10  and  O_11 
REMARK    6  A    between atoms: N_12  and  C_13 
ROOT
HETATM    1  C   UNL     1      25.726  43.870  50.428  1.00  0.00     0.256 C 
HETATM    2  N   UNL     1      26.716  42.796  50.293  1.00  0.00    -0.248 N 
HETATM    3  C   UNL     1      26.884  42.158  49.077  1.00  0.00     0.330 C 
HETATM    4  O   UNL     1      27.904  41.555  48.743  1.00  0.00    -0.246 OA
HETATM    5  N   UNL     1      25.860  42.239  48.180  1.00  0.00    -0.308 N 
HETATM    6  C   UNL     1      24.636  42.847  48.426  1.00  0.00     0.048 A 
HETATM    7  C   UNL     1      24.500  43.632  49.566  1.00  0.00     0.034 A 
HETATM    8  C   UNL     1      23.575  42.665  47.540  1.00  0.00     0.030 A 
HETATM    9  C   UNL     1      22.347  43.270  47.802  1.00  0.00     0.002 A 
HETATM   10  C   UNL     1      22.188  44.060  48.938  1.00  0.00     0.001 A 
HETATM   11  C   UNL     1      23.260  44.247  49.813  1.00  0.00     0.015 A 
HETATM   12  H   UNL     1      25.991  41.684  47.344  1.00  0.00     0.170 HD
ENDROOT
BRANCH   1  13
HETATM   13  C   UNL     1      26.309  45.301  50.073  1.00  0.00     0.279 C 
HETATM   14  N   UNL     1      25.907  46.379  50.837  1.00  0.00    -0.352 N 
HETATM   15  H   UNL     1      25.071  46.288  51.400  1.00  0.00     0.162 HD
HETATM   16  O   UNL     1      27.147  45.415  49.171  1.00  0.00    -0.268 OA
BRANCH  14  17
HETATM   17  C   UNL     1      26.283  47.710  50.423  1.00  0.00     0.161 C 
BRANCH  17  18
HETATM   18  C   UNL     1      25.228  48.371  49.577  1.00  0.00    -0.040 A 
HETATM   19  C   UNL     1      23.890  47.965  49.669  1.00  0.00     0.011 A 
HETATM   20  C   UNL     1      22.889  48.633  48.955  1.00  0.00     0.037 A 
HETATM   21  C   UNL     1      23.214  49.717  48.141  1.00  0.00     0.068 A 
HETATM   22  C   UNL     1      24.550  50.100  48.016  1.00  0.00     0.037 A 
HETATM   23  C   UNL     1      25.552  49.437  48.731  1.00  0.00     0.011 A 
BRANCH  21  24
HETATM   24  O   UNL     1      22.329  50.470  47.418  1.00  0.00    -0.356 OA
HETATM   25  C   UNL     1      20.949  50.201  47.630  1.00  0.00     0.210 C 
ENDBRANCH  21  24
ENDBRANCH  17  18
ENDBRANCH  14  17
ENDBRANCH   1  13
BRANCH   1  26
HETATM   26  O   UNL     1      25.249  43.870  51.783  1.00  0.00    -0.359 OA
HETATM   27  H   UNL     1      24.275  43.848  51.703  1.00  0.00     0.213 HD
ENDBRANCH   1  26
BRANCH   2  28
HETATM   28  C   UNL     1      27.592  42.462  51.385  1.00  0.00     0.120 A 
HETATM   29  C   UNL     1      28.577  43.330  51.871  1.00  0.00     0.146 A 
HETATM   30  F   UNL     1      28.796  44.518  51.290  1.00  0.00    -0.204 F 
HETATM   31  C   UNL     1      29.407  42.985  52.942  1.00  0.00     0.045 A 
HETATM   32  C   UNL     1      29.255  41.755  53.573  1.00  0.00     0.006 A 
HETATM   33  C   UNL     1      28.271  40.878  53.128  1.00  0.00     0.045 A 
HETATM   34  C   UNL     1      27.454  41.232  52.051  1.00  0.00     0.146 A 
HETATM   35  F   UNL     1      26.462  40.387  51.728  1.00  0.00    -0.204 F 
ENDBRANCH   2  28
TORSDOF 6
ENDMDL
MODEL 8
REMARK VINA RESULT:      -8.0      3.553      7.480
REMARK  6 active torsions:
REMARK  status: ('A' for Active; 'I' for Inactive)
REMARK    1  A    between atoms: O_2  and  C_3 
REMARK    2  A    between atoms: C_6  and  C_7 
REMARK    3  A    between atoms: C_7  and  N_8 
REMARK       I    between atoms: N_8  and  C_9 
REMARK    4  A    between atoms: C_9  and  C_10 
REMARK    5  A    between atoms: C_10  and  O_11 
REMARK    6  A    between atoms: N_12  and  C_13 
ROOT
HETATM    1  C   UNL     1      24.298  44.504  50.241  1.00  0.00     0.256 C 
HETATM    2  N   UNL     1      25.638  44.660  50.818  1.00  0.00    -0.248 N 
HETATM    3  C   UNL     1      26.744  44.172  50.144  1.00  0.00     0.330 C 
HETATM    4  O   UNL     1      27.895  44.575  50.314  1.00  0.00    -0.246 OA
HETATM    5  N   UNL     1      26.530  43.207  49.205  1.00  0.00    -0.308 N 
HETATM    6  C   UNL     1      25.299  42.626  48.930  1.00  0.00     0.048 A 
HETATM    7  C   UNL     1      24.154  43.206  49.467  1.00  0.00     0.034 A 
HETATM    8  C   UNL     1      25.227  41.486  48.130  1.00  0.00     0.030 A 
HETATM    9  C   UNL     1      23.988  40.904  47.870  1.00  0.00     0.002 A 
HETATM   10  C   UNL     1      22.829  41.467  48.399  1.00  0.00     0.001 A 
HETATM   11  C   UNL     1      22.909  42.617  49.187  1.00  0.00     0.015 A 
HETATM   12  H   UNL     1      27.374  42.820  48.804  1.00  0.00     0.170 HD
ENDROOT
BRANCH   1  13
HETATM   13  C   UNL     1      23.893  45.698  49.279  1.00  0.00     0.279 C 
HETATM   14  N   UNL     1      22.573  46.103  49.261  1.00  0.00    -0.352 N 
HETATM   15  H   UNL     1      21.870  45.477  49.631  1.00  0.00     0.162 HD
HETATM   16  O   UNL     1      24.764  46.276  48.618  1.00  0.00    -0.268 OA
BRANCH  14  17
HETATM   17  C   UNL     1      22.149  47.064  48.269  1.00  0.00     0.161 C 
BRANCH  17  18
HETATM   18  C   UNL     1      21.469  48.260  48.878  1.00  0.00    -0.040 A 
HETATM   19  C   UNL     1      22.188  49.440  49.114  1.00  0.00     0.011 A 
HETATM   20  C   UNL     1      21.545  50.585  49.596  1.00  0.00     0.037 A 
HETATM   21  C   UNL     1      20.174  50.566  49.846  1.00  0.00     0.068 A 
HETATM   22  C   UNL     1      19.462  49.382  49.650  1.00  0.00     0.037 A 
HETATM   23  C   UNL     1      20.100  48.237  49.166  1.00  0.00     0.011 A 
BRANCH  21  24
HETATM   24  O   UNL     1      19.424  51.622  50.287  1.00  0.00    -0.356 OA
HETATM   25  C   UNL     1      18.561  52.227  49.332  1.00  0.00     0.210 C 
ENDBRANCH  21  24
ENDBRANCH  17  18
ENDBRANCH  14  17
ENDBRANCH   1  13
BRANCH   1  26
HETATM   26  O   UNL     1      23.354  44.416  51.319  1.00  0.00    -0.359 OA
HETATM   27  H   UNL     1      22.743  45.164  51.175  1.00  0.00     0.213 HD
ENDBRANCH   1  26
BRANCH   2  28
HETATM   28  C   UNL     1      25.832  45.406  52.033  1.00  0.00     0.120 A 
HETATM   29  C   UNL     1      25.962  46.800  52.064  1.00  0.00     0.146 A 
HETATM   30  F   UNL     1      25.972  47.517  50.932  1.00  0.00    -0.204 F 
HETATM   31  C   UNL     1      26.138  47.501  53.260  1.00  0.00     0.045 A 
HETATM   32  C   UNL     1      26.169  46.818  54.471  1.00  0.00     0.006 A 
HETATM   33  C   UNL     1      26.020  45.434  54.477  1.00  0.00     0.045 A 
HETATM   34  C   UNL     1      25.854  44.745  53.273  1.00  0.00     0.146 A 
HETATM   35  F   UNL     1      25.621  43.425  53.348  1.00  0.00    -0.204 F 
ENDBRANCH   2  28
TORSDOF 6
ENDMDL
MODEL 9
REMARK VINA RESULT:      -8.0     16.539     19.349
REMARK  6 active torsions:
REMARK  status: ('A' for Active; 'I' for Inactive)
REMARK    1  A    between atoms: O_2  and  C_3 
REMARK    2  A    between atoms: C_6  and  C_7 
REMARK    3  A    between atoms: C_7  and  N_8 
REMARK       I    between atoms: N_8  and  C_9 
REMARK    4  A    between atoms: C_9  and  C_10 
REMARK    5  A    between atoms: C_10  and  O_11 
REMARK    6  A    between atoms: N_12  and  C_13 
ROOT
HETATM    1  C   UNL     1      38.381  46.131  65.235  1.00  0.00     0.256 C 
HETATM    2  N   UNL     1      39.574  45.614  65.915  1.00  0.00    -0.248 N 
HETATM    3  C   UNL     1      39.448  44.936  67.115  1.00  0.00     0.330 C 
HETATM    4  O   UNL     1      40.281  44.144  67.556  1.00  0.00    -0.246 OA
HETATM    5  N   UNL     1      38.306  45.137  67.832  1.00  0.00    -0.308 N 
HETATM    6  C   UNL     1      37.298  46.027  67.484  1.00  0.00     0.048 A 
HETATM    7  C   UNL     1      37.317  46.594  66.215  1.00  0.00     0.034 A 
HETATM    8  C   UNL     1      36.293  46.336  68.401  1.00  0.00     0.030 A 
HETATM    9  C   UNL     1      35.292  47.239  68.047  1.00  0.00     0.002 A 
HETATM   10  C   UNL     1      35.293  47.820  66.780  1.00  0.00     0.001 A 
HETATM   11  C   UNL     1      36.296  47.493  65.865  1.00  0.00     0.015 A 
HETATM   12  H   UNL     1      38.298  44.692  68.740  1.00  0.00     0.170 HD
ENDROOT
BRANCH   1  13
HETATM   13  C   UNL     1      37.721  45.077  64.252  1.00  0.00     0.279 C 
HETATM   14  N   UNL     1      37.762  43.741  64.603  1.00  0.00    -0.352 N 
HETATM   15  H   UNL     1      38.427  43.446  65.305  1.00  0.00     0.162 HD
HETATM   16  O   UNL     1      37.138  45.468  63.234  1.00  0.00    -0.268 OA
BRANCH  14  17
HETATM   17  C   UNL     1      37.328  42.752  63.644  1.00  0.00     0.161 C 
BRANCH  17  18
HETATM   18  C   UNL     1      38.146  41.491  63.708  1.00  0.00    -0.040 A 
HETATM   19  C   UNL     1      38.835  41.035  62.575  1.00  0.00     0.011 A 
HETATM   20  C   UNL     1      39.670  39.915  62.648  1.00  0.00     0.037 A 
HETATM   21  C   UNL     1      39.828  39.236  63.856  1.00  0.00     0.068 A 
HETATM   22  C   UNL     1      39.114  39.663  64.976  1.00  0.00     0.037 A 
HETATM   23  C   UNL     1      38.282  40.784  64.908  1.00  0.00     0.011 A 
BRANCH  21  24
HETATM   24  O   UNL     1      40.635  38.152  64.066  1.00  0.00    -0.356 OA
HETATM   25  C   UNL     1      41.961  38.425  64.502  1.00  0.00     0.210 C 
ENDBRANCH  21  24
ENDBRANCH  17  18
ENDBRANCH  14  17
ENDBRANCH   1  13
BRANCH   1  26
HETATM   26  O   UNL     1      38.760  47.303  64.497  1.00  0.00    -0.359 OA
HETATM   27  H   UNL     1      39.055  46.965  63.629  1.00  0.00     0.213 HD
ENDBRANCH   1  26
BRANCH   2  28
HETATM   28  C   UNL     1      40.871  45.714  65.300  1.00  0.00     0.120 A 
HETATM   29  C   UNL     1      41.333  44.810  64.335  1.00  0.00     0.146 A 
HETATM   30  F   UNL     1      40.595  43.750  63.974  1.00  0.00    -0.204 F 
HETATM   31  C   UNL     1      42.594  44.936  63.745  1.00  0.00     0.045 A 
HETATM   32  C   UNL     1      43.425  45.995  64.096  1.00  0.00     0.006 A 
HETATM   33  C   UNL     1      42.986  46.923  65.035  1.00  0.00     0.045 A 
HETATM   34  C   UNL     1      41.728  46.779  65.624  1.00  0.00     0.146 A 
HETATM   35  F   UNL     1      41.322  47.755  66.452  1.00  0.00    -0.204 F 
ENDBRANCH   2  28
TORSDOF 6
ENDMDL
MODEL 10
REMARK VINA RESULT:      -7.9     11.997     14.561
REMARK  6 active torsions:
REMARK  status: ('A' for Active; 'I' for Inactive)
REMARK    1  A    between atoms: O_2  and  C_3 
REMARK    2  A    between atoms: C_6  and  C_7 
REMARK    3  A    between atoms: C_7  and  N_8 
REMARK       I    between atoms: N_8  and  C_9 
REMARK    4  A    between atoms: C_9  and  C_10 
REMARK    5  A    between atoms: C_10  and  O_11 
REMARK    6  A    between atoms: N_12  and  C_13 
ROOT
HETATM    1  C   UNL     1      27.462  48.972  40.189  1.00  0.00     0.256 C 
HETATM    2  N   UNL     1      28.765  49.524  39.803  1.00  0.00    -0.248 N 
HETATM    3  C   UNL     1      29.616  48.792  38.994  1.00  0.00     0.330 C 
HETATM    4  O   UNL     1      30.511  49.280  38.304  1.00  0.00    -0.246 OA
HETATM    5  N   UNL     1      29.418  47.444  38.935  1.00  0.00    -0.308 N 
HETATM    6  C   UNL     1      28.478  46.746  39.682  1.00  0.00     0.048 A 
HETATM    7  C   UNL     1      27.509  47.466  40.372  1.00  0.00     0.034 A 
HETATM    8  C   UNL     1      28.519  45.353  39.731  1.00  0.00     0.030 A 
HETATM    9  C   UNL     1      27.578  44.662  40.493  1.00  0.00     0.002 A 
HETATM   10  C   UNL     1      26.599  45.363  41.193  1.00  0.00     0.001 A 
HETATM   11  C   UNL     1      26.558  46.757  41.128  1.00  0.00     0.015 A 
HETATM   12  H   UNL     1      30.117  46.941  38.403  1.00  0.00     0.170 HD
ENDROOT
BRANCH   1  13
HETATM   13  C   UNL     1      26.313  49.307  39.150  1.00  0.00     0.279 C 
HETATM   14  N   UNL     1      25.175  49.939  39.614  1.00  0.00    -0.352 N 
HETATM   15  H   UNL     1      24.984  49.922  40.607  1.00  0.00     0.162 HD
HETATM   16  O   UNL     1      26.477  49.056  37.950  1.00  0.00    -0.268 OA
BRANCH  14  17
HETATM   17  C   UNL     1      24.047  50.093  38.725  1.00  0.00     0.161 C 
BRANCH  17  18
HETATM   18  C   UNL     1      22.730  49.985  39.443  1.00  0.00    -0.040 A 
HETATM   19  C   UNL     1      22.233  48.732  39.829  1.00  0.00     0.011 A 
HETATM   20  C   UNL     1      21.054  48.628  40.575  1.00  0.00     0.037 A 
HETATM   21  C   UNL     1      20.357  49.777  40.947  1.00  0.00     0.068 A 
HETATM   22  C   UNL     1      20.826  51.023  40.531  1.00  0.00     0.037 A 
HETATM   23  C   UNL     1      22.005  51.131  39.789  1.00  0.00     0.011 A 
BRANCH  21  24
HETATM   24  O   UNL     1      19.215  49.813  41.698  1.00  0.00    -0.356 OA
HETATM   25  C   UNL     1      18.706  51.103  42.015  1.00  0.00     0.210 C 
ENDBRANCH  21  24
ENDBRANCH  17  18
ENDBRANCH  14  17
ENDBRANCH   1  13
BRANCH   1  26
HETATM   26  O   UNL     1      27.114  49.505  41.476  1.00  0.00    -0.359 OA
HETATM   27  H   UNL     1      26.469  48.869  41.842  1.00  0.00     0.213 HD
ENDBRANCH   1  26
BRANCH   2  28
HETATM   28  C   UNL     1      29.133  50.866  40.172  1.00  0.00     0.120 A 
HETATM   29  C   UNL     1      28.714  51.998  39.461  1.00  0.00     0.146 A 
HETATM   30  F   UNL     1      27.984  51.879  38.344  1.00  0.00    -0.204 F 
HETATM   31  C   UNL     1      29.077  53.291  39.848  1.00  0.00     0.045 A 
HETATM   32  C   UNL     1      29.860  53.487  40.981  1.00  0.00     0.006 A 
HETATM   33  C   UNL     1      30.274  52.384  41.721  1.00  0.00     0.045 A 
HETATM   34  C   UNL     1      29.912  51.096  41.318  1.00  0.00     0.146 A 
HETATM   35  F   UNL     1      30.261  50.079  42.123  1.00  0.00    -0.204 F 
ENDBRANCH   2  28
TORSDOF 6
ENDMDL
