MODEL 1
REMARK VINA RESULT:      -8.8      0.000      0.000
REMARK  6 active torsions:
REMARK  status: ('A' for Active; 'I' for Inactive)
REMARK    1  A    between atoms: C_2  and  O_3 
REMARK    2  A    between atoms: O_3  and  C_4 
REMARK    3  A    between atoms: C_7  and  C_8 
REMARK    4  A    between atoms: C_8  and  N_9 
REMARK       I    between atoms: N_9  and  C_10 
REMARK    5  A    between atoms: C_10  and  C_11 
REMARK    6  A    between atoms: C_15  and  C_16 
ROOT
HETATM    1  N   UNL     1      26.568  43.911  52.153  1.00  0.00    -0.347 N 
HETATM    2  C   UNL     1      25.295  44.369  52.417  1.00  0.00     0.272 C 
HETATM    3  O   UNL     1      24.678  44.105  53.447  1.00  0.00    -0.266 OA
HETATM    4  H   UNL     1      26.929  44.133  51.231  1.00  0.00     0.163 HD
ENDROOT
BRANCH   2   5
HETATM    5  C   UNL     1      24.713  45.174  51.335  1.00  0.00     0.146 A 
HETATM    6  N   UNL     1      23.782  44.697  50.487  1.00  0.00    -0.169 NA
HETATM    7  N   UNL     1      23.485  45.754  49.710  1.00  0.00    -0.277 N 
HETATM    8  H   UNL     1      22.771  45.633  49.001  1.00  0.00     0.189 HD
HETATM    9  C   UNL     1      24.187  46.899  49.998  1.00  0.00     0.063 A 
HETATM   10  C   UNL     1      24.998  46.534  51.056  1.00  0.00     0.071 A 
BRANCH   9  11
HETATM   11  C   UNL     1      24.019  48.181  49.304  1.00  0.00    -0.008 A 
HETATM   12  C   UNL     1      22.730  48.685  49.059  1.00  0.00     0.014 A 
HETATM   13  C   UNL     1      22.542  49.901  48.396  1.00  0.00     0.001 A 
HETATM   14  C   UNL     1      23.641  50.635  47.963  1.00  0.00     0.000 A 
HETATM   15  C   UNL     1      24.926  50.155  48.198  1.00  0.00     0.001 A 
HETATM   16  C   UNL     1      25.114  48.937  48.864  1.00  0.00     0.014 A 
ENDBRANCH   9  11
ENDBRANCH   2   5
BRANCH   1  17
HETATM   17  C   UNL     1      27.177  42.874  52.955  1.00  0.00     0.114 C 
HETATM   18  C   UNL     1      27.642  41.712  52.070  1.00  0.00     0.037 C 
BRANCH  17  19
HETATM   19  C   UNL     1      28.300  43.423  53.812  1.00  0.00    -0.036 A 
HETATM   20  C   UNL     1      28.135  44.661  54.453  1.00  0.00     0.012 A 
HETATM   21  C   UNL     1      29.118  45.158  55.311  1.00  0.00     0.037 A 
HETATM   22  C   UNL     1      30.279  44.427  55.551  1.00  0.00     0.068 A 
HETATM   23  C   UNL     1      30.486  43.225  54.876  1.00  0.00     0.037 A 
HETATM   24  C   UNL     1      29.502  42.727  54.012  1.00  0.00     0.012 A 
BRANCH  22  25
HETATM   25  O   UNL     1      31.148  44.990  56.446  1.00  0.00    -0.352 OA
BRANCH  25  26
HETATM   26  C   UNL     1      31.100  44.459  57.770  1.00  0.00     0.171 C 
HETATM   27  C   UNL     1      30.296  45.420  58.629  1.00  0.00     0.034 C 
ENDBRANCH  25  26
ENDBRANCH  22  25
ENDBRANCH  17  19
ENDBRANCH   1  17
TORSDOF 6
ENDMDL
MODEL 2
REMARK VINA RESULT:      -8.8      2.280      8.870
REMARK  6 active torsions:
REMARK  status: ('A' for Active; 'I' for Inactive)
REMARK    1  A    between atoms: C_2  and  O_3 
REMARK    2  A    between atoms: O_3  and  C_4 
REMARK    3  A    between atoms: C_7  and  C_8 
REMARK    4  A    between atoms: C_8  and  N_9 
REMARK       I    between atoms: N_9  and  C_10 
REMARK    5  A    between atoms: C_10  and  C_11 
REMARK    6  A    between atoms: C_15  and  C_16 
ROOT
HETATM    1  N   UNL     1      26.757  44.489  51.385  1.00  0.00    -0.347 N 
HETATM    2  C   UNL     1      27.573  43.380  51.315  1.00  0.00     0.272 C 
HETATM    3  O   UNL     1      27.495  42.536  50.426  1.00  0.00    -0.266 OA
HETATM    4  H   UNL     1      26.870  45.062  52.215  1.00  0.00     0.163 HD
ENDROOT
BRANCH   2   5
HETATM    5  C   UNL     1      28.528  43.270  52.425  1.00  0.00     0.146 A 
HETATM    6  N   UNL     1      29.574  42.421  52.409  1.00  0.00    -0.169 NA
HETATM    7  N   UNL     1      30.213  42.678  53.565  1.00  0.00    -0.277 N 
HETATM    8  H   UNL     1      31.064  42.164  53.758  1.00  0.00     0.189 HD
HETATM    9  C   UNL     1      29.629  43.645  54.346  1.00  0.00     0.063 A 
HETATM   10  C   UNL     1      28.522  44.039  53.616  1.00  0.00     0.071 A 
BRANCH   9  11
HETATM   11  C   UNL     1      30.154  44.111  55.635  1.00  0.00    -0.008 A 
HETATM   12  C   UNL     1      31.099  43.338  56.330  1.00  0.00     0.014 A 
HETATM   13  C   UNL     1      31.611  43.756  57.561  1.00  0.00     0.001 A 
HETATM   14  C   UNL     1      31.187  44.957  58.120  1.00  0.00     0.000 A 
HETATM   15  C   UNL     1      30.254  45.739  57.447  1.00  0.00     0.001 A 
HETATM   16  C   UNL     1      29.741  45.320  56.212  1.00  0.00     0.014 A 
ENDBRANCH   9  11
ENDBRANCH   2   5
BRANCH   1  17
HETATM   17  C   UNL     1      25.576  44.609  50.561  1.00  0.00     0.114 C 
HETATM   18  C   UNL     1      24.338  44.112  51.317  1.00  0.00     0.037 C 
BRANCH  17  19
HETATM   19  C   UNL     1      25.400  46.024  50.046  1.00  0.00    -0.036 A 
HETATM   20  C   UNL     1      24.113  46.492  49.742  1.00  0.00     0.012 A 
HETATM   21  C   UNL     1      23.910  47.813  49.339  1.00  0.00     0.037 A 
HETATM   22  C   UNL     1      24.984  48.693  49.241  1.00  0.00     0.068 A 
HETATM   23  C   UNL     1      26.277  48.229  49.481  1.00  0.00     0.037 A 
HETATM   24  C   UNL     1      26.483  46.902  49.881  1.00  0.00     0.012 A 
BRANCH  22  25
HETATM   25  O   UNL     1      24.659  49.974  48.885  1.00  0.00    -0.352 OA
BRANCH  25  26
HETATM   26  C   UNL     1      23.398  50.132  48.234  1.00  0.00     0.171 C 
HETATM   27  C   UNL     1      22.521  50.998  49.122  1.00  0.00     0.034 C 
ENDBRANCH  25  26
ENDBRANCH  22  25
ENDBRANCH  17  19
ENDBRANCH   1  17
TORSDOF 6
ENDMDL
MODEL 3
REMARK VINA RESULT:      -8.5      3.459      9.994
REMARK  6 active torsions:
REMARK  status: ('A' for Active; 'I' for Inactive)
REMARK    1  A    between atoms: C_2  and  O_3 
REMARK    2  A    between atoms: O_3  and  C_4 
REMARK    3  A    between atoms: C_7  and  C_8 
REMARK    4  A    between atoms: C_8  and  N_9 
REMARK       I    between atoms: N_9  and  C_10 
REMARK    5  A    between atoms: C_10  and  C_11 
REMARK    6  A    between atoms: C_15  and  C_16 
ROOT
HETATM    1  N   UNL     1      23.001  47.345  49.646  1.00  0.00    -0.347 N 
HETATM    2  C   UNL     1      24.263  47.725  50.048  1.00  0.00     0.272 C 
HETATM    3  O   UNL     1      24.843  48.717  49.615  1.00  0.00    -0.266 OA
HETATM    4  H   UNL     1      22.671  46.460  50.019  1.00  0.00     0.163 HD
ENDROOT
BRANCH   2   5
HETATM    5  C   UNL     1      24.880  46.812  51.019  1.00  0.00     0.146 A 
HETATM    6  N   UNL     1      24.530  45.516  51.130  1.00  0.00    -0.169 NA
HETATM    7  N   UNL     1      25.363  45.039  52.073  1.00  0.00    -0.277 N 
HETATM    8  H   UNL     1      25.298  44.055  52.306  1.00  0.00     0.189 HD
HETATM    9  C   UNL     1      26.234  45.963  52.596  1.00  0.00     0.063 A 
HETATM   10  C   UNL     1      25.928  47.129  51.920  1.00  0.00     0.071 A 
BRANCH   9  11
HETATM   11  C   UNL     1      27.248  45.673  53.617  1.00  0.00    -0.008 A 
HETATM   12  C   UNL     1      27.898  44.427  53.628  1.00  0.00     0.014 A 
HETATM   13  C   UNL     1      28.864  44.124  54.593  1.00  0.00     0.001 A 
HETATM   14  C   UNL     1      29.198  45.063  55.563  1.00  0.00     0.000 A 
HETATM   15  C   UNL     1      28.568  46.303  55.567  1.00  0.00     0.001 A 
HETATM   16  C   UNL     1      27.601  46.608  54.600  1.00  0.00     0.014 A 
ENDBRANCH   9  11
ENDBRANCH   2   5
BRANCH   1  17
HETATM   17  C   UNL     1      22.365  47.942  48.493  1.00  0.00     0.114 C 
HETATM   18  C   UNL     1      21.914  46.860  47.506  1.00  0.00     0.037 C 
BRANCH  17  19
HETATM   19  C   UNL     1      21.225  48.856  48.900  1.00  0.00    -0.036 A 
HETATM   20  C   UNL     1      19.971  48.302  49.197  1.00  0.00     0.012 A 
HETATM   21  C   UNL     1      18.923  49.107  49.649  1.00  0.00     0.037 A 
HETATM   22  C   UNL     1      19.110  50.476  49.819  1.00  0.00     0.068 A 
HETATM   23  C   UNL     1      20.331  51.052  49.471  1.00  0.00     0.037 A 
HETATM   24  C   UNL     1      21.382  50.246  49.013  1.00  0.00     0.012 A 
BRANCH  22  25
HETATM   25  O   UNL     1      18.029  51.155  50.312  1.00  0.00    -0.352 OA
BRANCH  25  26
HETATM   26  C   UNL     1      17.789  52.437  49.731  1.00  0.00     0.171 C 
HETATM   27  C   UNL     1      16.325  52.781  49.948  1.00  0.00     0.034 C 
ENDBRANCH  25  26
ENDBRANCH  22  25
ENDBRANCH  17  19
ENDBRANCH   1  17
TORSDOF 6
ENDMDL
MODEL 4
REMARK VINA RESULT:      -8.4      3.094      8.933
REMARK  6 active torsions:
REMARK  status: ('A' for Active; 'I' for Inactive)
REMARK    1  A    between atoms: C_2  and  O_3 
REMARK    2  A    between atoms: O_3  and  C_4 
REMARK    3  A    between atoms: C_7  and  C_8 
REMARK    4  A    between atoms: C_8  and  N_9 
REMARK       I    between atoms: N_9  and  C_10 
REMARK    5  A    between atoms: C_10  and  C_11 
REMARK    6  A    between atoms: C_15  and  C_16 
ROOT
HETATM    1  N   UNL     1      26.172  46.097  52.161  1.00  0.00    -0.347 N 
HETATM    2  C   UNL     1      26.029  46.970  53.218  1.00  0.00     0.272 C 
HETATM    3  O   UNL     1      25.176  47.853  53.257  1.00  0.00    -0.266 OA
HETATM    4  H   UNL     1      26.969  45.470  52.217  1.00  0.00     0.163 HD
ENDROOT
BRANCH   2   5
HETATM    5  C   UNL     1      27.017  46.780  54.287  1.00  0.00     0.146 A 
HETATM    6  N   UNL     1      27.097  47.588  55.361  1.00  0.00    -0.169 NA
HETATM    7  N   UNL     1      28.073  47.036  56.106  1.00  0.00    -0.277 N 
HETATM    8  H   UNL     1      28.291  47.471  56.995  1.00  0.00     0.189 HD
HETATM    9  C   UNL     1      28.648  45.913  55.564  1.00  0.00     0.063 A 
HETATM   10  C   UNL     1      27.971  45.735  54.372  1.00  0.00     0.071 A 
BRANCH   9  11
HETATM   11  C   UNL     1      29.712  45.128  56.200  1.00  0.00    -0.008 A 
HETATM   12  C   UNL     1      30.266  44.023  55.532  1.00  0.00     0.014 A 
HETATM   13  C   UNL     1      31.277  43.255  56.118  1.00  0.00     0.001 A 
HETATM   14  C   UNL     1      31.753  43.580  57.383  1.00  0.00     0.000 A 
HETATM   15  C   UNL     1      31.220  44.672  58.061  1.00  0.00     0.001 A 
HETATM   16  C   UNL     1      30.208  45.442  57.473  1.00  0.00     0.014 A 
ENDBRANCH   9  11
ENDBRANCH   2   5
BRANCH   1  17
HETATM   17  C   UNL     1      25.495  46.318  50.903  1.00  0.00     0.114 C 
HETATM   18  C   UNL     1      26.494  46.740  49.820  1.00  0.00     0.037 C 
BRANCH  17  19
HETATM   19  C   UNL     1      24.683  45.106  50.490  1.00  0.00    -0.036 A 
HETATM   20  C   UNL     1      23.811  45.202  49.394  1.00  0.00     0.012 A 
HETATM   21  C   UNL     1      23.108  44.085  48.941  1.00  0.00     0.037 A 
HETATM   22  C   UNL     1      23.266  42.851  49.566  1.00  0.00     0.068 A 
HETATM   23  C   UNL     1      24.082  42.751  50.693  1.00  0.00     0.037 A 
HETATM   24  C   UNL     1      24.785  43.873  51.152  1.00  0.00     0.012 A 
BRANCH  22  25
HETATM   25  O   UNL     1      22.564  41.818  49.006  1.00  0.00    -0.352 OA
BRANCH  25  26
HETATM   26  C   UNL     1      22.675  41.695  47.588  1.00  0.00     0.171 C 
HETATM   27  C   UNL     1      23.502  40.456  47.291  1.00  0.00     0.034 C 
ENDBRANCH  25  26
ENDBRANCH  22  25
ENDBRANCH  17  19
ENDBRANCH   1  17
TORSDOF 6
ENDMDL
MODEL 5
REMARK VINA RESULT:      -8.3      2.475      8.821
REMARK  6 active torsions:
REMARK  status: ('A' for Active; 'I' for Inactive)
REMARK    1  A    between atoms: C_2  and  O_3 
REMARK    2  A    between atoms: O_3  and  C_4 
REMARK    3  A    between atoms: C_7  and  C_8 
REMARK    4  A    between atoms: C_8  and  N_9 
REMARK       I    between atoms: N_9  and  C_10 
REMARK    5  A    between atoms: C_10  and  C_11 
REMARK    6  A    between atoms: C_15  and  C_16 
ROOT
HETATM    1  N   UNL     1      25.370  44.168  50.682  1.00  0.00    -0.347 N 
HETATM    2  C   UNL     1      26.563  43.561  50.354  1.00  0.00     0.272 C 
HETATM    3  O   UNL     1      26.893  43.290  49.203  1.00  0.00    -0.266 OA
HETATM    4  H   UNL     1      25.185  44.259  51.676  1.00  0.00     0.163 HD
ENDROOT
BRANCH   2   5
HETATM    5  C   UNL     1      27.399  43.223  51.513  1.00  0.00     0.146 A 
HETATM    6  N   UNL     1      27.866  41.981  51.742  1.00  0.00    -0.169 NA
HETATM    7  N   UNL     1      28.620  42.120  52.848  1.00  0.00    -0.277 N 
HETATM    8  H   UNL     1      29.104  41.300  53.195  1.00  0.00     0.189 HD
HETATM    9  C   UNL     1      28.660  43.392  53.364  1.00  0.00     0.063 A 
HETATM   10  C   UNL     1      27.862  44.124  52.505  1.00  0.00     0.071 A 
BRANCH   9  11
HETATM   11  C   UNL     1      29.431  43.791  54.547  1.00  0.00    -0.008 A 
HETATM   12  C   UNL     1      29.144  45.003  55.197  1.00  0.00     0.014 A 
HETATM   13  C   UNL     1      29.867  45.409  56.323  1.00  0.00     0.001 A 
HETATM   14  C   UNL     1      30.891  44.610  56.818  1.00  0.00     0.000 A 
HETATM   15  C   UNL     1      31.190  43.405  56.190  1.00  0.00     0.001 A 
HETATM   16  C   UNL     1      30.464  42.997  55.064  1.00  0.00     0.014 A 
ENDBRANCH   9  11
ENDBRANCH   2   5
BRANCH   1  17
HETATM   17  C   UNL     1      24.302  44.301  49.717  1.00  0.00     0.114 C 
HETATM   18  C   UNL     1      23.100  43.440  50.122  1.00  0.00     0.037 C 
BRANCH  17  19
HETATM   19  C   UNL     1      23.920  45.754  49.510  1.00  0.00    -0.036 A 
HETATM   20  C   UNL     1      24.689  46.761  50.113  1.00  0.00     0.012 A 
HETATM   21  C   UNL     1      24.410  48.109  49.879  1.00  0.00     0.037 A 
HETATM   22  C   UNL     1      23.366  48.476  49.034  1.00  0.00     0.068 A 
HETATM   23  C   UNL     1      22.555  47.490  48.474  1.00  0.00     0.037 A 
HETATM   24  C   UNL     1      22.831  46.136  48.712  1.00  0.00     0.012 A 
BRANCH  22  25
HETATM   25  O   UNL     1      23.218  49.823  48.842  1.00  0.00    -0.352 OA
BRANCH  25  26
HETATM   26  C   UNL     1      22.158  50.438  49.575  1.00  0.00     0.171 C 
HETATM   27  C   UNL     1      21.146  50.968  48.574  1.00  0.00     0.034 C 
ENDBRANCH  25  26
ENDBRANCH  22  25
ENDBRANCH  17  19
ENDBRANCH   1  17
TORSDOF 6
ENDMDL
MODEL 6
REMARK VINA RESULT:      -8.2      2.635      9.438
REMARK  6 active torsions:
REMARK  status: ('A' for Active; 'I' for Inactive)
REMARK    1  A    between atoms: C_2  and  O_3 
REMARK    2  A    between atoms: O_3  and  C_4 
REMARK    3  A    between atoms: C_7  and  C_8 
REMARK    4  A    between atoms: C_8  and  N_9 
REMARK       I    between atoms: N_9  and  C_10 
REMARK    5  A    between atoms: C_10  and  C_11 
REMARK    6  A    between atoms: C_15  and  C_16 
ROOT
HETATM    1  N   UNL     1      26.167  46.793  51.338  1.00  0.00    -0.347 N 
HETATM    2  C   UNL     1      26.102  46.904  52.710  1.00  0.00     0.272 C 
HETATM    3  O   UNL     1      25.393  47.721  53.292  1.00  0.00    -0.266 OA
HETATM    4  H   UNL     1      26.854  46.135  50.985  1.00  0.00     0.163 HD
ENDROOT
BRANCH   2   5
HETATM    5  C   UNL     1      26.989  45.979  53.426  1.00  0.00     0.146 A 
HETATM    6  N   UNL     1      27.159  44.694  53.058  1.00  0.00    -0.169 NA
HETATM    7  N   UNL     1      28.080  44.232  53.924  1.00  0.00    -0.277 N 
HETATM    8  H   UNL     1      28.389  43.273  53.816  1.00  0.00     0.189 HD
HETATM    9  C   UNL     1      28.512  45.147  54.852  1.00  0.00     0.063 A 
HETATM   10  C   UNL     1      27.805  46.294  54.542  1.00  0.00     0.071 A 
BRANCH   9  11
HETATM   11  C   UNL     1      29.526  44.882  55.879  1.00  0.00    -0.008 A 
HETATM   12  C   UNL     1      30.419  43.808  55.726  1.00  0.00     0.014 A 
HETATM   13  C   UNL     1      31.390  43.531  56.693  1.00  0.00     0.001 A 
HETATM   14  C   UNL     1      31.486  44.324  57.831  1.00  0.00     0.000 A 
HETATM   15  C   UNL     1      30.612  45.394  58.001  1.00  0.00     0.001 A 
HETATM   16  C   UNL     1      29.640  45.673  57.031  1.00  0.00     0.014 A 
ENDBRANCH   9  11
ENDBRANCH   2   5
BRANCH   1  17
HETATM   17  C   UNL     1      25.602  47.804  50.472  1.00  0.00     0.114 C 
HETATM   18  C   UNL     1      26.648  48.303  49.470  1.00  0.00     0.037 C 
BRANCH  17  19
HETATM   19  C   UNL     1      24.345  47.305  49.785  1.00  0.00    -0.036 A 
HETATM   20  C   UNL     1      23.415  48.234  49.293  1.00  0.00     0.012 A 
HETATM   21  C   UNL     1      22.287  47.810  48.588  1.00  0.00     0.037 A 
HETATM   22  C   UNL     1      22.070  46.454  48.355  1.00  0.00     0.068 A 
HETATM   23  C   UNL     1      22.953  45.515  48.888  1.00  0.00     0.037 A 
HETATM   24  C   UNL     1      24.083  45.939  49.600  1.00  0.00     0.012 A 
BRANCH  22  25
HETATM   25  O   UNL     1      20.959  46.160  47.612  1.00  0.00    -0.352 OA
BRANCH  25  26
HETATM   26  C   UNL     1      20.389  44.871  47.839  1.00  0.00     0.171 C 
HETATM   27  C   UNL     1      20.393  44.121  46.517  1.00  0.00     0.034 C 
ENDBRANCH  25  26
ENDBRANCH  22  25
ENDBRANCH  17  19
ENDBRANCH   1  17
TORSDOF 6
ENDMDL
MODEL 7
REMARK VINA RESULT:      -8.1      3.668      6.088
REMARK  6 active torsions:
REMARK  status: ('A' for Active; 'I' for Inactive)
REMARK    1  A    between atoms: C_2  and  O_3 
REMARK    2  A    between atoms: O_3  and  C_4 
REMARK    3  A    between atoms: C_7  and  C_8 
REMARK    4  A    between atoms: C_8  and  N_9 
REMARK       I    between atoms: N_9  and  C_10 
REMARK    5  A    between atoms: C_10  and  C_11 
REMARK    6  A    between atoms: C_15  and  C_16 
ROOT
HETATM    1  N   UNL     1      24.692  48.631  49.266  1.00  0.00    -0.347 N 
HETATM    2  C   UNL     1      24.162  49.596  48.436  1.00  0.00     0.272 C 
HETATM    3  O   UNL     1      24.697  49.963  47.393  1.00  0.00    -0.266 OA
HETATM    4  H   UNL     1      24.193  48.482  50.137  1.00  0.00     0.163 HD
ENDROOT
BRANCH   2   5
HETATM    5  C   UNL     1      22.911  50.186  48.929  1.00  0.00     0.146 A 
HETATM    6  N   UNL     1      22.771  50.666  50.180  1.00  0.00    -0.169 NA
HETATM    7  N   UNL     1      21.518  51.158  50.196  1.00  0.00    -0.277 N 
HETATM    8  H   UNL     1      21.198  51.604  51.047  1.00  0.00     0.189 HD
HETATM    9  C   UNL     1      20.824  51.012  49.019  1.00  0.00     0.063 A 
HETATM   10  C   UNL     1      21.720  50.373  48.182  1.00  0.00     0.071 A 
BRANCH   9  11
HETATM   11  C   UNL     1      19.456  51.489  48.790  1.00  0.00    -0.008 A 
HETATM   12  C   UNL     1      18.690  51.971  49.865  1.00  0.00     0.014 A 
HETATM   13  C   UNL     1      17.382  52.427  49.674  1.00  0.00     0.001 A 
HETATM   14  C   UNL     1      16.816  52.408  48.404  1.00  0.00     0.000 A 
HETATM   15  C   UNL     1      17.559  51.937  47.325  1.00  0.00     0.001 A 
HETATM   16  C   UNL     1      18.870  51.482  47.516  1.00  0.00     0.014 A 
ENDBRANCH   9  11
ENDBRANCH   2   5
BRANCH   1  17
HETATM   17  C   UNL     1      26.048  48.159  49.102  1.00  0.00     0.114 C 
HETATM   18  C   UNL     1      27.044  49.313  49.258  1.00  0.00     0.037 C 
BRANCH  17  19
HETATM   19  C   UNL     1      26.353  47.011  50.045  1.00  0.00    -0.036 A 
HETATM   20  C   UNL     1      26.040  47.138  51.407  1.00  0.00     0.012 A 
HETATM   21  C   UNL     1      26.237  46.071  52.287  1.00  0.00     0.037 A 
HETATM   22  C   UNL     1      26.740  44.858  51.824  1.00  0.00     0.068 A 
HETATM   23  C   UNL     1      27.111  44.735  50.485  1.00  0.00     0.037 A 
HETATM   24  C   UNL     1      26.919  45.806  49.602  1.00  0.00     0.012 A 
BRANCH  22  25
HETATM   25  O   UNL     1      26.844  43.872  52.766  1.00  0.00    -0.352 OA
BRANCH  25  26
HETATM   26  C   UNL     1      26.940  44.318  54.119  1.00  0.00     0.171 C 
HETATM   27  C   UNL     1      28.391  44.188  54.550  1.00  0.00     0.034 C 
ENDBRANCH  25  26
ENDBRANCH  22  25
ENDBRANCH  17  19
ENDBRANCH   1  17
TORSDOF 6
ENDMDL
MODEL 8
REMARK VINA RESULT:      -8.1      2.757      9.453
REMARK  6 active torsions:
REMARK  status: ('A' for Active; 'I' for Inactive)
REMARK    1  A    between atoms: C_2  and  O_3 
REMARK    2  A    between atoms: O_3  and  C_4 
REMARK    3  A    between atoms: C_7  and  C_8 
REMARK    4  A    between atoms: C_8  and  N_9 
REMARK       I    between atoms: N_9  and  C_10 
REMARK    5  A    between atoms: C_10  and  C_11 
REMARK    6  A    between atoms: C_15  and  C_16 
ROOT
HETATM    1  N   UNL     1      23.583  45.393  50.046  1.00  0.00    -0.347 N 
HETATM    2  C   UNL     1      24.952  45.231  50.024  1.00  0.00     0.272 C 
HETATM    3  O   UNL     1      25.638  45.397  49.019  1.00  0.00    -0.266 OA
HETATM    4  H   UNL     1      23.128  45.143  50.918  1.00  0.00     0.163 HD
ENDROOT
BRANCH   2   5
HETATM    5  C   UNL     1      25.523  44.800  51.306  1.00  0.00     0.146 A 
HETATM    6  N   UNL     1      24.817  44.120  52.230  1.00  0.00    -0.169 NA
HETATM    7  N   UNL     1      25.714  43.875  53.202  1.00  0.00    -0.277 N 
HETATM    8  H   UNL     1      25.406  43.339  54.005  1.00  0.00     0.189 HD
HETATM    9  C   UNL     1      26.972  44.374  52.967  1.00  0.00     0.063 A 
HETATM   10  C   UNL     1      26.862  44.986  51.732  1.00  0.00     0.071 A 
BRANCH   9  11
HETATM   11  C   UNL     1      28.118  44.213  53.869  1.00  0.00    -0.008 A 
HETATM   12  C   UNL     1      28.434  45.224  54.793  1.00  0.00     0.014 A 
HETATM   13  C   UNL     1      29.524  45.098  55.659  1.00  0.00     0.001 A 
HETATM   14  C   UNL     1      30.318  43.957  55.618  1.00  0.00     0.000 A 
HETATM   15  C   UNL     1      30.020  42.943  54.713  1.00  0.00     0.001 A 
HETATM   16  C   UNL     1      28.928  43.068  53.846  1.00  0.00     0.014 A 
ENDBRANCH   9  11
ENDBRANCH   2   5
BRANCH   1  17
HETATM   17  C   UNL     1      22.819  45.521  48.825  1.00  0.00     0.114 C 
HETATM   18  C   UNL     1      21.727  44.447  48.759  1.00  0.00     0.037 C 
BRANCH  17  19
HETATM   19  C   UNL     1      22.256  46.919  48.667  1.00  0.00    -0.036 A 
HETATM   20  C   UNL     1      23.131  48.015  48.645  1.00  0.00     0.012 A 
HETATM   21  C   UNL     1      22.652  49.308  48.424  1.00  0.00     0.037 A 
HETATM   22  C   UNL     1      21.293  49.530  48.213  1.00  0.00     0.068 A 
HETATM   23  C   UNL     1      20.403  48.460  48.291  1.00  0.00     0.037 A 
HETATM   24  C   UNL     1      20.882  47.162  48.518  1.00  0.00     0.012 A 
BRANCH  22  25
HETATM   25  O   UNL     1      20.947  50.829  47.959  1.00  0.00    -0.352 OA
BRANCH  25  26
HETATM   26  C   UNL     1      20.240  51.495  49.005  1.00  0.00     0.171 C 
HETATM   27  C   UNL     1      19.172  52.365  48.366  1.00  0.00     0.034 C 
ENDBRANCH  25  26
ENDBRANCH  22  25
ENDBRANCH  17  19
ENDBRANCH   1  17
TORSDOF 6
ENDMDL
MODEL 9
REMARK VINA RESULT:      -7.9      1.778      2.150
REMARK  6 active torsions:
REMARK  status: ('A' for Active; 'I' for Inactive)
REMARK    1  A    between atoms: C_2  and  O_3 
REMARK    2  A    between atoms: O_3  and  C_4 
REMARK    3  A    between atoms: C_7  and  C_8 
REMARK    4  A    between atoms: C_8  and  N_9 
REMARK       I    between atoms: N_9  and  C_10 
REMARK    5  A    between atoms: C_10  and  C_11 
REMARK    6  A    between atoms: C_15  and  C_16 
ROOT
HETATM    1  N   UNL     1      25.732  44.480  51.257  1.00  0.00    -0.347 N 
HETATM    2  C   UNL     1      26.455  45.049  50.231  1.00  0.00     0.272 C 
HETATM    3  O   UNL     1      27.420  44.506  49.698  1.00  0.00    -0.266 OA
HETATM    4  H   UNL     1      25.013  45.070  51.664  1.00  0.00     0.163 HD
ENDROOT
BRANCH   2   5
HETATM    5  C   UNL     1      25.998  46.392  49.851  1.00  0.00     0.146 A 
HETATM    6  N   UNL     1      26.840  47.373  49.474  1.00  0.00    -0.169 NA
HETATM    7  N   UNL     1      26.023  48.395  49.160  1.00  0.00    -0.277 N 
HETATM    8  H   UNL     1      26.445  49.249  48.816  1.00  0.00     0.189 HD
HETATM    9  C   UNL     1      24.684  48.137  49.328  1.00  0.00     0.063 A 
HETATM   10  C   UNL     1      24.652  46.832  49.784  1.00  0.00     0.071 A 
BRANCH   9  11
HETATM   11  C   UNL     1      23.605  49.085  49.030  1.00  0.00    -0.008 A 
HETATM   12  C   UNL     1      22.264  48.680  49.135  1.00  0.00     0.014 A 
HETATM   13  C   UNL     1      21.217  49.563  48.852  1.00  0.00     0.001 A 
HETATM   14  C   UNL     1      21.494  50.868  48.460  1.00  0.00     0.000 A 
HETATM   15  C   UNL     1      22.815  51.290  48.353  1.00  0.00     0.001 A 
HETATM   16  C   UNL     1      23.864  50.406  48.637  1.00  0.00     0.014 A 
ENDBRANCH   9  11
ENDBRANCH   2   5
BRANCH   1  17
HETATM   17  C   UNL     1      26.211  43.310  51.958  1.00  0.00     0.114 C 
HETATM   18  C   UNL     1      26.670  42.237  50.965  1.00  0.00     0.037 C 
BRANCH  17  19
HETATM   19  C   UNL     1      27.295  43.666  52.957  1.00  0.00    -0.036 A 
HETATM   20  C   UNL     1      27.242  44.903  53.617  1.00  0.00     0.012 A 
HETATM   21  C   UNL     1      28.181  45.229  54.598  1.00  0.00     0.037 A 
HETATM   22  C   UNL     1      29.183  44.325  54.943  1.00  0.00     0.068 A 
HETATM   23  C   UNL     1      29.285  43.117  54.254  1.00  0.00     0.037 A 
HETATM   24  C   UNL     1      28.346  42.790  53.267  1.00  0.00     0.012 A 
BRANCH  22  25
HETATM   25  O   UNL     1      30.016  44.733  55.949  1.00  0.00    -0.352 OA
BRANCH  25  26
HETATM   26  C   UNL     1      31.319  44.151  55.946  1.00  0.00     0.171 C 
HETATM   27  C   UNL     1      31.516  43.439  57.273  1.00  0.00     0.034 C 
ENDBRANCH  25  26
ENDBRANCH  22  25
ENDBRANCH  17  19
ENDBRANCH   1  17
TORSDOF 6
ENDMDL
MODEL 10
REMARK VINA RESULT:      -7.8      1.568      2.319
REMARK  6 active torsions:
REMARK  status: ('A' for Active; 'I' for Inactive)
REMARK    1  A    between atoms: C_2  and  O_3 
REMARK    2  A    between atoms: O_3  and  C_4 
REMARK    3  A    between atoms: C_7  and  C_8 
REMARK    4  A    between atoms: C_8  and  N_9 
REMARK       I    between atoms: N_9  and  C_10 
REMARK    5  A    between atoms: C_10  and  C_11 
REMARK    6  A    between atoms: C_15  and  C_16 
ROOT
HETATM    1  N   UNL     1      25.761  43.548  50.210  1.00  0.00    -0.347 N 
HETATM    2  C   UNL     1      24.413  43.633  50.483  1.00  0.00     0.272 C 
HETATM    3  O   UNL     1      23.802  42.805  51.155  1.00  0.00    -0.266 OA
HETATM    4  H   UNL     1      26.123  44.251  49.574  1.00  0.00     0.163 HD
ENDROOT
BRANCH   2   5
HETATM    5  C   UNL     1      23.750  44.787  49.862  1.00  0.00     0.146 A 
HETATM    6  N   UNL     1      22.555  44.701  49.247  1.00  0.00    -0.169 NA
HETATM    7  N   UNL     1      22.290  45.969  48.882  1.00  0.00    -0.277 N 
HETATM    8  H   UNL     1      21.409  46.152  48.417  1.00  0.00     0.189 HD
HETATM    9  C   UNL     1      23.260  46.882  49.217  1.00  0.00     0.063 A 
HETATM   10  C   UNL     1      24.224  46.123  49.855  1.00  0.00     0.071 A 
BRANCH   9  11
HETATM   11  C   UNL     1      23.184  48.322  48.946  1.00  0.00    -0.008 A 
HETATM   12  C   UNL     1      21.955  48.994  49.054  1.00  0.00     0.014 A 
HETATM   13  C   UNL     1      21.854  50.364  48.796  1.00  0.00     0.001 A 
HETATM   14  C   UNL     1      22.982  51.088  48.425  1.00  0.00     0.000 A 
HETATM   15  C   UNL     1      24.210  50.442  48.315  1.00  0.00     0.001 A 
HETATM   16  C   UNL     1      24.311  49.069  48.575  1.00  0.00     0.014 A 
ENDBRANCH   9  11
ENDBRANCH   2   5
BRANCH   1  17
HETATM   17  C   UNL     1      26.510  42.341  50.479  1.00  0.00     0.114 C 
HETATM   18  C   UNL     1      27.157  41.811  49.196  1.00  0.00     0.037 C 
BRANCH  17  19
HETATM   19  C   UNL     1      27.525  42.554  51.586  1.00  0.00    -0.036 A 
HETATM   20  C   UNL     1      28.460  41.546  51.864  1.00  0.00     0.012 A 
HETATM   21  C   UNL     1      29.456  41.741  52.824  1.00  0.00     0.037 A 
HETATM   22  C   UNL     1      29.542  42.947  53.515  1.00  0.00     0.068 A 
HETATM   23  C   UNL     1      28.584  43.936  53.293  1.00  0.00     0.037 A 
HETATM   24  C   UNL     1      27.581  43.739  52.334  1.00  0.00     0.012 A 
BRANCH  22  25
HETATM   25  O   UNL     1      30.586  43.042  54.395  1.00  0.00    -0.352 OA
BRANCH  25  26
HETATM   26  C   UNL     1      30.366  43.889  55.523  1.00  0.00     0.171 C 
HETATM   27  C   UNL     1      31.368  43.503  56.597  1.00  0.00     0.034 C 
ENDBRANCH  25  26
ENDBRANCH  22  25
ENDBRANCH  17  19
ENDBRANCH   1  17
TORSDOF 6
ENDMDL
