MODEL 1
REMARK VINA RESULT:      -9.0      0.000      0.000
REMARK  3 active torsions:
REMARK  status: ('A' for Active; 'I' for Inactive)
REMARK    1  A    between atoms: C_6  and  N_7 
REMARK       I    between atoms: N_7  and  C_8 
REMARK    2  A    between atoms: C_8  and  C_9 
REMARK    3  A    between atoms: C_9  and  C_10 
ROOT
HETATM    1  C   UNL     1      26.580  42.556  51.194  1.00  0.00     0.286 C 
HETATM    2  N   UNL     1      25.777  43.359  52.230  1.00  0.00    -0.056 N 
HETATM    3  H   UNL     1      25.008  42.755  52.549  1.00  0.00     0.278 HD
HETATM    4  H   UNL     1      26.349  43.469  53.096  1.00  0.00     0.278 HD
HETATM    5  C   UNL     1      25.203  44.674  51.811  1.00  0.00     0.209 C 
HETATM    6  C   UNL     1      24.594  44.544  50.399  1.00  0.00     0.115 C 
HETATM    7  N   UNL     1      25.562  44.010  49.448  1.00  0.00    -0.353 N 
HETATM    8  C   UNL     1      26.476  43.036  49.741  1.00  0.00     0.249 C 
HETATM    9  O   UNL     1      27.172  42.561  48.850  1.00  0.00    -0.271 OA
HETATM   10  C   UNL     1      26.268  45.767  51.901  1.00  0.00     0.035 C 
HETATM   11  C   UNL     1      25.708  47.105  51.418  1.00  0.00     0.002 C 
HETATM   12  C   UNL     1      25.107  47.001  50.018  1.00  0.00     0.002 C 
HETATM   13  C   UNL     1      24.054  45.896  49.926  1.00  0.00     0.027 C 
HETATM   14  H   UNL     1      25.467  44.215  48.455  1.00  0.00     0.163 HD
ENDROOT
BRANCH   1  15
HETATM   15  C   UNL     1      28.050  42.426  51.614  1.00  0.00     0.146 C 
BRANCH  15  16
HETATM   16  C   UNL     1      28.095  42.743  53.086  1.00  0.00     0.224 C 
HETATM   17  N   UNL     1      28.890  43.814  53.398  1.00  0.00    -0.327 N 
HETATM   18  H   UNL     1      29.130  44.425  52.622  1.00  0.00     0.169 HD
HETATM   19  O   UNL     1      27.574  41.913  53.826  1.00  0.00    -0.273 OA
BRANCH  17  20
HETATM   20  C   UNL     1      29.463  44.237  54.627  1.00  0.00     0.040 A 
HETATM   21  C   UNL     1      29.144  45.363  55.407  1.00  0.00    -0.035 A 
HETATM   22  C   UNL     1      29.816  45.548  56.641  1.00  0.00     0.015 A 
HETATM   23  C   UNL     1      28.146  46.428  55.058  1.00  0.00     0.050 C 
HETATM   24  C   UNL     1      30.794  44.663  57.103  1.00  0.00    -0.061 A 
HETATM   25  C   UNL     1      31.471  44.881  58.423  1.00  0.00     0.048 C 
HETATM   26  C   UNL     1      31.103  43.554  56.328  1.00  0.00     0.009 A 
HETATM   27  C   UNL     1      30.453  43.352  55.109  1.00  0.00     0.030 A 
ENDBRANCH  17  20
ENDBRANCH  15  16
ENDBRANCH   1  15
TORSDOF 3
ENDMDL
MODEL 2
REMARK VINA RESULT:      -8.8      1.791      2.857
REMARK  3 active torsions:
REMARK  status: ('A' for Active; 'I' for Inactive)
REMARK    1  A    between atoms: C_6  and  N_7 
REMARK       I    between atoms: N_7  and  C_8 
REMARK    2  A    between atoms: C_8  and  C_9 
REMARK    3  A    between atoms: C_9  and  C_10 
ROOT
HETATM    1  C   UNL     1      26.120  43.820  51.297  1.00  0.00     0.286 C 
HETATM    2  N   UNL     1      24.879  42.921  51.423  1.00  0.00    -0.056 N 
HETATM    3  H   UNL     1      25.209  41.992  51.719  1.00  0.00     0.278 HD
HETATM    4  H   UNL     1      24.314  43.230  52.243  1.00  0.00     0.278 HD
HETATM    5  C   UNL     1      24.008  42.752  50.221  1.00  0.00     0.209 C 
HETATM    6  C   UNL     1      24.889  42.562  48.967  1.00  0.00     0.115 C 
HETATM    7  N   UNL     1      25.858  43.642  48.829  1.00  0.00    -0.353 N 
HETATM    8  C   UNL     1      26.513  44.231  49.874  1.00  0.00     0.249 C 
HETATM    9  O   UNL     1      27.401  45.050  49.657  1.00  0.00    -0.271 OA
HETATM   10  C   UNL     1      23.045  43.934  50.097  1.00  0.00     0.035 C 
HETATM   11  C   UNL     1      22.190  43.801  48.837  1.00  0.00     0.002 C 
HETATM   12  C   UNL     1      23.042  43.619  47.583  1.00  0.00     0.002 C 
HETATM   13  C   UNL     1      24.015  42.447  47.716  1.00  0.00     0.027 C 
HETATM   14  H   UNL     1      26.230  43.877  47.910  1.00  0.00     0.163 HD
ENDROOT
BRANCH   1  15
HETATM   15  C   UNL     1      26.001  45.054  52.201  1.00  0.00     0.146 C 
BRANCH  15  16
HETATM   16  C   UNL     1      26.618  44.670  53.521  1.00  0.00     0.224 C 
HETATM   17  N   UNL     1      27.949  44.973  53.619  1.00  0.00    -0.327 N 
HETATM   18  H   UNL     1      28.299  45.643  52.941  1.00  0.00     0.169 HD
HETATM   19  O   UNL     1      25.914  43.984  54.258  1.00  0.00    -0.273 OA
BRANCH  17  20
HETATM   20  C   UNL     1      28.958  44.511  54.505  1.00  0.00     0.040 A 
HETATM   21  C   UNL     1      29.746  43.348  54.416  1.00  0.00    -0.035 A 
HETATM   22  C   UNL     1      30.744  43.125  55.398  1.00  0.00     0.015 A 
HETATM   23  C   UNL     1      29.632  42.280  53.368  1.00  0.00     0.050 C 
HETATM   24  C   UNL     1      30.963  44.009  56.459  1.00  0.00    -0.061 A 
HETATM   25  C   UNL     1      32.041  43.750  57.468  1.00  0.00     0.048 C 
HETATM   26  C   UNL     1      30.183  45.154  56.539  1.00  0.00     0.009 A 
HETATM   27  C   UNL     1      29.195  45.393  55.583  1.00  0.00     0.030 A 
ENDBRANCH  17  20
ENDBRANCH  15  16
ENDBRANCH   1  15
TORSDOF 3
ENDMDL
MODEL 3
REMARK VINA RESULT:      -8.7      1.908      3.068
REMARK  3 active torsions:
REMARK  status: ('A' for Active; 'I' for Inactive)
REMARK    1  A    between atoms: C_6  and  N_7 
REMARK       I    between atoms: N_7  and  C_8 
REMARK    2  A    between atoms: C_8  and  C_9 
REMARK    3  A    between atoms: C_9  and  C_10 
ROOT
HETATM    1  C   UNL     1      26.316  43.488  51.300  1.00  0.00     0.286 C 
HETATM    2  N   UNL     1      25.492  42.192  51.383  1.00  0.00    -0.056 N 
HETATM    3  H   UNL     1      26.086  41.487  51.839  1.00  0.00     0.278 HD
HETATM    4  H   UNL     1      24.723  42.320  52.075  1.00  0.00     0.278 HD
HETATM    5  C   UNL     1      24.963  41.612  50.112  1.00  0.00     0.209 C 
HETATM    6  C   UNL     1      26.051  41.684  49.019  1.00  0.00     0.115 C 
HETATM    7  N   UNL     1      26.561  43.041  48.864  1.00  0.00    -0.353 N 
HETATM    8  C   UNL     1      26.766  43.913  49.897  1.00  0.00     0.249 C 
HETATM    9  O   UNL     1      27.311  44.992  49.690  1.00  0.00    -0.271 OA
HETATM   10  C   UNL     1      23.668  42.320  49.708  1.00  0.00     0.035 C 
HETATM   11  C   UNL     1      23.149  41.775  48.378  1.00  0.00     0.002 C 
HETATM   12  C   UNL     1      24.208  41.844  47.279  1.00  0.00     0.002 C 
HETATM   13  C   UNL     1      25.507  41.151  47.692  1.00  0.00     0.027 C 
HETATM   14  H   UNL     1      26.971  43.332  47.978  1.00  0.00     0.163 HD
ENDROOT
BRANCH   1  15
HETATM   15  C   UNL     1      25.599  44.644  52.009  1.00  0.00     0.146 C 
BRANCH  15  16
HETATM   16  C   UNL     1      26.300  44.827  53.330  1.00  0.00     0.224 C 
HETATM   17  N   UNL     1      27.666  44.823  53.238  1.00  0.00    -0.327 N 
HETATM   18  H   UNL     1      28.045  44.973  52.306  1.00  0.00     0.169 HD
HETATM   19  O   UNL     1      25.582  44.775  54.325  1.00  0.00    -0.273 OA
BRANCH  17  20
HETATM   20  C   UNL     1      28.677  44.637  54.218  1.00  0.00     0.040 A 
HETATM   21  C   UNL     1      28.980  45.437  55.334  1.00  0.00    -0.035 A 
HETATM   22  C   UNL     1      30.005  45.013  56.217  1.00  0.00     0.015 A 
HETATM   23  C   UNL     1      28.323  46.737  55.698  1.00  0.00     0.050 C 
HETATM   24  C   UNL     1      30.736  43.840  56.010  1.00  0.00    -0.061 A 
HETATM   25  C   UNL     1      31.800  43.413  56.974  1.00  0.00     0.048 C 
HETATM   26  C   UNL     1      30.430  43.055  54.906  1.00  0.00     0.009 A 
HETATM   27  C   UNL     1      29.424  43.454  54.025  1.00  0.00     0.030 A 
ENDBRANCH  17  20
ENDBRANCH  15  16
ENDBRANCH   1  15
TORSDOF 3
ENDMDL
MODEL 4
REMARK VINA RESULT:      -8.5      1.729      2.355
REMARK  3 active torsions:
REMARK  status: ('A' for Active; 'I' for Inactive)
REMARK    1  A    between atoms: C_6  and  N_7 
REMARK       I    between atoms: N_7  and  C_8 
REMARK    2  A    between atoms: C_8  and  C_9 
REMARK    3  A    between atoms: C_9  and  C_10 
ROOT
HETATM    1  C   UNL     1      24.695  44.959  51.235  1.00  0.00     0.286 C 
HETATM    2  N   UNL     1      25.007  46.281  51.954  1.00  0.00    -0.056 N 
HETATM    3  H   UNL     1      24.234  46.456  52.610  1.00  0.00     0.278 HD
HETATM    4  H   UNL     1      25.818  46.140  52.595  1.00  0.00     0.278 HD
HETATM    5  C   UNL     1      25.205  47.506  51.120  1.00  0.00     0.209 C 
HETATM    6  C   UNL     1      24.140  47.547  50.003  1.00  0.00     0.115 C 
HETATM    7  N   UNL     1      24.137  46.315  49.224  1.00  0.00    -0.353 N 
HETATM    8  C   UNL     1      24.330  45.068  49.750  1.00  0.00     0.249 C 
HETATM    9  O   UNL     1      24.191  44.076  49.042  1.00  0.00    -0.271 OA
HETATM   10  C   UNL     1      26.635  47.550  50.580  1.00  0.00     0.035 C 
HETATM   11  C   UNL     1      26.832  48.767  49.677  1.00  0.00     0.002 C 
HETATM   12  C   UNL     1      25.792  48.825  48.559  1.00  0.00     0.002 C 
HETATM   13  C   UNL     1      24.364  48.763  49.101  1.00  0.00     0.027 C 
HETATM   14  H   UNL     1      23.798  46.321  48.264  1.00  0.00     0.163 HD
ENDROOT
BRANCH   1  15
HETATM   15  C   UNL     1      25.825  43.940  51.438  1.00  0.00     0.146 C 
BRANCH  15  16
HETATM   16  C   UNL     1      26.385  44.203  52.812  1.00  0.00     0.224 C 
HETATM   17  N   UNL     1      27.737  44.419  52.827  1.00  0.00    -0.327 N 
HETATM   18  H   UNL     1      28.156  44.648  51.930  1.00  0.00     0.169 HD
HETATM   19  O   UNL     1      25.611  44.015  53.747  1.00  0.00    -0.273 OA
BRANCH  17  20
HETATM   20  C   UNL     1      28.687  44.374  53.881  1.00  0.00     0.040 A 
HETATM   21  C   UNL     1      28.890  45.295  54.926  1.00  0.00    -0.035 A 
HETATM   22  C   UNL     1      29.869  45.005  55.909  1.00  0.00     0.015 A 
HETATM   23  C   UNL     1      28.167  46.597  55.111  1.00  0.00     0.050 C 
HETATM   24  C   UNL     1      30.651  43.847  55.870  1.00  0.00    -0.061 A 
HETATM   25  C   UNL     1      31.664  43.564  56.937  1.00  0.00     0.048 C 
HETATM   26  C   UNL     1      30.444  42.943  54.836  1.00  0.00     0.009 A 
HETATM   27  C   UNL     1      29.485  43.209  53.858  1.00  0.00     0.030 A 
ENDBRANCH  17  20
ENDBRANCH  15  16
ENDBRANCH   1  15
TORSDOF 3
ENDMDL
MODEL 5
REMARK VINA RESULT:      -8.3      6.811     10.023
REMARK  3 active torsions:
REMARK  status: ('A' for Active; 'I' for Inactive)
REMARK    1  A    between atoms: C_6  and  N_7 
REMARK       I    between atoms: N_7  and  C_8 
REMARK    2  A    between atoms: C_8  and  C_9 
REMARK    3  A    between atoms: C_9  and  C_10 
ROOT
HETATM    1  C   UNL     1      19.828  49.467  49.362  1.00  0.00     0.286 C 
HETATM    2  N   UNL     1      19.693  50.265  48.055  1.00  0.00    -0.056 N 
HETATM    3  H   UNL     1      20.486  50.920  48.020  1.00  0.00     0.278 HD
HETATM    4  H   UNL     1      19.888  49.635  47.247  1.00  0.00     0.278 HD
HETATM    5  C   UNL     1      18.433  51.036  47.826  1.00  0.00     0.209 C 
HETATM    6  C   UNL     1      18.022  51.750  49.132  1.00  0.00     0.115 C 
HETATM    7  N   UNL     1      17.931  50.814  50.246  1.00  0.00    -0.353 N 
HETATM    8  C   UNL     1      18.782  49.762  50.443  1.00  0.00     0.249 C 
HETATM    9  O   UNL     1      18.706  49.097  51.471  1.00  0.00    -0.271 OA
HETATM   10  C   UNL     1      17.341  50.112  47.285  1.00  0.00     0.035 C 
HETATM   11  C   UNL     1      16.031  50.877  47.105  1.00  0.00     0.002 C 
HETATM   12  C   UNL     1      15.600  51.586  48.387  1.00  0.00     0.002 C 
HETATM   13  C   UNL     1      16.700  52.496  48.936  1.00  0.00     0.027 C 
HETATM   14  H   UNL     1      17.328  51.025  51.039  1.00  0.00     0.163 HD
ENDROOT
BRANCH   1  15
HETATM   15  C   UNL     1      19.903  47.960  49.082  1.00  0.00     0.146 C 
BRANCH  15  16
HETATM   16  C   UNL     1      21.327  47.677  48.682  1.00  0.00     0.224 C 
HETATM   17  N   UNL     1      22.259  48.307  49.464  1.00  0.00    -0.327 N 
HETATM   18  H   UNL     1      21.920  48.654  50.357  1.00  0.00     0.169 HD
HETATM   19  O   UNL     1      21.473  47.079  47.619  1.00  0.00    -0.273 OA
BRANCH  17  20
HETATM   20  C   UNL     1      23.636  48.581  49.254  1.00  0.00     0.040 A 
HETATM   21  C   UNL     1      24.227  49.636  48.536  1.00  0.00    -0.035 A 
HETATM   22  C   UNL     1      25.640  49.739  48.517  1.00  0.00     0.015 A 
HETATM   23  C   UNL     1      23.500  50.691  47.754  1.00  0.00     0.050 C 
HETATM   24  C   UNL     1      26.468  48.823  49.171  1.00  0.00    -0.061 A 
HETATM   25  C   UNL     1      27.959  48.974  49.144  1.00  0.00     0.048 C 
HETATM   26  C   UNL     1      25.878  47.784  49.878  1.00  0.00     0.009 A 
HETATM   27  C   UNL     1      24.488  47.664  49.910  1.00  0.00     0.030 A 
ENDBRANCH  17  20
ENDBRANCH  15  16
ENDBRANCH   1  15
TORSDOF 3
ENDMDL
MODEL 6
REMARK VINA RESULT:      -8.2      2.249      3.464
REMARK  3 active torsions:
REMARK  status: ('A' for Active; 'I' for Inactive)
REMARK    1  A    between atoms: C_6  and  N_7 
REMARK       I    between atoms: N_7  and  C_8 
REMARK    2  A    between atoms: C_8  and  C_9 
REMARK    3  A    between atoms: C_9  and  C_10 
ROOT
HETATM    1  C   UNL     1      24.892  45.335  50.044  1.00  0.00     0.286 C 
HETATM    2  N   UNL     1      25.585  46.510  50.752  1.00  0.00    -0.056 N 
HETATM    3  H   UNL     1      25.306  46.471  51.742  1.00  0.00     0.278 HD
HETATM    4  H   UNL     1      26.610  46.323  50.801  1.00  0.00     0.278 HD
HETATM    5  C   UNL     1      25.328  47.891  50.242  1.00  0.00     0.209 C 
HETATM    6  C   UNL     1      23.826  48.051  49.922  1.00  0.00     0.115 C 
HETATM    7  N   UNL     1      23.360  47.007  49.017  1.00  0.00    -0.353 N 
HETATM    8  C   UNL     1      23.774  45.705  49.062  1.00  0.00     0.249 C 
HETATM    9  O   UNL     1      23.240  44.867  48.341  1.00  0.00    -0.271 OA
HETATM   10  C   UNL     1      26.226  48.185  49.040  1.00  0.00     0.035 C 
HETATM   11  C   UNL     1      25.929  49.572  48.473  1.00  0.00     0.002 C 
HETATM   12  C   UNL     1      24.449  49.751  48.142  1.00  0.00     0.002 C 
HETATM   13  C   UNL     1      23.552  49.440  49.340  1.00  0.00     0.027 C 
HETATM   14  H   UNL     1      22.549  47.173  48.424  1.00  0.00     0.163 HD
ENDROOT
BRANCH   1  15
HETATM   15  C   UNL     1      25.918  44.414  49.370  1.00  0.00     0.146 C 
BRANCH  15  16
HETATM   16  C   UNL     1      27.187  44.541  50.171  1.00  0.00     0.224 C 
HETATM   17  N   UNL     1      27.213  43.760  51.296  1.00  0.00    -0.327 N 
HETATM   18  H   UNL     1      26.532  43.006  51.323  1.00  0.00     0.169 HD
HETATM   19  O   UNL     1      27.946  45.442  49.826  1.00  0.00    -0.273 OA
BRANCH  17  20
HETATM   20  C   UNL     1      28.023  43.811  52.461  1.00  0.00     0.040 A 
HETATM   21  C   UNL     1      27.797  44.504  53.663  1.00  0.00    -0.035 A 
HETATM   22  C   UNL     1      28.727  44.353  54.722  1.00  0.00     0.015 A 
HETATM   23  C   UNL     1      26.646  45.424  53.952  1.00  0.00     0.050 C 
HETATM   24  C   UNL     1      29.869  43.555  54.609  1.00  0.00    -0.061 A 
HETATM   25  C   UNL     1      30.822  43.404  55.756  1.00  0.00     0.048 C 
HETATM   26  C   UNL     1      30.085  42.873  53.419  1.00  0.00     0.009 A 
HETATM   27  C   UNL     1      29.181  43.007  52.364  1.00  0.00     0.030 A 
ENDBRANCH  17  20
ENDBRANCH  15  16
ENDBRANCH   1  15
TORSDOF 3
ENDMDL
MODEL 7
REMARK VINA RESULT:      -8.2      2.486      4.177
REMARK  3 active torsions:
REMARK  status: ('A' for Active; 'I' for Inactive)
REMARK    1  A    between atoms: C_6  and  N_7 
REMARK       I    between atoms: N_7  and  C_8 
REMARK    2  A    between atoms: C_8  and  C_9 
REMARK    3  A    between atoms: C_9  and  C_10 
ROOT
HETATM    1  C   UNL     1      26.974  41.674  51.440  1.00  0.00     0.286 C 
HETATM    2  N   UNL     1      25.962  41.315  50.339  1.00  0.00    -0.056 N 
HETATM    3  H   UNL     1      25.118  40.961  50.811  1.00  0.00     0.278 HD
HETATM    4  H   UNL     1      25.617  42.192  49.892  1.00  0.00     0.278 HD
HETATM    5  C   UNL     1      26.373  40.323  49.300  1.00  0.00     0.209 C 
HETATM    6  C   UNL     1      27.125  39.154  49.972  1.00  0.00     0.115 C 
HETATM    7  N   UNL     1      28.237  39.632  50.785  1.00  0.00    -0.353 N 
HETATM    8  C   UNL     1      28.208  40.770  51.541  1.00  0.00     0.249 C 
HETATM    9  O   UNL     1      29.145  41.033  52.288  1.00  0.00    -0.271 OA
HETATM   10  C   UNL     1      27.198  41.012  48.212  1.00  0.00     0.035 C 
HETATM   11  C   UNL     1      27.675  39.996  47.175  1.00  0.00     0.002 C 
HETATM   12  C   UNL     1      28.428  38.832  47.817  1.00  0.00     0.002 C 
HETATM   13  C   UNL     1      27.609  38.157  48.917  1.00  0.00     0.027 C 
HETATM   14  H   UNL     1      29.031  39.021  50.969  1.00  0.00     0.163 HD
ENDROOT
BRANCH   1  15
HETATM   15  C   UNL     1      27.392  43.147  51.346  1.00  0.00     0.146 C 
BRANCH  15  16
HETATM   16  C   UNL     1      27.512  43.641  52.764  1.00  0.00     0.224 C 
HETATM   17  N   UNL     1      28.759  44.108  53.085  1.00  0.00    -0.327 N 
HETATM   18  H   UNL     1      29.363  44.324  52.297  1.00  0.00     0.169 HD
HETATM   19  O   UNL     1      26.553  43.401  53.494  1.00  0.00    -0.273 OA
BRANCH  17  20
HETATM   20  C   UNL     1      29.383  44.344  54.338  1.00  0.00     0.040 A 
HETATM   21  C   UNL     1      29.179  45.405  55.239  1.00  0.00    -0.035 A 
HETATM   22  C   UNL     1      29.881  45.397  56.470  1.00  0.00     0.015 A 
HETATM   23  C   UNL     1      28.280  46.588  55.026  1.00  0.00     0.050 C 
HETATM   24  C   UNL     1      30.779  44.383  56.815  1.00  0.00    -0.061 A 
HETATM   25  C   UNL     1      31.490  44.398  58.135  1.00  0.00     0.048 C 
HETATM   26  C   UNL     1      30.975  43.339  55.921  1.00  0.00     0.009 A 
HETATM   27  C   UNL     1      30.293  43.328  54.703  1.00  0.00     0.030 A 
ENDBRANCH  17  20
ENDBRANCH  15  16
ENDBRANCH   1  15
TORSDOF 3
ENDMDL
MODEL 8
REMARK VINA RESULT:      -8.0      2.044      3.579
REMARK  3 active torsions:
REMARK  status: ('A' for Active; 'I' for Inactive)
REMARK    1  A    between atoms: C_6  and  N_7 
REMARK       I    between atoms: N_7  and  C_8 
REMARK    2  A    between atoms: C_8  and  C_9 
REMARK    3  A    between atoms: C_9  and  C_10 
ROOT
HETATM    1  C   UNL     1      25.028  44.043  50.552  1.00  0.00     0.286 C 
HETATM    2  N   UNL     1      26.467  43.842  50.050  1.00  0.00    -0.056 N 
HETATM    3  H   UNL     1      26.612  44.508  49.279  1.00  0.00     0.278 HD
HETATM    4  H   UNL     1      27.134  44.188  50.774  1.00  0.00     0.278 HD
HETATM    5  C   UNL     1      26.864  42.480  49.580  1.00  0.00     0.209 C 
HETATM    6  C   UNL     1      25.730  41.880  48.722  1.00  0.00     0.115 C 
HETATM    7  N   UNL     1      24.458  41.894  49.434  1.00  0.00    -0.353 N 
HETATM    8  C   UNL     1      24.045  42.904  50.257  1.00  0.00     0.249 C 
HETATM    9  O   UNL     1      22.909  42.891  50.721  1.00  0.00    -0.271 OA
HETATM   10  C   UNL     1      27.238  41.599  50.772  1.00  0.00     0.035 C 
HETATM   11  C   UNL     1      27.589  40.186  50.308  1.00  0.00     0.002 C 
HETATM   12  C   UNL     1      26.477  39.568  49.462  1.00  0.00     0.002 C 
HETATM   13  C   UNL     1      26.093  40.460  48.281  1.00  0.00     0.027 C 
HETATM   14  H   UNL     1      23.732  41.221  49.193  1.00  0.00     0.163 HD
ENDROOT
BRANCH   1  15
HETATM   15  C   UNL     1      25.009  44.397  52.045  1.00  0.00     0.146 C 
BRANCH  15  16
HETATM   16  C   UNL     1      26.422  44.777  52.405  1.00  0.00     0.224 C 
HETATM   17  N   UNL     1      26.997  43.954  53.335  1.00  0.00    -0.327 N 
HETATM   18  H   UNL     1      26.541  43.056  53.470  1.00  0.00     0.169 HD
HETATM   19  O   UNL     1      26.810  45.858  51.969  1.00  0.00    -0.273 OA
BRANCH  17  20
HETATM   20  C   UNL     1      28.132  44.123  54.171  1.00  0.00     0.040 A 
HETATM   21  C   UNL     1      28.436  45.187  55.041  1.00  0.00    -0.035 A 
HETATM   22  C   UNL     1      29.611  45.107  55.830  1.00  0.00     0.015 A 
HETATM   23  C   UNL     1      27.632  46.441  55.221  1.00  0.00     0.050 C 
HETATM   24  C   UNL     1      30.486  44.019  55.764  1.00  0.00    -0.061 A 
HETATM   25  C   UNL     1      31.710  43.959  56.627  1.00  0.00     0.048 C 
HETATM   26  C   UNL     1      30.179  42.973  54.904  1.00  0.00     0.009 A 
HETATM   27  C   UNL     1      29.027  43.032  54.118  1.00  0.00     0.030 A 
ENDBRANCH  17  20
ENDBRANCH  15  16
ENDBRANCH   1  15
TORSDOF 3
ENDMDL
MODEL 9
REMARK VINA RESULT:      -7.9      3.672      5.306
REMARK  3 active torsions:
REMARK  status: ('A' for Active; 'I' for Inactive)
REMARK    1  A    between atoms: C_6  and  N_7 
REMARK       I    between atoms: N_7  and  C_8 
REMARK    2  A    between atoms: C_8  and  C_9 
REMARK    3  A    between atoms: C_9  and  C_10 
ROOT
HETATM    1  C   UNL     1      28.326  40.427  50.261  1.00  0.00     0.286 C 
HETATM    2  N   UNL     1      28.673  38.967  50.598  1.00  0.00    -0.056 N 
HETATM    3  H   UNL     1      29.673  38.944  50.836  1.00  0.00     0.278 HD
HETATM    4  H   UNL     1      28.221  38.708  51.502  1.00  0.00     0.278 HD
HETATM    5  C   UNL     1      28.408  37.923  49.562  1.00  0.00     0.209 C 
HETATM    6  C   UNL     1      28.847  38.448  48.178  1.00  0.00     0.115 C 
HETATM    7  N   UNL     1      28.226  39.731  47.873  1.00  0.00    -0.353 N 
HETATM    8  C   UNL     1      28.010  40.722  48.790  1.00  0.00     0.249 C 
HETATM    9  O   UNL     1      27.592  41.816  48.423  1.00  0.00    -0.271 OA
HETATM   10  C   UNL     1      26.938  37.503  49.600  1.00  0.00     0.035 C 
HETATM   11  C   UNL     1      26.644  36.479  48.505  1.00  0.00     0.002 C 
HETATM   12  C   UNL     1      27.063  36.980  47.124  1.00  0.00     0.002 C 
HETATM   13  C   UNL     1      28.528  37.416  47.093  1.00  0.00     0.027 C 
HETATM   14  H   UNL     1      28.097  40.016  46.904  1.00  0.00     0.163 HD
ENDROOT
BRANCH   1  15
HETATM   15  C   UNL     1      27.205  40.952  51.168  1.00  0.00     0.146 C 
BRANCH  15  16
HETATM   16  C   UNL     1      27.868  41.378  52.451  1.00  0.00     0.224 C 
HETATM   17  N   UNL     1      27.525  42.639  52.860  1.00  0.00    -0.327 N 
HETATM   18  H   UNL     1      26.689  43.028  52.433  1.00  0.00     0.169 HD
HETATM   19  O   UNL     1      28.753  40.634  52.866  1.00  0.00    -0.273 OA
BRANCH  17  20
HETATM   20  C   UNL     1      28.134  43.530  53.783  1.00  0.00     0.040 A 
HETATM   21  C   UNL     1      27.637  44.740  54.301  1.00  0.00    -0.035 A 
HETATM   22  C   UNL     1      28.407  45.433  55.268  1.00  0.00     0.015 A 
HETATM   23  C   UNL     1      26.345  45.401  53.921  1.00  0.00     0.050 C 
HETATM   24  C   UNL     1      29.648  44.969  55.714  1.00  0.00    -0.061 A 
HETATM   25  C   UNL     1      30.426  45.720  56.752  1.00  0.00     0.048 C 
HETATM   26  C   UNL     1      30.131  43.774  55.198  1.00  0.00     0.009 A 
HETATM   27  C   UNL     1      29.389  43.075  54.245  1.00  0.00     0.030 A 
ENDBRANCH  17  20
ENDBRANCH  15  16
ENDBRANCH   1  15
TORSDOF 3
ENDMDL
MODEL 10
REMARK VINA RESULT:      -7.9      4.748      7.139
REMARK  3 active torsions:
REMARK  status: ('A' for Active; 'I' for Inactive)
REMARK    1  A    between atoms: C_6  and  N_7 
REMARK       I    between atoms: N_7  and  C_8 
REMARK    2  A    between atoms: C_8  and  C_9 
REMARK    3  A    between atoms: C_9  and  C_10 
ROOT
HETATM    1  C   UNL     1      22.705  48.818  49.222  1.00  0.00     0.286 C 
HETATM    2  N   UNL     1      22.031  49.858  50.132  1.00  0.00    -0.056 N 
HETATM    3  H   UNL     1      21.934  49.426  51.061  1.00  0.00     0.278 HD
HETATM    4  H   UNL     1      22.699  50.637  50.316  1.00  0.00     0.278 HD
HETATM    5  C   UNL     1      20.698  50.395  49.721  1.00  0.00     0.209 C 
HETATM    6  C   UNL     1      19.816  49.242  49.197  1.00  0.00     0.115 C 
HETATM    7  N   UNL     1      20.487  48.495  48.140  1.00  0.00    -0.353 N 
HETATM    8  C   UNL     1      21.824  48.212  48.123  1.00  0.00     0.249 C 
HETATM    9  O   UNL     1      22.283  47.475  47.256  1.00  0.00    -0.271 OA
HETATM   10  C   UNL     1      20.876  51.519  48.699  1.00  0.00     0.035 C 
HETATM   11  C   UNL     1      19.518  52.036  48.226  1.00  0.00     0.002 C 
HETATM   12  C   UNL     1      18.630  50.911  47.697  1.00  0.00     0.002 C 
HETATM   13  C   UNL     1      18.468  49.781  48.714  1.00  0.00     0.027 C 
HETATM   14  H   UNL     1      19.938  47.985  47.451  1.00  0.00     0.163 HD
ENDROOT
BRANCH   1  15
HETATM   15  C   UNL     1      24.006  49.370  48.625  1.00  0.00     0.146 C 
BRANCH  15  16
HETATM   16  C   UNL     1      25.120  48.536  49.202  1.00  0.00     0.224 C 
HETATM   17  N   UNL     1      24.690  47.526  50.020  1.00  0.00    -0.327 N 
HETATM   18  H   UNL     1      23.708  47.279  49.934  1.00  0.00     0.169 HD
HETATM   19  O   UNL     1      26.256  48.966  49.020  1.00  0.00    -0.273 OA
BRANCH  17  20
HETATM   20  C   UNL     1      25.369  46.745  50.992  1.00  0.00     0.040 A 
HETATM   21  C   UNL     1      26.051  45.526  50.826  1.00  0.00    -0.035 A 
HETATM   22  C   UNL     1      26.713  44.958  51.943  1.00  0.00     0.015 A 
HETATM   23  C   UNL     1      26.148  44.732  49.556  1.00  0.00     0.050 C 
HETATM   24  C   UNL     1      26.699  45.556  53.206  1.00  0.00    -0.061 A 
HETATM   25  C   UNL     1      27.426  44.936  54.361  1.00  0.00     0.048 C 
HETATM   26  C   UNL     1      26.024  46.759  53.363  1.00  0.00     0.009 A 
HETATM   27  C   UNL     1      25.366  47.336  52.275  1.00  0.00     0.030 A 
ENDBRANCH  17  20
ENDBRANCH  15  16
ENDBRANCH   1  15
TORSDOF 3
ENDMDL
