MODEL 1
REMARK VINA RESULT:      -8.3      0.000      0.000
REMARK  8 active torsions:
REMARK  status: ('A' for Active; 'I' for Inactive)
REMARK    1  A    between atoms: C_2  and  O_3 
REMARK    2  A    between atoms: O_3  and  C_4 
REMARK    3  A    between atoms: C_4  and  C_5 
REMARK    4  A    between atoms: C_6  and  C_8 
REMARK    5  A    between atoms: C_6  and  O_7 
REMARK    6  A    between atoms: C_16  and  C_17 
REMARK    7  A    between atoms: C_18  and  C_19 
REMARK    8  A    between atoms: N_26  and  C_27 
ROOT
HETATM    1  C   UNL     1      18.841  49.224  48.257  1.00  0.00     0.177 C 
HETATM    2  C   UNL     1      18.536  50.446  49.136  1.00  0.00     0.250 C 
HETATM    3  N   UNL     1      17.970  49.953  50.386  1.00  0.00    -0.303 N 
HETATM    4  C   UNL     1      18.655  49.041  51.122  1.00  0.00     0.319 C 
HETATM    5  O   UNL     1      18.457  48.906  52.320  1.00  0.00    -0.247 OA
HETATM    6  N   UNL     1      19.579  48.315  50.454  1.00  0.00    -0.333 N 
HETATM    7  C   UNL     1      19.665  48.172  49.010  1.00  0.00     0.142 C 
HETATM    8  H   UNL     1      17.468  50.613  50.969  1.00  0.00     0.167 HD
HETATM    9  H   UNL     1      20.068  47.646  51.038  1.00  0.00     0.165 HD
ENDROOT
BRANCH   7  10
HETATM   10  C   UNL     1      21.119  47.994  48.670  1.00  0.00     0.015 A 
HETATM   11  C   UNL     1      21.697  47.065  47.741  1.00  0.00     0.097 A 
HETATM   12  N   UNL     1      23.026  47.214  47.670  1.00  0.00    -0.167 NA
HETATM   13  N   UNL     1      23.339  48.207  48.526  1.00  0.00    -0.244 N 
HETATM   14  C   UNL     1      22.212  48.693  49.149  1.00  0.00     0.130 A 
BRANCH  11  15
HETATM   15  C   UNL     1      21.049  46.051  46.905  1.00  0.00    -0.005 A 
HETATM   16  C   UNL     1      21.197  46.109  45.510  1.00  0.00     0.014 A 
HETATM   17  C   UNL     1      20.604  45.148  44.688  1.00  0.00     0.001 A 
HETATM   18  C   UNL     1      19.855  44.117  45.252  1.00  0.00     0.000 A 
HETATM   19  C   UNL     1      19.712  44.040  46.636  1.00  0.00     0.001 A 
HETATM   20  C   UNL     1      20.313  44.996  47.460  1.00  0.00     0.014 A 
ENDBRANCH  11  15
BRANCH  13  21
HETATM   21  C   UNL     1      24.687  48.635  48.691  1.00  0.00     0.058 A 
HETATM   22  C   UNL     1      25.549  47.891  49.511  1.00  0.00     0.031 A 
HETATM   23  C   UNL     1      26.877  48.289  49.684  1.00  0.00     0.002 A 
HETATM   24  C   UNL     1      27.352  49.430  49.044  1.00  0.00     0.000 A 
HETATM   25  C   UNL     1      26.502  50.178  48.230  1.00  0.00     0.002 A 
HETATM   26  C   UNL     1      25.172  49.784  48.050  1.00  0.00     0.031 A 
ENDBRANCH  13  21
ENDBRANCH   7  10
BRANCH   1  27
HETATM   27  C   UNL     1      19.311  49.453  46.838  1.00  0.00     0.270 C 
HETATM   28  O   UNL     1      20.165  50.282  46.549  1.00  0.00    -0.265 OA
BRANCH  27  29
HETATM   29  O   UNL     1      18.780  48.572  45.959  1.00  0.00    -0.321 OA
BRANCH  29  30
HETATM   30  C   UNL     1      17.390  48.257  46.129  1.00  0.00     0.174 C 
HETATM   31  C   UNL     1      17.173  46.757  46.053  1.00  0.00     0.034 C 
ENDBRANCH  29  30
ENDBRANCH  27  29
ENDBRANCH   1  27
BRANCH   2  32
HETATM   32  C   UNL     1      19.749  51.417  49.404  1.00  0.00     0.439 C 
HETATM   33  F   UNL     1      20.958  50.838  49.254  1.00  0.00    -0.166 F 
HETATM   34  F   UNL     1      19.704  52.477  48.554  1.00  0.00    -0.166 F 
HETATM   35  F   UNL     1      19.723  51.943  50.651  1.00  0.00    -0.166 F 
ENDBRANCH   2  32
BRANCH   2  36
HETATM   36  O   UNL     1      17.422  51.154  48.576  1.00  0.00    -0.363 OA
HETATM   37  H   UNL     1      16.758  50.477  48.359  1.00  0.00     0.213 HD
ENDBRANCH   2  36
TORSDOF 8
ENDMDL
MODEL 2
REMARK VINA RESULT:      -7.5      3.673      7.286
REMARK  8 active torsions:
REMARK  status: ('A' for Active; 'I' for Inactive)
REMARK    1  A    between atoms: C_2  and  O_3 
REMARK    2  A    between atoms: O_3  and  C_4 
REMARK    3  A    between atoms: C_4  and  C_5 
REMARK    4  A    between atoms: C_6  and  C_8 
REMARK    5  A    between atoms: C_6  and  O_7 
REMARK    6  A    between atoms: C_16  and  C_17 
REMARK    7  A    between atoms: C_18  and  C_19 
REMARK    8  A    between atoms: N_26  and  C_27 
ROOT
HETATM    1  C   UNL     1      18.867  48.695  48.098  1.00  0.00     0.177 C 
HETATM    2  C   UNL     1      19.536  48.527  49.471  1.00  0.00     0.250 C 
HETATM    3  N   UNL     1      20.910  48.999  49.346  1.00  0.00    -0.303 N 
HETATM    4  C   UNL     1      21.152  50.254  48.889  1.00  0.00     0.319 C 
HETATM    5  O   UNL     1      22.194  50.839  49.145  1.00  0.00    -0.247 OA
HETATM    6  N   UNL     1      20.163  50.820  48.161  1.00  0.00    -0.333 N 
HETATM    7  C   UNL     1      19.053  50.113  47.544  1.00  0.00     0.142 C 
HETATM    8  H   UNL     1      21.571  48.721  50.063  1.00  0.00     0.167 HD
HETATM    9  H   UNL     1      20.382  51.756  47.838  1.00  0.00     0.165 HD
ENDROOT
BRANCH   7  10
HETATM   10  C   UNL     1      17.882  51.057  47.531  1.00  0.00     0.015 A 
HETATM   11  C   UNL     1      17.272  51.685  46.394  1.00  0.00     0.097 A 
HETATM   12  N   UNL     1      16.226  52.438  46.759  1.00  0.00    -0.167 NA
HETATM   13  N   UNL     1      16.134  52.328  48.099  1.00  0.00    -0.244 N 
HETATM   14  C   UNL     1      17.123  51.508  48.595  1.00  0.00     0.130 A 
BRANCH  11  15
HETATM   15  C   UNL     1      17.622  51.595  44.974  1.00  0.00    -0.005 A 
HETATM   16  C   UNL     1      17.113  52.546  44.075  1.00  0.00     0.014 A 
HETATM   17  C   UNL     1      17.442  52.495  42.719  1.00  0.00     0.001 A 
HETATM   18  C   UNL     1      18.284  51.492  42.245  1.00  0.00     0.000 A 
HETATM   19  C   UNL     1      18.808  50.549  43.128  1.00  0.00     0.001 A 
HETATM   20  C   UNL     1      18.487  50.605  44.488  1.00  0.00     0.014 A 
ENDBRANCH  11  15
BRANCH  13  21
HETATM   21  C   UNL     1      15.109  53.002  48.821  1.00  0.00     0.058 A 
HETATM   22  C   UNL     1      14.329  53.969  48.167  1.00  0.00     0.031 A 
HETATM   23  C   UNL     1      13.315  54.640  48.854  1.00  0.00     0.002 A 
HETATM   24  C   UNL     1      13.072  54.354  50.195  1.00  0.00     0.000 A 
HETATM   25  C   UNL     1      13.844  53.398  50.854  1.00  0.00     0.002 A 
HETATM   26  C   UNL     1      14.860  52.720  50.172  1.00  0.00     0.031 A 
ENDBRANCH  13  21
ENDBRANCH   7  10
BRANCH   1  27
HETATM   27  C   UNL     1      17.470  48.151  47.903  1.00  0.00     0.270 C 
HETATM   28  O   UNL     1      16.790  47.725  48.828  1.00  0.00    -0.265 OA
BRANCH  27  29
HETATM   29  O   UNL     1      17.019  48.300  46.636  1.00  0.00    -0.321 OA
BRANCH  29  30
HETATM   30  C   UNL     1      15.658  47.914  46.392  1.00  0.00     0.174 C 
HETATM   31  C   UNL     1      14.748  49.128  46.429  1.00  0.00     0.034 C 
ENDBRANCH  29  30
ENDBRANCH  27  29
ENDBRANCH   1  27
BRANCH   2  32
HETATM   32  C   UNL     1      18.802  49.221  50.680  1.00  0.00     0.439 C 
HETATM   33  F   UNL     1      17.701  49.916  50.327  1.00  0.00    -0.166 F 
HETATM   34  F   UNL     1      18.414  48.294  51.595  1.00  0.00    -0.166 F 
HETATM   35  F   UNL     1      19.606  50.082  51.347  1.00  0.00    -0.166 F 
ENDBRANCH   2  32
BRANCH   2  36
HETATM   36  O   UNL     1      19.735  47.128  49.721  1.00  0.00    -0.363 OA
HETATM   37  H   UNL     1      19.098  46.663  49.153  1.00  0.00     0.213 HD
ENDBRANCH   2  36
TORSDOF 8
ENDMDL
MODEL 3
REMARK VINA RESULT:      -7.5      6.901     10.133
REMARK  8 active torsions:
REMARK  status: ('A' for Active; 'I' for Inactive)
REMARK    1  A    between atoms: C_2  and  O_3 
REMARK    2  A    between atoms: O_3  and  C_4 
REMARK    3  A    between atoms: C_4  and  C_5 
REMARK    4  A    between atoms: C_6  and  C_8 
REMARK    5  A    between atoms: C_6  and  O_7 
REMARK    6  A    between atoms: C_16  and  C_17 
REMARK    7  A    between atoms: C_18  and  C_19 
REMARK    8  A    between atoms: N_26  and  C_27 
ROOT
HETATM    1  C   UNL     1      25.783  45.761  51.743  1.00  0.00     0.177 C 
HETATM    2  C   UNL     1      25.044  46.219  50.476  1.00  0.00     0.250 C 
HETATM    3  N   UNL     1      25.883  47.216  49.820  1.00  0.00    -0.303 N 
HETATM    4  C   UNL     1      27.165  46.909  49.496  1.00  0.00     0.319 C 
HETATM    5  O   UNL     1      27.763  47.507  48.614  1.00  0.00    -0.247 OA
HETATM    6  N   UNL     1      27.723  45.891  50.188  1.00  0.00    -0.333 N 
HETATM    7  C   UNL     1      27.228  45.344  51.440  1.00  0.00     0.142 C 
HETATM    8  H   UNL     1      25.449  47.816  49.127  1.00  0.00     0.167 HD
HETATM    9  H   UNL     1      28.680  45.693  49.917  1.00  0.00     0.165 HD
ENDROOT
BRANCH   7  10
HETATM   10  C   UNL     1      27.590  43.884  51.458  1.00  0.00     0.015 A 
HETATM   11  C   UNL     1      28.358  43.181  52.446  1.00  0.00     0.097 A 
HETATM   12  N   UNL     1      28.453  41.879  52.151  1.00  0.00    -0.167 NA
HETATM   13  N   UNL     1      27.775  41.705  50.999  1.00  0.00    -0.244 N 
HETATM   14  C   UNL     1      27.251  42.897  50.552  1.00  0.00     0.130 A 
BRANCH  11  15
HETATM   15  C   UNL     1      28.996  43.682  53.667  1.00  0.00    -0.005 A 
HETATM   16  C   UNL     1      30.065  42.968  54.231  1.00  0.00     0.014 A 
HETATM   17  C   UNL     1      30.702  43.428  55.385  1.00  0.00     0.001 A 
HETATM   18  C   UNL     1      30.278  44.609  55.989  1.00  0.00     0.000 A 
HETATM   19  C   UNL     1      29.227  45.336  55.433  1.00  0.00     0.001 A 
HETATM   20  C   UNL     1      28.595  44.881  54.272  1.00  0.00     0.014 A 
ENDBRANCH  11  15
BRANCH  13  21
HETATM   21  C   UNL     1      27.665  40.418  50.400  1.00  0.00     0.058 A 
HETATM   22  C   UNL     1      28.762  39.543  50.444  1.00  0.00     0.031 A 
HETATM   23  C   UNL     1      28.675  38.274  49.867  1.00  0.00     0.002 A 
HETATM   24  C   UNL     1      27.498  37.869  49.244  1.00  0.00     0.000 A 
HETATM   25  C   UNL     1      26.404  38.733  49.194  1.00  0.00     0.002 A 
HETATM   26  C   UNL     1      26.483  40.005  49.770  1.00  0.00     0.031 A 
ENDBRANCH  13  21
ENDBRANCH   7  10
BRANCH   1  27
HETATM   27  C   UNL     1      25.073  44.826  52.695  1.00  0.00     0.270 C 
HETATM   28  O   UNL     1      24.385  43.888  52.312  1.00  0.00    -0.265 OA
BRANCH  27  29
HETATM   29  O   UNL     1      25.378  45.063  53.991  1.00  0.00    -0.321 OA
BRANCH  29  30
HETATM   30  C   UNL     1      24.820  44.157  54.956  1.00  0.00     0.174 C 
HETATM   31  C   UNL     1      25.853  43.126  55.374  1.00  0.00     0.034 C 
ENDBRANCH  29  30
ENDBRANCH  27  29
ENDBRANCH   1  27
BRANCH   2  32
HETATM   32  C   UNL     1      24.628  45.076  49.474  1.00  0.00     0.439 C 
HETATM   33  F   UNL     1      24.231  43.937  50.077  1.00  0.00    -0.166 F 
HETATM   34  F   UNL     1      23.602  45.490  48.684  1.00  0.00    -0.166 F 
HETATM   35  F   UNL     1      25.631  44.739  48.630  1.00  0.00    -0.166 F 
ENDBRANCH   2  32
BRANCH   2  36
HETATM   36  O   UNL     1      23.910  47.008  50.861  1.00  0.00    -0.363 OA
HETATM   37  H   UNL     1      23.623  46.660  51.722  1.00  0.00     0.213 HD
ENDBRANCH   2  36
TORSDOF 8
ENDMDL
MODEL 4
REMARK VINA RESULT:      -7.4      3.914      7.567
REMARK  8 active torsions:
REMARK  status: ('A' for Active; 'I' for Inactive)
REMARK    1  A    between atoms: C_2  and  O_3 
REMARK    2  A    between atoms: O_3  and  C_4 
REMARK    3  A    between atoms: C_4  and  C_5 
REMARK    4  A    between atoms: C_6  and  C_8 
REMARK    5  A    between atoms: C_6  and  O_7 
REMARK    6  A    between atoms: C_16  and  C_17 
REMARK    7  A    between atoms: C_18  and  C_19 
REMARK    8  A    between atoms: N_26  and  C_27 
ROOT
HETATM    1  C   UNL     1      18.776  50.016  49.255  1.00  0.00     0.177 C 
HETATM    2  C   UNL     1      19.517  48.697  48.986  1.00  0.00     0.250 C 
HETATM    3  N   UNL     1      18.621  47.610  49.367  1.00  0.00    -0.303 N 
HETATM    4  C   UNL     1      17.380  47.538  48.822  1.00  0.00     0.319 C 
HETATM    5  O   UNL     1      16.765  46.483  48.769  1.00  0.00    -0.247 OA
HETATM    6  N   UNL     1      16.884  48.693  48.324  1.00  0.00    -0.333 N 
HETATM    7  C   UNL     1      17.381  50.026  48.618  1.00  0.00     0.142 C 
HETATM    8  H   UNL     1      19.028  46.692  49.510  1.00  0.00     0.167 HD
HETATM    9  H   UNL     1      15.956  48.597  47.927  1.00  0.00     0.165 HD
ENDROOT
BRANCH   7  10
HETATM   10  C   UNL     1      17.138  50.867  47.395  1.00  0.00     0.015 A 
HETATM   11  C   UNL     1      16.273  52.005  47.268  1.00  0.00     0.097 A 
HETATM   12  N   UNL     1      16.333  52.526  46.036  1.00  0.00    -0.167 NA
HETATM   13  N   UNL     1      17.208  51.764  45.349  1.00  0.00    -0.244 N 
HETATM   14  C   UNL     1      17.704  50.751  46.139  1.00  0.00     0.130 A 
BRANCH  11  15
HETATM   15  C   UNL     1      15.399  52.633  48.264  1.00  0.00    -0.005 A 
HETATM   16  C   UNL     1      14.525  53.657  47.868  1.00  0.00     0.014 A 
HETATM   17  C   UNL     1      13.670  54.264  48.791  1.00  0.00     0.001 A 
HETATM   18  C   UNL     1      13.681  53.853  50.122  1.00  0.00     0.000 A 
HETATM   19  C   UNL     1      14.534  52.828  50.527  1.00  0.00     0.001 A 
HETATM   20  C   UNL     1      15.383  52.214  49.601  1.00  0.00     0.014 A 
ENDBRANCH  11  15
BRANCH  13  21
HETATM   21  C   UNL     1      17.520  52.051  43.990  1.00  0.00     0.058 A 
HETATM   22  C   UNL     1      18.220  51.101  43.230  1.00  0.00     0.031 A 
HETATM   23  C   UNL     1      18.534  51.359  41.894  1.00  0.00     0.002 A 
HETATM   24  C   UNL     1      18.154  52.564  41.308  1.00  0.00     0.000 A 
HETATM   25  C   UNL     1      17.460  53.514  42.055  1.00  0.00     0.002 A 
HETATM   26  C   UNL     1      17.141  53.262  43.394  1.00  0.00     0.031 A 
ENDBRANCH  13  21
ENDBRANCH   7  10
BRANCH   1  27
HETATM   27  C   UNL     1      19.528  51.315  49.079  1.00  0.00     0.270 C 
HETATM   28  O   UNL     1      18.982  52.356  48.735  1.00  0.00    -0.265 OA
BRANCH  27  29
HETATM   29  O   UNL     1      20.825  51.228  49.456  1.00  0.00    -0.321 OA
BRANCH  29  30
HETATM   30  C   UNL     1      21.805  51.526  48.449  1.00  0.00     0.174 C 
HETATM   31  C   UNL     1      23.095  50.776  48.727  1.00  0.00     0.034 C 
ENDBRANCH  29  30
ENDBRANCH  27  29
ENDBRANCH   1  27
BRANCH   2  32
HETATM   32  C   UNL     1      20.057  48.502  47.518  1.00  0.00     0.439 C 
HETATM   33  F   UNL     1      20.139  49.645  46.808  1.00  0.00    -0.166 F 
HETATM   34  F   UNL     1      21.302  47.955  47.541  1.00  0.00    -0.166 F 
HETATM   35  F   UNL     1      19.294  47.650  46.796  1.00  0.00    -0.166 F 
ENDBRANCH   2  32
BRANCH   2  36
HETATM   36  O   UNL     1      20.570  48.551  49.949  1.00  0.00    -0.363 OA
HETATM   37  H   UNL     1      21.325  48.179  49.463  1.00  0.00     0.213 HD
ENDBRANCH   2  36
TORSDOF 8
ENDMDL
MODEL 5
REMARK VINA RESULT:      -7.3      3.086      5.540
REMARK  8 active torsions:
REMARK  status: ('A' for Active; 'I' for Inactive)
REMARK    1  A    between atoms: C_2  and  O_3 
REMARK    2  A    between atoms: O_3  and  C_4 
REMARK    3  A    between atoms: C_4  and  C_5 
REMARK    4  A    between atoms: C_6  and  C_8 
REMARK    5  A    between atoms: C_6  and  O_7 
REMARK    6  A    between atoms: C_16  and  C_17 
REMARK    7  A    between atoms: C_18  and  C_19 
REMARK    8  A    between atoms: N_26  and  C_27 
ROOT
HETATM    1  C   UNL     1      18.878  48.633  49.214  1.00  0.00     0.177 C 
HETATM    2  C   UNL     1      19.029  49.790  50.214  1.00  0.00     0.250 C 
HETATM    3  N   UNL     1      20.453  49.942  50.492  1.00  0.00    -0.303 N 
HETATM    4  C   UNL     1      21.322  50.128  49.467  1.00  0.00     0.319 C 
HETATM    5  O   UNL     1      22.410  50.659  49.638  1.00  0.00    -0.247 OA
HETATM    6  N   UNL     1      20.901  49.717  48.250  1.00  0.00    -0.333 N 
HETATM    7  C   UNL     1      19.795  48.808  47.998  1.00  0.00     0.142 C 
HETATM    8  H   UNL     1      20.718  50.467  51.317  1.00  0.00     0.167 HD
HETATM    9  H   UNL     1      21.579  49.874  47.512  1.00  0.00     0.165 HD
ENDROOT
BRANCH   7  10
HETATM   10  C   UNL     1      19.196  49.199  46.675  1.00  0.00     0.015 A 
HETATM   11  C   UNL     1      18.665  48.334  45.660  1.00  0.00     0.097 A 
HETATM   12  N   UNL     1      18.183  49.037  44.627  1.00  0.00    -0.167 NA
HETATM   13  N   UNL     1      18.384  50.335  44.930  1.00  0.00    -0.244 N 
HETATM   14  C   UNL     1      19.000  50.465  46.154  1.00  0.00     0.130 A 
BRANCH  11  15
HETATM   15  C   UNL     1      18.579  46.871  45.628  1.00  0.00    -0.005 A 
HETATM   16  C   UNL     1      17.319  46.255  45.570  1.00  0.00     0.014 A 
HETATM   17  C   UNL     1      17.206  44.864  45.523  1.00  0.00     0.001 A 
HETATM   18  C   UNL     1      18.353  44.073  45.533  1.00  0.00     0.000 A 
HETATM   19  C   UNL     1      19.610  44.671  45.575  1.00  0.00     0.001 A 
HETATM   20  C   UNL     1      19.725  46.064  45.613  1.00  0.00     0.014 A 
ENDBRANCH  11  15
BRANCH  13  21
HETATM   21  C   UNL     1      17.973  51.367  44.039  1.00  0.00     0.058 A 
HETATM   22  C   UNL     1      17.218  52.442  44.535  1.00  0.00     0.031 A 
HETATM   23  C   UNL     1      16.808  53.469  43.681  1.00  0.00     0.002 A 
HETATM   24  C   UNL     1      17.144  53.430  42.331  1.00  0.00     0.000 A 
HETATM   25  C   UNL     1      17.891  52.365  41.829  1.00  0.00     0.002 A 
HETATM   26  C   UNL     1      18.307  51.334  42.678  1.00  0.00     0.031 A 
ENDBRANCH  13  21
ENDBRANCH   7  10
BRANCH   1  27
HETATM   27  C   UNL     1      17.486  48.164  48.856  1.00  0.00     0.270 C 
HETATM   28  O   UNL     1      17.128  46.999  48.975  1.00  0.00    -0.265 OA
BRANCH  27  29
HETATM   29  O   UNL     1      16.661  49.180  48.513  1.00  0.00    -0.321 OA
BRANCH  29  30
HETATM   30  C   UNL     1      15.531  48.839  47.694  1.00  0.00     0.174 C 
HETATM   31  C   UNL     1      15.278  49.922  46.662  1.00  0.00     0.034 C 
ENDBRANCH  29  30
ENDBRANCH  27  29
ENDBRANCH   1  27
BRANCH   2  32
HETATM   32  C   UNL     1      18.384  51.161  49.778  1.00  0.00     0.439 C 
HETATM   33  F   UNL     1      18.319  51.335  48.442  1.00  0.00    -0.166 F 
HETATM   34  F   UNL     1      17.116  51.261  50.257  1.00  0.00    -0.166 F 
HETATM   35  F   UNL     1      19.051  52.227  50.276  1.00  0.00    -0.166 F 
ENDBRANCH   2  32
BRANCH   2  36
HETATM   36  O   UNL     1      18.531  49.367  51.491  1.00  0.00    -0.363 OA
HETATM   37  H   UNL     1      19.301  49.351  52.085  1.00  0.00     0.213 HD
ENDBRANCH   2  36
TORSDOF 8
ENDMDL
MODEL 6
REMARK VINA RESULT:      -7.0      3.095      5.577
REMARK  8 active torsions:
REMARK  status: ('A' for Active; 'I' for Inactive)
REMARK    1  A    between atoms: C_2  and  O_3 
REMARK    2  A    between atoms: O_3  and  C_4 
REMARK    3  A    between atoms: C_4  and  C_5 
REMARK    4  A    between atoms: C_6  and  C_8 
REMARK    5  A    between atoms: C_6  and  O_7 
REMARK    6  A    between atoms: C_16  and  C_17 
REMARK    7  A    between atoms: C_18  and  C_19 
REMARK    8  A    between atoms: N_26  and  C_27 
ROOT
HETATM    1  C   UNL     1      19.022  48.825  48.917  1.00  0.00     0.177 C 
HETATM    2  C   UNL     1      20.116  49.681  49.572  1.00  0.00     0.250 C 
HETATM    3  N   UNL     1      21.328  48.872  49.624  1.00  0.00    -0.303 N 
HETATM    4  C   UNL     1      21.821  48.322  48.485  1.00  0.00     0.319 C 
HETATM    5  O   UNL     1      22.997  48.006  48.384  1.00  0.00    -0.247 OA
HETATM    6  N   UNL     1      20.940  48.174  47.471  1.00  0.00    -0.333 N 
HETATM    7  C   UNL     1      19.492  48.216  47.590  1.00  0.00     0.142 C 
HETATM    8  H   UNL     1      22.066  49.168  50.254  1.00  0.00     0.167 HD
HETATM    9  H   UNL     1      21.346  47.760  46.638  1.00  0.00     0.165 HD
ENDROOT
BRANCH   7  10
HETATM   10  C   UNL     1      18.958  48.767  46.297  1.00  0.00     0.015 A 
HETATM   11  C   UNL     1      18.424  48.036  45.183  1.00  0.00     0.097 A 
HETATM   12  N   UNL     1      18.012  48.862  44.213  1.00  0.00    -0.167 NA
HETATM   13  N   UNL     1      18.262  50.111  44.653  1.00  0.00    -0.244 N 
HETATM   14  C   UNL     1      18.840  50.087  45.902  1.00  0.00     0.130 A 
BRANCH  11  15
HETATM   15  C   UNL     1      18.272  46.590  44.999  1.00  0.00    -0.005 A 
HETATM   16  C   UNL     1      19.130  45.912  44.118  1.00  0.00     0.014 A 
HETATM   17  C   UNL     1      19.019  44.533  43.932  1.00  0.00     0.001 A 
HETATM   18  C   UNL     1      18.049  43.814  44.627  1.00  0.00     0.000 A 
HETATM   19  C   UNL     1      17.200  44.471  45.515  1.00  0.00     0.001 A 
HETATM   20  C   UNL     1      17.316  45.851  45.708  1.00  0.00     0.014 A 
ENDBRANCH  11  15
BRANCH  13  21
HETATM   21  C   UNL     1      17.930  51.247  43.861  1.00  0.00     0.058 A 
HETATM   22  C   UNL     1      17.211  52.304  44.442  1.00  0.00     0.031 A 
HETATM   23  C   UNL     1      16.879  53.430  43.685  1.00  0.00     0.002 A 
HETATM   24  C   UNL     1      17.258  53.509  42.348  1.00  0.00     0.000 A 
HETATM   25  C   UNL     1      17.970  52.463  41.762  1.00  0.00     0.002 A 
HETATM   26  C   UNL     1      18.308  51.333  42.514  1.00  0.00     0.031 A 
ENDBRANCH  13  21
ENDBRANCH   7  10
BRANCH   1  27
HETATM   27  C   UNL     1      17.613  49.372  48.861  1.00  0.00     0.270 C 
HETATM   28  O   UNL     1      17.338  50.526  49.166  1.00  0.00    -0.265 OA
BRANCH  27  29
HETATM   29  O   UNL     1      16.729  48.496  48.331  1.00  0.00    -0.321 OA
BRANCH  29  30
HETATM   30  C   UNL     1      15.429  49.015  48.008  1.00  0.00     0.174 C 
HETATM   31  C   UNL     1      15.038  48.625  46.595  1.00  0.00     0.034 C 
ENDBRANCH  29  30
ENDBRANCH  27  29
ENDBRANCH   1  27
BRANCH   2  32
HETATM   32  C   UNL     1      20.392  51.077  48.893  1.00  0.00     0.439 C 
HETATM   33  F   UNL     1      19.955  51.163  47.620  1.00  0.00    -0.166 F 
HETATM   34  F   UNL     1      19.786  52.072  49.593  1.00  0.00    -0.166 F 
HETATM   35  F   UNL     1      21.709  51.390  48.873  1.00  0.00    -0.166 F 
ENDBRANCH   2  32
BRANCH   2  36
HETATM   36  O   UNL     1      19.813  49.835  50.965  1.00  0.00    -0.363 OA
HETATM   37  H   UNL     1      20.137  49.027  51.399  1.00  0.00     0.213 HD
ENDBRANCH   2  36
TORSDOF 8
ENDMDL
MODEL 7
REMARK VINA RESULT:      -6.8     22.843     24.882
REMARK  8 active torsions:
REMARK  status: ('A' for Active; 'I' for Inactive)
REMARK    1  A    between atoms: C_2  and  O_3 
REMARK    2  A    between atoms: O_3  and  C_4 
REMARK    3  A    between atoms: C_4  and  C_5 
REMARK    4  A    between atoms: C_6  and  C_8 
REMARK    5  A    between atoms: C_6  and  O_7 
REMARK    6  A    between atoms: C_16  and  C_17 
REMARK    7  A    between atoms: C_18  and  C_19 
REMARK    8  A    between atoms: N_26  and  C_27 
ROOT
HETATM    1  C   UNL     1      38.872  45.852  64.907  1.00  0.00     0.177 C 
HETATM    2  C   UNL     1      38.872  47.305  65.404  1.00  0.00     0.250 C 
HETATM    3  N   UNL     1      38.316  48.130  64.337  1.00  0.00    -0.303 N 
HETATM    4  C   UNL     1      37.092  47.838  63.829  1.00  0.00     0.319 C 
HETATM    5  O   UNL     1      36.415  48.685  63.265  1.00  0.00    -0.247 OA
HETATM    6  N   UNL     1      36.664  46.569  64.009  1.00  0.00    -0.333 N 
HETATM    7  C   UNL     1      37.498  45.434  64.368  1.00  0.00     0.142 C 
HETATM    8  H   UNL     1      38.484  49.129  64.378  1.00  0.00     0.167 HD
HETATM    9  H   UNL     1      35.746  46.392  63.616  1.00  0.00     0.165 HD
ENDROOT
BRANCH   7  10
HETATM   10  C   UNL     1      36.644  44.498  65.178  1.00  0.00     0.015 A 
HETATM   11  C   UNL     1      36.708  43.065  65.220  1.00  0.00     0.097 A 
HETATM   12  N   UNL     1      35.813  42.564  66.081  1.00  0.00    -0.167 NA
HETATM   13  N   UNL     1      35.160  43.622  66.602  1.00  0.00    -0.244 N 
HETATM   14  C   UNL     1      35.633  44.801  66.071  1.00  0.00     0.130 A 
BRANCH  11  15
HETATM   15  C   UNL     1      37.588  42.145  64.494  1.00  0.00    -0.005 A 
HETATM   16  C   UNL     1      38.036  40.974  65.126  1.00  0.00     0.014 A 
HETATM   17  C   UNL     1      38.863  40.071  64.454  1.00  0.00     0.001 A 
HETATM   18  C   UNL     1      39.252  40.329  63.142  1.00  0.00     0.000 A 
HETATM   19  C   UNL     1      38.804  41.481  62.498  1.00  0.00     0.001 A 
HETATM   20  C   UNL     1      37.969  42.380  63.166  1.00  0.00     0.014 A 
ENDBRANCH  11  15
BRANCH  13  21
HETATM   21  C   UNL     1      34.135  43.446  67.574  1.00  0.00     0.058 A 
HETATM   22  C   UNL     1      32.939  42.811  67.203  1.00  0.00     0.031 A 
HETATM   23  C   UNL     1      31.921  42.623  68.141  1.00  0.00     0.002 A 
HETATM   24  C   UNL     1      32.087  43.066  69.451  1.00  0.00     0.000 A 
HETATM   25  C   UNL     1      33.271  43.700  69.826  1.00  0.00     0.002 A 
HETATM   26  C   UNL     1      34.295  43.891  68.893  1.00  0.00     0.031 A 
ENDBRANCH  13  21
ENDBRANCH   7  10
BRANCH   1  27
HETATM   27  C   UNL     1      39.528  44.794  65.766  1.00  0.00     0.270 C 
HETATM   28  O   UNL     1      39.166  44.552  66.910  1.00  0.00    -0.265 OA
BRANCH  27  29
HETATM   29  O   UNL     1      40.460  44.077  65.097  1.00  0.00    -0.321 OA
BRANCH  29  30
HETATM   30  C   UNL     1      40.918  44.626  63.852  1.00  0.00     0.174 C 
HETATM   31  C   UNL     1      42.399  44.948  63.927  1.00  0.00     0.034 C 
ENDBRANCH  29  30
ENDBRANCH  27  29
ENDBRANCH   1  27
BRANCH   2  32
HETATM   32  C   UNL     1      38.128  47.563  66.770  1.00  0.00     0.439 C 
HETATM   33  F   UNL     1      37.157  46.667  67.041  1.00  0.00    -0.166 F 
HETATM   34  F   UNL     1      39.009  47.524  67.804  1.00  0.00    -0.166 F 
HETATM   35  F   UNL     1      37.553  48.787  66.821  1.00  0.00    -0.166 F 
ENDBRANCH   2  32
BRANCH   2  36
HETATM   36  O   UNL     1      40.226  47.777  65.456  1.00  0.00    -0.363 OA
HETATM   37  H   UNL     1      40.491  47.723  66.390  1.00  0.00     0.213 HD
ENDBRANCH   2  36
TORSDOF 8
ENDMDL
MODEL 8
REMARK VINA RESULT:      -6.8      3.084      5.493
REMARK  8 active torsions:
REMARK  status: ('A' for Active; 'I' for Inactive)
REMARK    1  A    between atoms: C_2  and  O_3 
REMARK    2  A    between atoms: O_3  and  C_4 
REMARK    3  A    between atoms: C_4  and  C_5 
REMARK    4  A    between atoms: C_6  and  C_8 
REMARK    5  A    between atoms: C_6  and  O_7 
REMARK    6  A    between atoms: C_16  and  C_17 
REMARK    7  A    between atoms: C_18  and  C_19 
REMARK    8  A    between atoms: N_26  and  C_27 
ROOT
HETATM    1  C   UNL     1      18.201  46.983  47.007  1.00  0.00     0.177 C 
HETATM    2  C   UNL     1      18.233  45.582  46.377  1.00  0.00     0.250 C 
HETATM    3  N   UNL     1      18.305  45.757  44.931  1.00  0.00    -0.303 N 
HETATM    4  C   UNL     1      19.301  46.505  44.392  1.00  0.00     0.319 C 
HETATM    5  O   UNL     1      19.658  46.356  43.233  1.00  0.00    -0.247 OA
HETATM    6  N   UNL     1      19.884  47.399  45.221  1.00  0.00    -0.333 N 
HETATM    7  C   UNL     1      19.338  47.869  46.483  1.00  0.00     0.142 C 
HETATM    8  H   UNL     1      18.068  44.962  44.348  1.00  0.00     0.167 HD
HETATM    9  H   UNL     1      20.623  47.938  44.781  1.00  0.00     0.165 HD
ENDROOT
BRANCH   7  10
HETATM   10  C   UNL     1      20.504  48.177  47.382  1.00  0.00     0.015 A 
HETATM   11  C   UNL     1      20.668  49.305  48.253  1.00  0.00     0.097 A 
HETATM   12  N   UNL     1      21.822  49.233  48.930  1.00  0.00    -0.167 NA
HETATM   13  N   UNL     1      22.421  48.095  48.527  1.00  0.00    -0.244 N 
HETATM   14  C   UNL     1      21.656  47.440  47.588  1.00  0.00     0.130 A 
BRANCH  11  15
HETATM   15  C   UNL     1      19.777  50.445  48.487  1.00  0.00    -0.005 A 
HETATM   16  C   UNL     1      19.404  50.771  49.800  1.00  0.00     0.014 A 
HETATM   17  C   UNL     1      18.568  51.861  50.056  1.00  0.00     0.001 A 
HETATM   18  C   UNL     1      18.096  52.637  49.001  1.00  0.00     0.000 A 
HETATM   19  C   UNL     1      18.469  52.333  47.693  1.00  0.00     0.001 A 
HETATM   20  C   UNL     1      19.314  51.249  47.437  1.00  0.00     0.014 A 
ENDBRANCH  11  15
BRANCH  13  21
HETATM   21  C   UNL     1      23.679  47.699  49.064  1.00  0.00     0.058 A 
HETATM   22  C   UNL     1      24.733  48.627  49.102  1.00  0.00     0.031 A 
HETATM   23  C   UNL     1      25.974  48.263  49.629  1.00  0.00     0.002 A 
HETATM   24  C   UNL     1      26.175  46.975  50.117  1.00  0.00     0.000 A 
HETATM   25  C   UNL     1      25.136  46.046  50.080  1.00  0.00     0.002 A 
HETATM   26  C   UNL     1      23.889  46.404  49.556  1.00  0.00     0.031 A 
ENDBRANCH  13  21
ENDBRANCH   7  10
BRANCH   1  27
HETATM   27  C   UNL     1      17.985  47.100  48.499  1.00  0.00     0.270 C 
HETATM   28  O   UNL     1      18.907  47.079  49.305  1.00  0.00    -0.265 OA
BRANCH  27  29
HETATM   29  O   UNL     1      16.696  47.349  48.827  1.00  0.00    -0.321 OA
BRANCH  29  30
HETATM   30  C   UNL     1      15.928  48.101  47.875  1.00  0.00     0.174 C 
HETATM   31  C   UNL     1      15.948  49.577  48.226  1.00  0.00     0.034 C 
ENDBRANCH  29  30
ENDBRANCH  27  29
ENDBRANCH   1  27
BRANCH   2  32
HETATM   32  C   UNL     1      19.374  44.625  46.893  1.00  0.00     0.439 C 
HETATM   33  F   UNL     1      19.126  43.316  46.686  1.00  0.00    -0.166 F 
HETATM   34  F   UNL     1      20.550  44.913  46.275  1.00  0.00    -0.166 F 
HETATM   35  F   UNL     1      19.610  44.770  48.218  1.00  0.00    -0.166 F 
ENDBRANCH   2  32
BRANCH   2  36
HETATM   36  O   UNL     1      16.942  44.976  46.529  1.00  0.00    -0.363 OA
HETATM   37  H   UNL     1      16.449  45.194  45.719  1.00  0.00     0.213 HD
ENDBRANCH   2  36
TORSDOF 8
ENDMDL
MODEL 9
REMARK VINA RESULT:      -6.7     24.152     27.002
REMARK  8 active torsions:
REMARK  status: ('A' for Active; 'I' for Inactive)
REMARK    1  A    between atoms: C_2  and  O_3 
REMARK    2  A    between atoms: O_3  and  C_4 
REMARK    3  A    between atoms: C_4  and  C_5 
REMARK    4  A    between atoms: C_6  and  C_8 
REMARK    5  A    between atoms: C_6  and  O_7 
REMARK    6  A    between atoms: C_16  and  C_17 
REMARK    7  A    between atoms: C_18  and  C_19 
REMARK    8  A    between atoms: N_26  and  C_27 
ROOT
HETATM    1  C   UNL     1      41.757  46.766  66.137  1.00  0.00     0.177 C 
HETATM    2  C   UNL     1      43.273  46.535  66.231  1.00  0.00     0.250 C 
HETATM    3  N   UNL     1      43.598  46.348  67.641  1.00  0.00    -0.303 N 
HETATM    4  C   UNL     1      42.960  45.388  68.357  1.00  0.00     0.319 C 
HETATM    5  O   UNL     1      43.451  44.912  69.370  1.00  0.00    -0.247 OA
HETATM    6  N   UNL     1      41.769  44.976  67.867  1.00  0.00    -0.333 N 
HETATM    7  C   UNL     1      40.968  45.682  66.881  1.00  0.00     0.142 C 
HETATM    8  H   UNL     1      44.568  46.449  67.918  1.00  0.00     0.167 HD
HETATM    9  H   UNL     1      41.325  44.259  68.430  1.00  0.00     0.165 HD
ENDROOT
BRANCH   7  10
HETATM   10  C   UNL     1      40.225  44.640  66.090  1.00  0.00     0.015 A 
HETATM   11  C   UNL     1      38.896  44.725  65.556  1.00  0.00     0.097 A 
HETATM   12  N   UNL     1      38.574  43.617  64.875  1.00  0.00    -0.167 NA
HETATM   13  N   UNL     1      39.649  42.806  64.950  1.00  0.00    -0.244 N 
HETATM   14  C   UNL     1      40.657  43.392  65.682  1.00  0.00     0.130 A 
BRANCH  11  15
HETATM   15  C   UNL     1      37.918  45.813  65.646  1.00  0.00    -0.005 A 
HETATM   16  C   UNL     1      37.513  46.476  64.478  1.00  0.00     0.014 A 
HETATM   17  C   UNL     1      36.571  47.507  64.530  1.00  0.00     0.001 A 
HETATM   18  C   UNL     1      36.024  47.885  65.754  1.00  0.00     0.000 A 
HETATM   19  C   UNL     1      36.406  47.226  66.921  1.00  0.00     0.001 A 
HETATM   20  C   UNL     1      37.341  46.189  66.867  1.00  0.00     0.014 A 
ENDBRANCH  11  15
BRANCH  13  21
HETATM   21  C   UNL     1      39.650  41.532  64.316  1.00  0.00     0.058 A 
HETATM   22  C   UNL     1      39.270  41.434  62.968  1.00  0.00     0.031 A 
HETATM   23  C   UNL     1      39.268  40.194  62.324  1.00  0.00     0.002 A 
HETATM   24  C   UNL     1      39.643  39.047  63.018  1.00  0.00     0.000 A 
HETATM   25  C   UNL     1      40.019  39.134  64.357  1.00  0.00     0.002 A 
HETATM   26  C   UNL     1      40.025  40.372  65.008  1.00  0.00     0.031 A 
ENDBRANCH  13  21
ENDBRANCH   7  10
BRANCH   1  27
HETATM   27  C   UNL     1      41.163  47.129  64.795  1.00  0.00     0.270 C 
HETATM   28  O   UNL     1      41.216  46.384  63.824  1.00  0.00    -0.265 OA
BRANCH  27  29
HETATM   29  O   UNL     1      40.474  48.293  64.821  1.00  0.00    -0.321 OA
BRANCH  29  30
HETATM   30  C   UNL     1      40.094  48.783  66.117  1.00  0.00     0.174 C 
HETATM   31  C   UNL     1      39.239  50.029  65.982  1.00  0.00     0.034 C 
ENDBRANCH  29  30
ENDBRANCH  27  29
ENDBRANCH   1  27
BRANCH   2  32
HETATM   32  C   UNL     1      43.842  45.355  65.354  1.00  0.00     0.439 C 
HETATM   33  F   UNL     1      42.970  44.344  65.165  1.00  0.00    -0.166 F 
HETATM   34  F   UNL     1      44.201  45.810  64.124  1.00  0.00    -0.166 F 
HETATM   35  F   UNL     1      44.960  44.809  65.886  1.00  0.00    -0.166 F 
ENDBRANCH   2  32
BRANCH   2  36
HETATM   36  O   UNL     1      43.949  47.767  65.942  1.00  0.00    -0.363 OA
HETATM   37  H   UNL     1      43.304  48.319  65.468  1.00  0.00     0.213 HD
ENDBRANCH   2  36
TORSDOF 8
ENDMDL
MODEL 10
REMARK VINA RESULT:      -6.3      1.897      5.149
REMARK  8 active torsions:
REMARK  status: ('A' for Active; 'I' for Inactive)
REMARK    1  A    between atoms: C_2  and  O_3 
REMARK    2  A    between atoms: O_3  and  C_4 
REMARK    3  A    between atoms: C_4  and  C_5 
REMARK    4  A    between atoms: C_6  and  C_8 
REMARK    5  A    between atoms: C_6  and  O_7 
REMARK    6  A    between atoms: C_16  and  C_17 
REMARK    7  A    between atoms: C_18  and  C_19 
REMARK    8  A    between atoms: N_26  and  C_27 
ROOT
HETATM    1  C   UNL     1      18.011  49.022  49.456  1.00  0.00     0.177 C 
HETATM    2  C   UNL     1      18.178  50.514  49.131  1.00  0.00     0.250 C 
HETATM    3  N   UNL     1      19.044  51.088  50.154  1.00  0.00    -0.303 N 
HETATM    4  C   UNL     1      20.268  50.547  50.381  1.00  0.00     0.319 C 
HETATM    5  O   UNL     1      21.169  51.194  50.893  1.00  0.00    -0.247 OA
HETATM    6  N   UNL     1      20.431  49.265  49.984  1.00  0.00    -0.333 N 
HETATM    7  C   UNL     1      19.363  48.331  49.670  1.00  0.00     0.142 C 
HETATM    8  H   UNL     1      19.049  52.097  50.256  1.00  0.00     0.167 HD
HETATM    9  H   UNL     1      21.358  48.898  50.171  1.00  0.00     0.165 HD
ENDROOT
BRANCH   7  10
HETATM   10  C   UNL     1      19.889  47.398  48.613  1.00  0.00     0.015 A 
HETATM   11  C   UNL     1      21.175  47.426  47.978  1.00  0.00     0.097 A 
HETATM   12  N   UNL     1      21.308  46.418  47.106  1.00  0.00    -0.167 NA
HETATM   13  N   UNL     1      20.147  45.733  47.145  1.00  0.00    -0.244 N 
HETATM   14  C   UNL     1      19.269  46.304  48.039  1.00  0.00     0.130 A 
BRANCH  11  15
HETATM   15  C   UNL     1      22.294  48.354  48.167  1.00  0.00    -0.005 A 
HETATM   16  C   UNL     1      23.403  47.952  48.927  1.00  0.00     0.014 A 
HETATM   17  C   UNL     1      24.491  48.809  49.112  1.00  0.00     0.001 A 
HETATM   18  C   UNL     1      24.480  50.078  48.540  1.00  0.00     0.000 A 
HETATM   19  C   UNL     1      23.391  50.486  47.771  1.00  0.00     0.001 A 
HETATM   20  C   UNL     1      22.307  49.625  47.577  1.00  0.00     0.014 A 
ENDBRANCH  11  15
BRANCH  13  21
HETATM   21  C   UNL     1      19.950  44.578  46.337  1.00  0.00     0.058 A 
HETATM   22  C   UNL     1      18.831  44.512  45.492  1.00  0.00     0.031 A 
HETATM   23  C   UNL     1      18.620  43.390  44.687  1.00  0.00     0.002 A 
HETATM   24  C   UNL     1      19.520  42.328  44.720  1.00  0.00     0.000 A 
HETATM   25  C   UNL     1      20.632  42.383  45.558  1.00  0.00     0.002 A 
HETATM   26  C   UNL     1      20.851  43.504  46.366  1.00  0.00     0.031 A 
ENDBRANCH  13  21
ENDBRANCH   7  10
BRANCH   1  27
HETATM   27  C   UNL     1      17.043  48.206  48.629  1.00  0.00     0.270 C 
HETATM   28  O   UNL     1      16.560  47.152  49.023  1.00  0.00    -0.265 OA
BRANCH  27  29
HETATM   29  O   UNL     1      16.683  48.822  47.479  1.00  0.00    -0.321 OA
BRANCH  29  30
HETATM   30  C   UNL     1      16.152  47.982  46.442  1.00  0.00     0.174 C 
HETATM   31  C   UNL     1      17.153  47.837  45.312  1.00  0.00     0.034 C 
ENDBRANCH  29  30
ENDBRANCH  27  29
ENDBRANCH   1  27
BRANCH   2  32
HETATM   32  C   UNL     1      18.709  50.845  47.684  1.00  0.00     0.439 C 
HETATM   33  F   UNL     1      19.175  49.772  47.013  1.00  0.00    -0.166 F 
HETATM   34  F   UNL     1      17.718  51.389  46.929  1.00  0.00    -0.166 F 
HETATM   35  F   UNL     1      19.707  51.758  47.697  1.00  0.00    -0.166 F 
ENDBRANCH   2  32
BRANCH   2  36
HETATM   36  O   UNL     1      16.938  51.187  49.393  1.00  0.00    -0.363 OA
HETATM   37  H   UNL     1      16.673  51.593  48.551  1.00  0.00     0.213 HD
ENDBRANCH   2  36
TORSDOF 8
ENDMDL
