MODEL 1
REMARK VINA RESULT:     -10.7      0.000      0.000
REMARK  8 active torsions:
REMARK  status: ('A' for Active; 'I' for Inactive)
REMARK    1  A    between atoms: C_2  and  O_3 
REMARK    2  A    between atoms: O_3  and  C_4 
REMARK    3  A    between atoms: C_4  and  C_5 
REMARK    4  A    between atoms: C_10  and  N_11 
REMARK       I    between atoms: N_11  and  C_12 
REMARK    5  A    between atoms: C_12  and  C_13 
REMARK    6  A    between atoms: C_13  and  N_14 
REMARK    7  A    between atoms: N_18  and  C_19 
REMARK    8  A    between atoms: C_21  and  C_22 
ROOT
HETATM    1  N   UNL     1      23.338  47.470  49.393  1.00  0.00    -0.323 N 
HETATM    2  C   UNL     1      23.040  46.253  48.817  1.00  0.00     0.248 C 
HETATM    3  O   UNL     1      22.440  46.102  47.757  1.00  0.00    -0.271 OA
HETATM    4  H   UNL     1      24.180  47.561  49.961  1.00  0.00     0.169 HD
ENDROOT
BRANCH   1   5
HETATM    5  C   UNL     1      22.809  48.682  48.948  1.00  0.00     0.080 A 
HETATM    6  C   UNL     1      23.619  49.706  48.481  1.00  0.00     0.137 A 
HETATM    7  N   UNL     1      22.793  50.737  48.102  1.00  0.00    -0.349 N 
HETATM    8  H   UNL     1      23.117  51.608  47.700  1.00  0.00     0.166 HD
HETATM    9  C   UNL     1      21.474  50.425  48.337  1.00  0.00     0.048 A 
HETATM   10  C   UNL     1      21.448  49.137  48.892  1.00  0.00     0.023 A 
HETATM   11  C   UNL     1      20.322  51.194  48.102  1.00  0.00     0.070 A 
HETATM   12  C   UNL     1      20.196  48.602  49.283  1.00  0.00     0.055 A 
HETATM   13  C   UNL     1      19.067  49.362  49.042  1.00  0.00     0.106 A 
HETATM   14  C   UNL     1      19.129  50.605  48.470  1.00  0.00     0.107 A 
HETATM   15  O   UNL     1      17.794  48.984  49.337  1.00  0.00    -0.323 OA
HETATM   16  O   UNL     1      17.898  51.169  48.325  1.00  0.00    -0.323 OA
HETATM   17  C   UNL     1      17.054  50.122  48.847  1.00  0.00     0.352 A 
BRANCH   6  18
HETATM   18  C   UNL     1      25.054  49.715  48.338  1.00  0.00     0.312 C 
HETATM   19  O   UNL     1      25.641  50.198  47.376  1.00  0.00    -0.258 OA
BRANCH  18  20
HETATM   20  O   UNL     1      25.630  49.147  49.430  1.00  0.00    -0.317 OA
BRANCH  20  21
HETATM   21  C   UNL     1      26.820  48.380  49.193  1.00  0.00     0.175 C 
HETATM   22  C   UNL     1      28.038  49.281  49.244  1.00  0.00     0.034 C 
ENDBRANCH  20  21
ENDBRANCH  18  20
ENDBRANCH   6  18
ENDBRANCH   1   5
BRANCH   2  23
HETATM   23  C   UNL     1      23.557  45.042  49.609  1.00  0.00     0.337 C 
BRANCH  23  24
HETATM   24  N   UNL     1      24.902  45.241  50.329  1.00  0.00    -0.060 N 
HETATM   25  H   UNL     1      25.204  46.204  50.152  1.00  0.00     0.280 HD
HETATM   26  C   UNL     1      24.786  45.096  51.855  1.00  0.00     0.255 C 
HETATM   27  C   UNL     1      26.155  45.297  52.541  1.00  0.00     0.150 C 
HETATM   28  N   UNL     1      27.153  44.395  51.939  1.00  0.00    -0.378 N 
HETATM   29  C   UNL     1      27.342  44.557  50.490  1.00  0.00     0.150 C 
HETATM   30  C   UNL     1      25.998  44.329  49.765  1.00  0.00     0.255 C 
BRANCH  28  31
HETATM   31  C   UNL     1      28.225  44.007  52.739  1.00  0.00     0.030 A 
HETATM   32  C   UNL     1      28.504  44.718  53.919  1.00  0.00     0.045 A 
HETATM   33  C   UNL     1      29.541  44.346  54.795  1.00  0.00     0.050 A 
HETATM   34  C   UNL     1      30.312  43.222  54.486  1.00  0.00     0.016 A 
HETATM   35  C   UNL     1      30.054  42.498  53.326  1.00  0.00     0.003 A 
HETATM   36  C   UNL     1      29.021  42.888  52.467  1.00  0.00     0.029 A 
BRANCH  33  37
HETATM   37  C   UNL     1      29.782  45.114  56.071  1.00  0.00     0.417 C 
HETATM   38  F   UNL     1      30.450  44.387  57.011  1.00  0.00    -0.166 F 
HETATM   39  F   UNL     1      30.523  46.237  55.868  1.00  0.00    -0.166 F 
HETATM   40  F   UNL     1      28.629  45.522  56.667  1.00  0.00    -0.166 F 
ENDBRANCH  33  37
ENDBRANCH  28  31
ENDBRANCH  23  24
ENDBRANCH   2  23
TORSDOF 8
ENDMDL
MODEL 2
REMARK VINA RESULT:     -10.3      5.127     10.719
REMARK  8 active torsions:
REMARK  status: ('A' for Active; 'I' for Inactive)
REMARK    1  A    between atoms: C_2  and  O_3 
REMARK    2  A    between atoms: O_3  and  C_4 
REMARK    3  A    between atoms: C_4  and  C_5 
REMARK    4  A    between atoms: C_10  and  N_11 
REMARK       I    between atoms: N_11  and  C_12 
REMARK    5  A    between atoms: C_12  and  C_13 
REMARK    6  A    between atoms: C_13  and  N_14 
REMARK    7  A    between atoms: N_18  and  C_19 
REMARK    8  A    between atoms: C_21  and  C_22 
ROOT
HETATM    1  N   UNL     1      26.015  42.568  51.442  1.00  0.00    -0.323 N 
HETATM    2  C   UNL     1      25.820  43.351  50.323  1.00  0.00     0.248 C 
HETATM    3  O   UNL     1      26.708  43.736  49.567  1.00  0.00    -0.271 OA
HETATM    4  H   UNL     1      25.281  41.923  51.734  1.00  0.00     0.169 HD
ENDROOT
BRANCH   1   5
HETATM    5  C   UNL     1      27.273  42.289  51.976  1.00  0.00     0.080 A 
HETATM    6  C   UNL     1      28.015  41.192  51.565  1.00  0.00     0.137 A 
HETATM    7  N   UNL     1      29.201  41.220  52.259  1.00  0.00    -0.349 N 
HETATM    8  H   UNL     1      29.948  40.547  52.140  1.00  0.00     0.166 HD
HETATM    9  C   UNL     1      29.238  42.283  53.131  1.00  0.00     0.048 A 
HETATM   10  C   UNL     1      28.023  42.972  52.992  1.00  0.00     0.023 A 
HETATM   11  C   UNL     1      30.253  42.669  54.023  1.00  0.00     0.070 A 
HETATM   12  C   UNL     1      27.786  44.087  53.833  1.00  0.00     0.055 A 
HETATM   13  C   UNL     1      28.792  44.463  54.703  1.00  0.00     0.106 A 
HETATM   14  C   UNL     1      29.979  43.784  54.790  1.00  0.00     0.107 A 
HETATM   15  O   UNL     1      28.730  45.520  55.558  1.00  0.00    -0.323 OA
HETATM   16  O   UNL     1      30.821  44.331  55.709  1.00  0.00    -0.323 OA
HETATM   17  C   UNL     1      30.035  45.450  56.168  1.00  0.00     0.352 A 
BRANCH   6  18
HETATM   18  C   UNL     1      27.683  40.216  50.557  1.00  0.00     0.312 C 
HETATM   19  O   UNL     1      26.535  39.924  50.241  1.00  0.00    -0.258 OA
BRANCH  18  20
HETATM   20  O   UNL     1      28.821  39.715  50.008  1.00  0.00    -0.317 OA
BRANCH  20  21
HETATM   21  C   UNL     1      28.923  38.283  49.954  1.00  0.00     0.175 C 
HETATM   22  C   UNL     1      29.939  37.797  50.967  1.00  0.00     0.034 C 
ENDBRANCH  20  21
ENDBRANCH  18  20
ENDBRANCH   6  18
ENDBRANCH   1   5
BRANCH   2  23
HETATM   23  C   UNL     1      24.349  43.702  50.052  1.00  0.00     0.337 C 
BRANCH  23  24
HETATM   24  N   UNL     1      24.103  45.063  49.376  1.00  0.00    -0.060 N 
HETATM   25  H   UNL     1      24.745  45.129  48.580  1.00  0.00     0.280 HD
HETATM   26  C   UNL     1      22.683  45.192  48.802  1.00  0.00     0.255 C 
HETATM   27  C   UNL     1      22.473  46.570  48.138  1.00  0.00     0.150 C 
HETATM   28  N   UNL     1      22.823  47.642  49.087  1.00  0.00    -0.378 N 
HETATM   29  C   UNL     1      24.199  47.590  49.601  1.00  0.00     0.150 C 
HETATM   30  C   UNL     1      24.437  46.237  50.305  1.00  0.00     0.255 C 
BRANCH  28  31
HETATM   31  C   UNL     1      22.190  48.871  48.921  1.00  0.00     0.030 A 
HETATM   32  C   UNL     1      20.887  49.055  49.413  1.00  0.00     0.045 A 
HETATM   33  C   UNL     1      20.214  50.287  49.320  1.00  0.00     0.050 A 
HETATM   34  C   UNL     1      20.870  51.371  48.729  1.00  0.00     0.016 A 
HETATM   35  C   UNL     1      22.162  51.217  48.237  1.00  0.00     0.003 A 
HETATM   36  C   UNL     1      22.812  49.981  48.336  1.00  0.00     0.029 A 
BRANCH  33  37
HETATM   37  C   UNL     1      18.829  50.453  49.896  1.00  0.00     0.417 C 
HETATM   38  F   UNL     1      18.551  51.739  50.252  1.00  0.00    -0.166 F 
HETATM   39  F   UNL     1      17.856  50.087  49.019  1.00  0.00    -0.166 F 
HETATM   40  F   UNL     1      18.631  49.706  51.016  1.00  0.00    -0.166 F 
ENDBRANCH  33  37
ENDBRANCH  28  31
ENDBRANCH  23  24
ENDBRANCH   2  23
TORSDOF 8
ENDMDL
MODEL 3
REMARK VINA RESULT:     -10.1      1.915      2.611
REMARK  8 active torsions:
REMARK  status: ('A' for Active; 'I' for Inactive)
REMARK    1  A    between atoms: C_2  and  O_3 
REMARK    2  A    between atoms: O_3  and  C_4 
REMARK    3  A    between atoms: C_4  and  C_5 
REMARK    4  A    between atoms: C_10  and  N_11 
REMARK       I    between atoms: N_11  and  C_12 
REMARK    5  A    between atoms: C_12  and  C_13 
REMARK    6  A    between atoms: C_13  and  N_14 
REMARK    7  A    between atoms: N_18  and  C_19 
REMARK    8  A    between atoms: C_21  and  C_22 
ROOT
HETATM    1  N   UNL     1      23.916  45.011  49.109  1.00  0.00    -0.323 N 
HETATM    2  C   UNL     1      23.431  43.939  49.829  1.00  0.00     0.248 C 
HETATM    3  O   UNL     1      22.330  43.892  50.370  1.00  0.00    -0.271 OA
HETATM    4  H   UNL     1      24.563  44.842  48.338  1.00  0.00     0.169 HD
ENDROOT
BRANCH   1   5
HETATM    5  C   UNL     1      23.298  46.261  49.079  1.00  0.00     0.080 A 
HETATM    6  C   UNL     1      23.848  47.363  49.716  1.00  0.00     0.137 A 
HETATM    7  N   UNL     1      23.014  48.429  49.475  1.00  0.00    -0.349 N 
HETATM    8  H   UNL     1      23.185  49.372  49.803  1.00  0.00     0.166 HD
HETATM    9  C   UNL     1      21.925  48.045  48.728  1.00  0.00     0.048 A 
HETATM   10  C   UNL     1      22.062  46.672  48.476  1.00  0.00     0.023 A 
HETATM   11  C   UNL     1      20.842  48.815  48.272  1.00  0.00     0.070 A 
HETATM   12  C   UNL     1      21.027  46.016  47.766  1.00  0.00     0.055 A 
HETATM   13  C   UNL     1      19.968  46.782  47.316  1.00  0.00     0.106 A 
HETATM   14  C   UNL     1      19.883  48.128  47.555  1.00  0.00     0.107 A 
HETATM   15  O   UNL     1      18.909  46.309  46.604  1.00  0.00    -0.323 OA
HETATM   16  O   UNL     1      18.759  48.678  47.018  1.00  0.00    -0.323 OA
HETATM   17  C   UNL     1      18.164  47.525  46.389  1.00  0.00     0.352 A 
BRANCH   6  18
HETATM   18  C   UNL     1      25.088  47.446  50.447  1.00  0.00     0.312 C 
HETATM   19  O   UNL     1      25.155  47.582  51.664  1.00  0.00    -0.258 OA
BRANCH  18  20
HETATM   20  O   UNL     1      26.137  47.317  49.593  1.00  0.00    -0.317 OA
BRANCH  20  21
HETATM   21  C   UNL     1      27.082  48.398  49.580  1.00  0.00     0.175 C 
HETATM   22  C   UNL     1      26.639  49.464  48.599  1.00  0.00     0.034 C 
ENDBRANCH  20  21
ENDBRANCH  18  20
ENDBRANCH   6  18
ENDBRANCH   1   5
BRANCH   2  23
HETATM   23  C   UNL     1      24.390  42.740  49.892  1.00  0.00     0.337 C 
BRANCH  23  24
HETATM   24  N   UNL     1      25.211  42.610  51.187  1.00  0.00    -0.060 N 
HETATM   25  H   UNL     1      24.743  41.916  51.778  1.00  0.00     0.280 HD
HETATM   26  C   UNL     1      26.633  42.080  50.938  1.00  0.00     0.255 C 
HETATM   27  C   UNL     1      27.426  41.968  52.258  1.00  0.00     0.150 C 
HETATM   28  N   UNL     1      27.397  43.259  52.969  1.00  0.00    -0.378 N 
HETATM   29  C   UNL     1      26.053  43.761  53.288  1.00  0.00     0.150 C 
HETATM   30  C   UNL     1      25.238  43.919  51.986  1.00  0.00     0.255 C 
BRANCH  28  31
HETATM   31  C   UNL     1      28.462  43.540  53.821  1.00  0.00     0.030 A 
HETATM   32  C   UNL     1      28.358  44.601  54.737  1.00  0.00     0.045 A 
HETATM   33  C   UNL     1      29.379  44.904  55.657  1.00  0.00     0.050 A 
HETATM   34  C   UNL     1      30.531  44.113  55.670  1.00  0.00     0.016 A 
HETATM   35  C   UNL     1      30.658  43.055  54.776  1.00  0.00     0.003 A 
HETATM   36  C   UNL     1      29.633  42.773  53.866  1.00  0.00     0.029 A 
BRANCH  33  37
HETATM   37  C   UNL     1      29.210  46.028  56.650  1.00  0.00     0.417 C 
HETATM   38  F   UNL     1      28.472  45.670  57.739  1.00  0.00    -0.166 F 
HETATM   39  F   UNL     1      30.401  46.474  57.134  1.00  0.00    -0.166 F 
HETATM   40  F   UNL     1      28.586  47.114  56.118  1.00  0.00    -0.166 F 
ENDBRANCH  33  37
ENDBRANCH  28  31
ENDBRANCH  23  24
ENDBRANCH   2  23
TORSDOF 8
ENDMDL
MODEL 4
REMARK VINA RESULT:     -10.0      1.774      2.450
REMARK  8 active torsions:
REMARK  status: ('A' for Active; 'I' for Inactive)
REMARK    1  A    between atoms: C_2  and  O_3 
REMARK    2  A    between atoms: O_3  and  C_4 
REMARK    3  A    between atoms: C_4  and  C_5 
REMARK    4  A    between atoms: C_10  and  N_11 
REMARK       I    between atoms: N_11  and  C_12 
REMARK    5  A    between atoms: C_12  and  C_13 
REMARK    6  A    between atoms: C_13  and  N_14 
REMARK    7  A    between atoms: N_18  and  C_19 
REMARK    8  A    between atoms: C_21  and  C_22 
ROOT
HETATM    1  N   UNL     1      22.107  47.604  49.323  1.00  0.00    -0.323 N 
HETATM    2  C   UNL     1      22.563  46.684  48.403  1.00  0.00     0.248 C 
HETATM    3  O   UNL     1      22.452  46.790  47.184  1.00  0.00    -0.271 OA
HETATM    4  H   UNL     1      22.603  47.714  50.207  1.00  0.00     0.169 HD
ENDROOT
BRANCH   1   5
HETATM    5  C   UNL     1      21.273  48.673  48.994  1.00  0.00     0.080 A 
HETATM    6  C   UNL     1      21.754  49.968  48.882  1.00  0.00     0.137 A 
HETATM    7  N   UNL     1      20.693  50.767  48.526  1.00  0.00    -0.349 N 
HETATM    8  H   UNL     1      20.762  51.762  48.352  1.00  0.00     0.166 HD
HETATM    9  C   UNL     1      19.533  50.034  48.435  1.00  0.00     0.048 A 
HETATM   10  C   UNL     1      19.859  48.705  48.744  1.00  0.00     0.023 A 
HETATM   11  C   UNL     1      18.235  50.460  48.107  1.00  0.00     0.070 A 
HETATM   12  C   UNL     1      18.814  47.750  48.778  1.00  0.00     0.055 A 
HETATM   13  C   UNL     1      17.541  48.176  48.449  1.00  0.00     0.106 A 
HETATM   14  C   UNL     1      17.265  49.477  48.121  1.00  0.00     0.107 A 
HETATM   15  O   UNL     1      16.437  47.382  48.412  1.00  0.00    -0.323 OA
HETATM   16  O   UNL     1      15.949  49.668  47.831  1.00  0.00    -0.323 OA
HETATM   17  C   UNL     1      15.436  48.329  47.986  1.00  0.00     0.352 A 
BRANCH   6  18
HETATM   18  C   UNL     1      23.111  50.434  49.033  1.00  0.00     0.312 C 
HETATM   19  O   UNL     1      23.455  51.281  49.851  1.00  0.00    -0.258 OA
BRANCH  18  20
HETATM   20  O   UNL     1      23.924  49.771  48.170  1.00  0.00    -0.317 OA
BRANCH  20  21
HETATM   21  C   UNL     1      25.224  49.418  48.667  1.00  0.00     0.175 C 
HETATM   22  C   UNL     1      26.291  50.212  47.942  1.00  0.00     0.034 C 
ENDBRANCH  20  21
ENDBRANCH  18  20
ENDBRANCH   6  18
ENDBRANCH   1   5
BRANCH   2  23
HETATM   23  C   UNL     1      23.279  45.476  49.026  1.00  0.00     0.337 C 
BRANCH  23  24
HETATM   24  N   UNL     1      23.878  45.705  50.425  1.00  0.00    -0.060 N 
HETATM   25  H   UNL     1      23.156  46.155  50.996  1.00  0.00     0.280 HD
HETATM   26  C   UNL     1      24.241  44.392  51.138  1.00  0.00     0.255 C 
HETATM   27  C   UNL     1      24.843  44.663  52.534  1.00  0.00     0.150 C 
HETATM   28  N   UNL     1      25.974  45.601  52.417  1.00  0.00    -0.378 N 
HETATM   29  C   UNL     1      25.646  46.896  51.805  1.00  0.00     0.150 C 
HETATM   30  C   UNL     1      25.071  46.668  50.390  1.00  0.00     0.255 C 
BRANCH  28  31
HETATM   31  C   UNL     1      26.965  45.526  53.392  1.00  0.00     0.030 A 
HETATM   32  C   UNL     1      27.773  44.379  53.476  1.00  0.00     0.045 A 
HETATM   33  C   UNL     1      28.823  44.264  54.406  1.00  0.00     0.050 A 
HETATM   34  C   UNL     1      29.080  45.334  55.268  1.00  0.00     0.016 A 
HETATM   35  C   UNL     1      28.298  46.483  55.203  1.00  0.00     0.003 A 
HETATM   36  C   UNL     1      27.256  46.575  54.274  1.00  0.00     0.029 A 
BRANCH  33  37
HETATM   37  C   UNL     1      29.691  43.030  54.437  1.00  0.00     0.417 C 
HETATM   38  F   UNL     1      30.339  42.864  55.625  1.00  0.00    -0.166 F 
HETATM   39  F   UNL     1      28.978  41.890  54.236  1.00  0.00    -0.166 F 
HETATM   40  F   UNL     1      30.662  43.044  53.483  1.00  0.00    -0.166 F 
ENDBRANCH  33  37
ENDBRANCH  28  31
ENDBRANCH  23  24
ENDBRANCH   2  23
TORSDOF 8
ENDMDL
MODEL 5
REMARK VINA RESULT:      -9.8      5.103     10.648
REMARK  8 active torsions:
REMARK  status: ('A' for Active; 'I' for Inactive)
REMARK    1  A    between atoms: C_2  and  O_3 
REMARK    2  A    between atoms: O_3  and  C_4 
REMARK    3  A    between atoms: C_4  and  C_5 
REMARK    4  A    between atoms: C_10  and  N_11 
REMARK       I    between atoms: N_11  and  C_12 
REMARK    5  A    between atoms: C_12  and  C_13 
REMARK    6  A    between atoms: C_13  and  N_14 
REMARK    7  A    between atoms: N_18  and  C_19 
REMARK    8  A    between atoms: C_21  and  C_22 
ROOT
HETATM    1  N   UNL     1      26.133  41.984  51.144  1.00  0.00    -0.323 N 
HETATM    2  C   UNL     1      25.896  42.767  50.033  1.00  0.00     0.248 C 
HETATM    3  O   UNL     1      26.761  43.326  49.366  1.00  0.00    -0.271 OA
HETATM    4  H   UNL     1      25.499  41.213  51.355  1.00  0.00     0.169 HD
ENDROOT
BRANCH   1   5
HETATM    5  C   UNL     1      27.374  41.899  51.774  1.00  0.00     0.080 A 
HETATM    6  C   UNL     1      28.286  40.902  51.464  1.00  0.00     0.137 A 
HETATM    7  N   UNL     1      29.402  41.117  52.236  1.00  0.00    -0.349 N 
HETATM    8  H   UNL     1      30.240  40.549  52.198  1.00  0.00     0.166 HD
HETATM    9  C   UNL     1      29.230  42.204  53.061  1.00  0.00     0.048 A 
HETATM   10  C   UNL     1      27.947  42.713  52.809  1.00  0.00     0.023 A 
HETATM   11  C   UNL     1      30.115  42.756  54.003  1.00  0.00     0.070 A 
HETATM   12  C   UNL     1      27.500  43.813  53.582  1.00  0.00     0.055 A 
HETATM   13  C   UNL     1      28.379  44.353  54.502  1.00  0.00     0.106 A 
HETATM   14  C   UNL     1      29.637  43.848  54.700  1.00  0.00     0.107 A 
HETATM   15  O   UNL     1      28.112  45.420  55.304  1.00  0.00    -0.323 OA
HETATM   16  O   UNL     1      30.327  44.537  55.649  1.00  0.00    -0.323 OA
HETATM   17  C   UNL     1      29.366  45.552  56.004  1.00  0.00     0.352 A 
BRANCH   6  18
HETATM   18  C   UNL     1      28.164  39.855  50.479  1.00  0.00     0.312 C 
HETATM   19  O   UNL     1      27.091  39.418  50.076  1.00  0.00    -0.258 OA
BRANCH  18  20
HETATM   20  O   UNL     1      29.398  39.471  50.059  1.00  0.00    -0.317 OA
BRANCH  20  21
HETATM   21  C   UNL     1      29.581  38.066  49.828  1.00  0.00     0.175 C 
HETATM   22  C   UNL     1      29.876  37.358  51.135  1.00  0.00     0.034 C 
ENDBRANCH  20  21
ENDBRANCH  18  20
ENDBRANCH   6  18
ENDBRANCH   1   5
BRANCH   2  23
HETATM   23  C   UNL     1      24.412  42.877  49.649  1.00  0.00     0.337 C 
BRANCH  23  24
HETATM   24  N   UNL     1      24.008  44.167  48.913  1.00  0.00    -0.060 N 
HETATM   25  H   UNL     1      24.764  44.395  48.260  1.00  0.00     0.280 HD
HETATM   26  C   UNL     1      22.737  43.994  48.065  1.00  0.00     0.255 C 
HETATM   27  C   UNL     1      22.362  45.309  47.348  1.00  0.00     0.150 C 
HETATM   28  N   UNL     1      22.269  46.405  48.330  1.00  0.00    -0.378 N 
HETATM   29  C   UNL     1      23.492  46.645  49.108  1.00  0.00     0.150 C 
HETATM   30  C   UNL     1      23.881  45.360  49.869  1.00  0.00     0.255 C 
BRANCH  28  31
HETATM   31  C   UNL     1      21.425  47.467  48.018  1.00  0.00     0.030 A 
HETATM   32  C   UNL     1      21.680  48.739  48.560  1.00  0.00     0.045 A 
HETATM   33  C   UNL     1      20.894  49.863  48.244  1.00  0.00     0.050 A 
HETATM   34  C   UNL     1      19.830  49.712  47.350  1.00  0.00     0.016 A 
HETATM   35  C   UNL     1      19.559  48.465  46.797  1.00  0.00     0.003 A 
HETATM   36  C   UNL     1      20.350  47.359  47.127  1.00  0.00     0.029 A 
BRANCH  33  37
HETATM   37  C   UNL     1      21.226  51.219  48.818  1.00  0.00     0.417 C 
HETATM   38  F   UNL     1      21.179  51.247  50.180  1.00  0.00    -0.166 F 
HETATM   39  F   UNL     1      22.476  51.634  48.476  1.00  0.00    -0.166 F 
HETATM   40  F   UNL     1      20.375  52.193  48.396  1.00  0.00    -0.166 F 
ENDBRANCH  33  37
ENDBRANCH  28  31
ENDBRANCH  23  24
ENDBRANCH   2  23
TORSDOF 8
ENDMDL
MODEL 6
REMARK VINA RESULT:      -9.5      2.944      4.758
REMARK  8 active torsions:
REMARK  status: ('A' for Active; 'I' for Inactive)
REMARK    1  A    between atoms: C_2  and  O_3 
REMARK    2  A    between atoms: O_3  and  C_4 
REMARK    3  A    between atoms: C_4  and  C_5 
REMARK    4  A    between atoms: C_10  and  N_11 
REMARK       I    between atoms: N_11  and  C_12 
REMARK    5  A    between atoms: C_12  and  C_13 
REMARK    6  A    between atoms: C_13  and  N_14 
REMARK    7  A    between atoms: N_18  and  C_19 
REMARK    8  A    between atoms: C_21  and  C_22 
ROOT
HETATM    1  N   UNL     1      21.295  47.777  49.526  1.00  0.00    -0.323 N 
HETATM    2  C   UNL     1      22.251  48.234  48.644  1.00  0.00     0.248 C 
HETATM    3  O   UNL     1      22.024  48.657  47.513  1.00  0.00    -0.271 OA
HETATM    4  H   UNL     1      21.448  47.888  50.529  1.00  0.00     0.169 HD
ENDROOT
BRANCH   1   5
HETATM    5  C   UNL     1      19.967  47.542  49.168  1.00  0.00     0.080 A 
HETATM    6  C   UNL     1      18.912  48.151  49.829  1.00  0.00     0.137 A 
HETATM    7  N   UNL     1      17.753  47.730  49.222  1.00  0.00    -0.349 N 
HETATM    8  H   UNL     1      16.826  48.038  49.487  1.00  0.00     0.166 HD
HETATM    9  C   UNL     1      18.023  46.842  48.207  1.00  0.00     0.048 A 
HETATM   10  C   UNL     1      19.417  46.683  48.158  1.00  0.00     0.023 A 
HETATM   11  C   UNL     1      17.134  46.175  47.348  1.00  0.00     0.070 A 
HETATM   12  C   UNL     1      19.952  45.764  47.223  1.00  0.00     0.055 A 
HETATM   13  C   UNL     1      19.071  45.117  46.378  1.00  0.00     0.106 A 
HETATM   14  C   UNL     1      17.718  45.319  46.435  1.00  0.00     0.107 A 
HETATM   15  O   UNL     1      19.427  44.223  45.414  1.00  0.00    -0.323 OA
HETATM   16  O   UNL     1      17.046  44.582  45.508  1.00  0.00    -0.323 OA
HETATM   17  C   UNL     1      18.138  43.915  44.844  1.00  0.00     0.352 A 
BRANCH   6  18
HETATM   18  C   UNL     1      18.966  49.105  50.910  1.00  0.00     0.312 C 
HETATM   19  O   UNL     1      18.457  48.920  52.010  1.00  0.00    -0.258 OA
BRANCH  18  20
HETATM   20  O   UNL     1      19.686  50.193  50.529  1.00  0.00    -0.317 OA
BRANCH  20  21
HETATM   21  C   UNL     1      19.057  51.070  49.582  1.00  0.00     0.175 C 
HETATM   22  C   UNL     1      20.083  51.593  48.598  1.00  0.00     0.034 C 
ENDBRANCH  20  21
ENDBRANCH  18  20
ENDBRANCH   6  18
ENDBRANCH   1   5
BRANCH   2  23
HETATM   23  C   UNL     1      23.683  48.206  49.200  1.00  0.00     0.337 C 
BRANCH  23  24
HETATM   24  N   UNL     1      24.040  46.980  50.059  1.00  0.00    -0.060 N 
HETATM   25  H   UNL     1      23.271  46.837  50.722  1.00  0.00     0.280 HD
HETATM   26  C   UNL     1      24.148  45.687  49.234  1.00  0.00     0.255 C 
HETATM   27  C   UNL     1      24.511  44.483  50.129  1.00  0.00     0.150 C 
HETATM   28  N   UNL     1      25.726  44.786  50.906  1.00  0.00    -0.378 N 
HETATM   29  C   UNL     1      25.632  45.976  51.764  1.00  0.00     0.150 C 
HETATM   30  C   UNL     1      25.302  47.211  50.898  1.00  0.00     0.255 C 
BRANCH  28  31
HETATM   31  C   UNL     1      26.515  43.709  51.300  1.00  0.00     0.030 A 
HETATM   32  C   UNL     1      27.577  43.916  52.196  1.00  0.00     0.045 A 
HETATM   33  C   UNL     1      28.379  42.861  52.671  1.00  0.00     0.050 A 
HETATM   34  C   UNL     1      28.101  41.559  52.245  1.00  0.00     0.016 A 
HETATM   35  C   UNL     1      27.052  41.326  51.361  1.00  0.00     0.003 A 
HETATM   36  C   UNL     1      26.270  42.389  50.898  1.00  0.00     0.029 A 
BRANCH  33  37
HETATM   37  C   UNL     1      29.485  43.122  53.663  1.00  0.00     0.417 C 
HETATM   38  F   UNL     1      29.481  44.399  54.142  1.00  0.00    -0.166 F 
HETATM   39  F   UNL     1      29.405  42.312  54.754  1.00  0.00    -0.166 F 
HETATM   40  F   UNL     1      30.725  42.927  53.137  1.00  0.00    -0.166 F 
ENDBRANCH  33  37
ENDBRANCH  28  31
ENDBRANCH  23  24
ENDBRANCH   2  23
TORSDOF 8
ENDMDL
MODEL 7
REMARK VINA RESULT:      -9.3      1.654      3.256
REMARK  8 active torsions:
REMARK  status: ('A' for Active; 'I' for Inactive)
REMARK    1  A    between atoms: C_2  and  O_3 
REMARK    2  A    between atoms: O_3  and  C_4 
REMARK    3  A    between atoms: C_4  and  C_5 
REMARK    4  A    between atoms: C_10  and  N_11 
REMARK       I    between atoms: N_11  and  C_12 
REMARK    5  A    between atoms: C_12  and  C_13 
REMARK    6  A    between atoms: C_13  and  N_14 
REMARK    7  A    between atoms: N_18  and  C_19 
REMARK    8  A    between atoms: C_21  and  C_22 
ROOT
HETATM    1  N   UNL     1      22.741  48.202  49.576  1.00  0.00    -0.323 N 
HETATM    2  C   UNL     1      23.850  48.655  48.891  1.00  0.00     0.248 C 
HETATM    3  O   UNL     1      23.822  49.242  47.814  1.00  0.00    -0.271 OA
HETATM    4  H   UNL     1      22.765  48.164  50.595  1.00  0.00     0.169 HD
ENDROOT
BRANCH   1   5
HETATM    5  C   UNL     1      21.459  48.168  49.028  1.00  0.00     0.080 A 
HETATM    6  C   UNL     1      21.040  47.130  48.210  1.00  0.00     0.137 A 
HETATM    7  N   UNL     1      19.734  47.387  47.865  1.00  0.00    -0.349 N 
HETATM    8  H   UNL     1      19.167  46.777  47.288  1.00  0.00     0.166 HD
HETATM    9  C   UNL     1      19.304  48.574  48.407  1.00  0.00     0.048 A 
HETATM   10  C   UNL     1      20.378  49.108  49.136  1.00  0.00     0.023 A 
HETATM   11  C   UNL     1      18.052  49.202  48.296  1.00  0.00     0.070 A 
HETATM   12  C   UNL     1      20.207  50.372  49.751  1.00  0.00     0.055 A 
HETATM   13  C   UNL     1      18.971  50.980  49.641  1.00  0.00     0.106 A 
HETATM   14  C   UNL     1      17.934  50.415  48.947  1.00  0.00     0.107 A 
HETATM   15  O   UNL     1      18.639  52.180  50.191  1.00  0.00    -0.323 OA
HETATM   16  O   UNL     1      16.813  51.185  48.974  1.00  0.00    -0.323 OA
HETATM   17  C   UNL     1      17.257  52.287  49.792  1.00  0.00     0.352 A 
BRANCH   6  18
HETATM   18  C   UNL     1      21.771  45.950  47.820  1.00  0.00     0.312 C 
HETATM   19  O   UNL     1      22.639  45.940  46.954  1.00  0.00    -0.258 OA
BRANCH  18  20
HETATM   20  O   UNL     1      21.374  44.891  48.574  1.00  0.00    -0.317 OA
BRANCH  20  21
HETATM   21  C   UNL     1      22.298  43.796  48.667  1.00  0.00     0.175 C 
HETATM   22  C   UNL     1      22.900  43.740  50.056  1.00  0.00     0.034 C 
ENDBRANCH  20  21
ENDBRANCH  18  20
ENDBRANCH   6  18
ENDBRANCH   1   5
BRANCH   2  23
HETATM   23  C   UNL     1      25.181  48.391  49.610  1.00  0.00     0.337 C 
BRANCH  23  24
HETATM   24  N   UNL     1      25.313  47.015  50.287  1.00  0.00    -0.060 N 
HETATM   25  H   UNL     1      24.390  46.569  50.254  1.00  0.00     0.280 HD
HETATM   26  C   UNL     1      26.276  46.076  49.542  1.00  0.00     0.255 C 
HETATM   27  C   UNL     1      26.384  44.710  50.252  1.00  0.00     0.150 C 
HETATM   28  N   UNL     1      26.738  44.910  51.669  1.00  0.00    -0.378 N 
HETATM   29  C   UNL     1      25.798  45.744  52.431  1.00  0.00     0.150 C 
HETATM   30  C   UNL     1      25.688  47.135  51.769  1.00  0.00     0.255 C 
BRANCH  28  31
HETATM   31  C   UNL     1      27.422  43.878  52.306  1.00  0.00     0.030 A 
HETATM   32  C   UNL     1      28.358  44.180  53.309  1.00  0.00     0.045 A 
HETATM   33  C   UNL     1      29.045  43.181  54.025  1.00  0.00     0.050 A 
HETATM   34  C   UNL     1      28.775  41.840  53.735  1.00  0.00     0.016 A 
HETATM   35  C   UNL     1      27.850  41.513  52.749  1.00  0.00     0.003 A 
HETATM   36  C   UNL     1      27.181  42.523  52.047  1.00  0.00     0.029 A 
BRANCH  33  37
HETATM   37  C   UNL     1      30.013  43.548  55.121  1.00  0.00     0.417 C 
HETATM   38  F   UNL     1      29.565  44.566  55.909  1.00  0.00    -0.166 F 
HETATM   39  F   UNL     1      30.264  42.507  55.961  1.00  0.00    -0.166 F 
HETATM   40  F   UNL     1      31.223  43.950  54.645  1.00  0.00    -0.166 F 
ENDBRANCH  33  37
ENDBRANCH  28  31
ENDBRANCH  23  24
ENDBRANCH   2  23
TORSDOF 8
ENDMDL
MODEL 8
REMARK VINA RESULT:      -9.1      4.694      8.222
REMARK  8 active torsions:
REMARK  status: ('A' for Active; 'I' for Inactive)
REMARK    1  A    between atoms: C_2  and  O_3 
REMARK    2  A    between atoms: O_3  and  C_4 
REMARK    3  A    between atoms: C_4  and  C_5 
REMARK    4  A    between atoms: C_10  and  N_11 
REMARK       I    between atoms: N_11  and  C_12 
REMARK    5  A    between atoms: C_12  and  C_13 
REMARK    6  A    between atoms: C_13  and  N_14 
REMARK    7  A    between atoms: N_18  and  C_19 
REMARK    8  A    between atoms: C_21  and  C_22 
ROOT
HETATM    1  N   UNL     1      24.074  42.878  49.798  1.00  0.00    -0.323 N 
HETATM    2  C   UNL     1      24.769  44.069  49.849  1.00  0.00     0.248 C 
HETATM    3  O   UNL     1      25.689  44.382  49.099  1.00  0.00    -0.271 OA
HETATM    4  H   UNL     1      23.096  42.859  50.083  1.00  0.00     0.169 HD
ENDROOT
BRANCH   1   5
HETATM    5  C   UNL     1      24.469  41.790  49.019  1.00  0.00     0.080 A 
HETATM    6  C   UNL     1      23.734  41.371  47.921  1.00  0.00     0.137 A 
HETATM    7  N   UNL     1      24.401  40.305  47.367  1.00  0.00    -0.349 N 
HETATM    8  H   UNL     1      24.099  39.814  46.535  1.00  0.00     0.166 HD
HETATM    9  C   UNL     1      25.530  40.000  48.090  1.00  0.00     0.048 A 
HETATM   10  C   UNL     1      25.595  40.910  49.157  1.00  0.00     0.023 A 
HETATM   11  C   UNL     1      26.481  38.988  47.873  1.00  0.00     0.070 A 
HETATM   12  C   UNL     1      26.648  40.768  50.094  1.00  0.00     0.055 A 
HETATM   13  C   UNL     1      27.581  39.775  49.869  1.00  0.00     0.106 A 
HETATM   14  C   UNL     1      27.503  38.923  48.798  1.00  0.00     0.107 A 
HETATM   15  O   UNL     1      28.660  39.523  50.660  1.00  0.00    -0.323 OA
HETATM   16  O   UNL     1      28.529  38.028  48.774  1.00  0.00    -0.323 OA
HETATM   17  C   UNL     1      29.276  38.436  49.939  1.00  0.00     0.352 A 
BRANCH   6  18
HETATM   18  C   UNL     1      22.528  41.949  47.381  1.00  0.00     0.312 C 
HETATM   19  O   UNL     1      21.926  42.883  47.899  1.00  0.00    -0.258 OA
BRANCH  18  20
HETATM   20  O   UNL     1      22.200  41.327  46.217  1.00  0.00    -0.317 OA
BRANCH  20  21
HETATM   21  C   UNL     1      20.888  40.747  46.155  1.00  0.00     0.175 C 
HETATM   22  C   UNL     1      20.869  39.425  46.894  1.00  0.00     0.034 C 
ENDBRANCH  20  21
ENDBRANCH  18  20
ENDBRANCH   6  18
ENDBRANCH   1   5
BRANCH   2  23
HETATM   23  C   UNL     1      24.277  45.035  50.937  1.00  0.00     0.337 C 
BRANCH  23  24
HETATM   24  N   UNL     1      25.079  45.025  52.250  1.00  0.00    -0.060 N 
HETATM   25  H   UNL     1      24.427  45.253  53.008  1.00  0.00     0.280 HD
HETATM   26  C   UNL     1      25.661  43.640  52.580  1.00  0.00     0.255 C 
HETATM   27  C   UNL     1      26.462  43.671  53.900  1.00  0.00     0.150 C 
HETATM   28  N   UNL     1      27.478  44.737  53.843  1.00  0.00    -0.378 N 
HETATM   29  C   UNL     1      26.948  46.087  53.602  1.00  0.00     0.150 C 
HETATM   30  C   UNL     1      26.168  46.105  52.270  1.00  0.00     0.255 C 
BRANCH  28  31
HETATM   31  C   UNL     1      28.620  44.570  54.622  1.00  0.00     0.030 A 
HETATM   32  C   UNL     1      28.748  45.281  55.828  1.00  0.00     0.045 A 
HETATM   33  C   UNL     1      29.854  45.118  56.684  1.00  0.00     0.050 A 
HETATM   34  C   UNL     1      30.852  44.207  56.328  1.00  0.00     0.016 A 
HETATM   35  C   UNL     1      30.748  43.488  55.142  1.00  0.00     0.003 A 
HETATM   36  C   UNL     1      29.642  43.668  54.303  1.00  0.00     0.029 A 
BRANCH  33  37
HETATM   37  C   UNL     1      29.934  45.871  57.988  1.00  0.00     0.417 C 
HETATM   38  F   UNL     1      31.014  46.700  58.059  1.00  0.00    -0.166 F 
HETATM   39  F   UNL     1      28.844  46.657  58.201  1.00  0.00    -0.166 F 
HETATM   40  F   UNL     1      30.025  45.049  59.069  1.00  0.00    -0.166 F 
ENDBRANCH  33  37
ENDBRANCH  28  31
ENDBRANCH  23  24
ENDBRANCH   2  23
TORSDOF 8
ENDMDL
MODEL 9
REMARK VINA RESULT:      -9.1      5.745     10.876
REMARK  8 active torsions:
REMARK  status: ('A' for Active; 'I' for Inactive)
REMARK    1  A    between atoms: C_2  and  O_3 
REMARK    2  A    between atoms: O_3  and  C_4 
REMARK    3  A    between atoms: C_4  and  C_5 
REMARK    4  A    between atoms: C_10  and  N_11 
REMARK       I    between atoms: N_11  and  C_12 
REMARK    5  A    between atoms: C_12  and  C_13 
REMARK    6  A    between atoms: C_13  and  N_14 
REMARK    7  A    between atoms: N_18  and  C_19 
REMARK    8  A    between atoms: C_21  and  C_22 
ROOT
HETATM    1  N   UNL     1      25.145  44.862  49.603  1.00  0.00    -0.323 N 
HETATM    2  C   UNL     1      23.786  44.786  49.825  1.00  0.00     0.248 C 
HETATM    3  O   UNL     1      23.259  44.286  50.815  1.00  0.00    -0.271 OA
HETATM    4  H   UNL     1      25.521  45.643  49.066  1.00  0.00     0.169 HD
ENDROOT
BRANCH   1   5
HETATM    5  C   UNL     1      26.090  44.189  50.379  1.00  0.00     0.080 A 
HETATM    6  C   UNL     1      26.635  42.978  49.982  1.00  0.00     0.137 A 
HETATM    7  N   UNL     1      27.539  42.603  50.946  1.00  0.00    -0.349 N 
HETATM    8  H   UNL     1      28.105  41.764  50.902  1.00  0.00     0.166 HD
HETATM    9  C   UNL     1      27.574  43.517  51.973  1.00  0.00     0.048 A 
HETATM   10  C   UNL     1      26.653  44.527  51.656  1.00  0.00     0.023 A 
HETATM   11  C   UNL     1      28.348  43.510  53.145  1.00  0.00     0.070 A 
HETATM   12  C   UNL     1      26.456  45.571  52.593  1.00  0.00     0.055 A 
HETATM   13  C   UNL     1      27.226  45.559  53.741  1.00  0.00     0.106 A 
HETATM   14  C   UNL     1      28.138  44.572  54.003  1.00  0.00     0.107 A 
HETATM   15  O   UNL     1      27.173  46.498  54.726  1.00  0.00    -0.323 OA
HETATM   16  O   UNL     1      28.783  44.765  55.186  1.00  0.00    -0.323 OA
HETATM   17  C   UNL     1      28.189  46.004  55.623  1.00  0.00     0.352 A 
BRANCH   6  18
HETATM   18  C   UNL     1      26.386  42.243  48.766  1.00  0.00     0.312 C 
HETATM   19  O   UNL     1      25.286  42.161  48.231  1.00  0.00    -0.258 OA
BRANCH  18  20
HETATM   20  O   UNL     1      27.546  41.702  48.308  1.00  0.00    -0.317 OA
BRANCH  20  21
HETATM   21  C   UNL     1      27.594  40.269  48.238  1.00  0.00     0.175 C 
HETATM   22  C   UNL     1      28.972  39.776  48.630  1.00  0.00     0.034 C 
ENDBRANCH  20  21
ENDBRANCH  18  20
ENDBRANCH   6  18
ENDBRANCH   1   5
BRANCH   2  23
HETATM   23  C   UNL     1      22.934  45.424  48.717  1.00  0.00     0.337 C 
BRANCH  23  24
HETATM   24  N   UNL     1      22.004  46.566  49.166  1.00  0.00    -0.060 N 
HETATM   25  H   UNL     1      21.870  46.471  50.178  1.00  0.00     0.280 HD
HETATM   26  C   UNL     1      22.618  47.957  48.937  1.00  0.00     0.255 C 
HETATM   27  C   UNL     1      21.654  49.073  49.394  1.00  0.00     0.150 C 
HETATM   28  N   UNL     1      20.342  48.897  48.747  1.00  0.00    -0.378 N 
HETATM   29  C   UNL     1      19.692  47.604  49.005  1.00  0.00     0.150 C 
HETATM   30  C   UNL     1      20.613  46.460  48.529  1.00  0.00     0.255 C 
BRANCH  28  31
HETATM   31  C   UNL     1      19.565  50.038  48.562  1.00  0.00     0.030 A 
HETATM   32  C   UNL     1      18.166  49.924  48.500  1.00  0.00     0.045 A 
HETATM   33  C   UNL     1      17.324  51.044  48.365  1.00  0.00     0.050 A 
HETATM   34  C   UNL     1      17.900  52.316  48.302  1.00  0.00     0.016 A 
HETATM   35  C   UNL     1      19.283  52.457  48.364  1.00  0.00     0.003 A 
HETATM   36  C   UNL     1      20.102  51.330  48.495  1.00  0.00     0.029 A 
BRANCH  33  37
HETATM   37  C   UNL     1      15.825  50.880  48.342  1.00  0.00     0.417 C 
HETATM   38  F   UNL     1      15.429  49.579  48.435  1.00  0.00    -0.166 F 
HETATM   39  F   UNL     1      15.217  51.531  49.372  1.00  0.00    -0.166 F 
HETATM   40  F   UNL     1      15.258  51.361  47.203  1.00  0.00    -0.166 F 
ENDBRANCH  33  37
ENDBRANCH  28  31
ENDBRANCH  23  24
ENDBRANCH   2  23
TORSDOF 8
ENDMDL
MODEL 10
REMARK VINA RESULT:      -9.0      4.938      9.827
REMARK  8 active torsions:
REMARK  status: ('A' for Active; 'I' for Inactive)
REMARK    1  A    between atoms: C_2  and  O_3 
REMARK    2  A    between atoms: O_3  and  C_4 
REMARK    3  A    between atoms: C_4  and  C_5 
REMARK    4  A    between atoms: C_10  and  N_11 
REMARK       I    between atoms: N_11  and  C_12 
REMARK    5  A    between atoms: C_12  and  C_13 
REMARK    6  A    between atoms: C_13  and  N_14 
REMARK    7  A    between atoms: N_18  and  C_19 
REMARK    8  A    between atoms: C_21  and  C_22 
ROOT
HETATM    1  N   UNL     1      25.254  44.056  49.972  1.00  0.00    -0.323 N 
HETATM    2  C   UNL     1      23.903  43.802  49.852  1.00  0.00     0.248 C 
HETATM    3  O   UNL     1      23.129  43.645  50.792  1.00  0.00    -0.271 OA
HETATM    4  H   UNL     1      25.722  44.613  49.258  1.00  0.00     0.169 HD
ENDROOT
BRANCH   1   5
HETATM    5  C   UNL     1      25.951  43.959  51.176  1.00  0.00     0.080 A 
HETATM    6  C   UNL     1      26.614  42.799  51.547  1.00  0.00     0.137 A 
HETATM    7  N   UNL     1      27.212  43.042  52.760  1.00  0.00    -0.349 N 
HETATM    8  H   UNL     1      27.785  42.372  53.258  1.00  0.00     0.166 HD
HETATM    9  C   UNL     1      26.932  44.314  53.202  1.00  0.00     0.048 A 
HETATM   10  C   UNL     1      26.118  44.918  52.232  1.00  0.00     0.023 A 
HETATM   11  C   UNL     1      27.338  44.954  54.385  1.00  0.00     0.070 A 
HETATM   12  C   UNL     1      25.639  46.227  52.482  1.00  0.00     0.055 A 
HETATM   13  C   UNL     1      26.048  46.852  53.644  1.00  0.00     0.106 A 
HETATM   14  C   UNL     1      26.869  46.242  54.556  1.00  0.00     0.107 A 
HETATM   15  O   UNL     1      25.696  48.112  54.019  1.00  0.00    -0.323 OA
HETATM   16  O   UNL     1      27.144  47.043  55.621  1.00  0.00    -0.323 OA
HETATM   17  C   UNL     1      26.423  48.239  55.258  1.00  0.00     0.352 A 
BRANCH   6  18
HETATM   18  C   UNL     1      26.738  41.567  50.808  1.00  0.00     0.312 C 
HETATM   19  O   UNL     1      25.784  40.891  50.440  1.00  0.00    -0.258 OA
BRANCH  18  20
HETATM   20  O   UNL     1      28.050  41.307  50.563  1.00  0.00    -0.317 OA
BRANCH  20  21
HETATM   21  C   UNL     1      28.394  39.930  50.344  1.00  0.00     0.175 C 
HETATM   22  C   UNL     1      28.817  39.723  48.904  1.00  0.00     0.034 C 
ENDBRANCH  20  21
ENDBRANCH  18  20
ENDBRANCH   6  18
ENDBRANCH   1   5
BRANCH   2  23
HETATM   23  C   UNL     1      23.401  43.753  48.401  1.00  0.00     0.337 C 
BRANCH  23  24
HETATM   24  N   UNL     1      22.480  44.910  47.976  1.00  0.00    -0.060 N 
HETATM   25  H   UNL     1      22.630  45.068  46.974  1.00  0.00     0.280 HD
HETATM   26  C   UNL     1      20.989  44.576  48.145  1.00  0.00     0.255 C 
HETATM   27  C   UNL     1      20.099  45.762  47.714  1.00  0.00     0.150 C 
HETATM   28  N   UNL     1      20.512  46.983  48.428  1.00  0.00    -0.378 N 
HETATM   29  C   UNL     1      21.915  47.373  48.229  1.00  0.00     0.150 C 
HETATM   30  C   UNL     1      22.839  46.223  48.683  1.00  0.00     0.255 C 
BRANCH  28  31
HETATM   31  C   UNL     1      19.542  47.962  48.628  1.00  0.00     0.030 A 
HETATM   32  C   UNL     1      19.928  49.249  49.038  1.00  0.00     0.045 A 
HETATM   33  C   UNL     1      19.002  50.295  49.208  1.00  0.00     0.050 A 
HETATM   34  C   UNL     1      17.651  50.047  48.948  1.00  0.00     0.016 A 
HETATM   35  C   UNL     1      17.242  48.783  48.537  1.00  0.00     0.003 A 
HETATM   36  C   UNL     1      18.179  47.756  48.377  1.00  0.00     0.029 A 
BRANCH  33  37
HETATM   37  C   UNL     1      19.463  51.674  49.612  1.00  0.00     0.417 C 
HETATM   38  F   UNL     1      18.480  52.414  50.198  1.00  0.00    -0.166 F 
HETATM   39  F   UNL     1      20.488  51.635  50.507  1.00  0.00    -0.166 F 
HETATM   40  F   UNL     1      19.907  52.412  48.559  1.00  0.00    -0.166 F 
ENDBRANCH  33  37
ENDBRANCH  28  31
ENDBRANCH  23  24
ENDBRANCH   2  23
TORSDOF 8
ENDMDL
