MODEL 1
REMARK VINA RESULT:     -10.4      0.000      0.000
REMARK  7 active torsions:
REMARK  status: ('A' for Active; 'I' for Inactive)
REMARK    1  A    between atoms: O_2  and  C_3 
REMARK    2  A    between atoms: C_5  and  C_6 
REMARK       I    between atoms: C_6  and  N_7 
REMARK    3  A    between atoms: N_7  and  C_8 
REMARK    4  A    between atoms: C_8  and  N_9 
REMARK    5  A    between atoms: N_9  and  C_10 
REMARK    6  A    between atoms: C_13  and  N_14 
REMARK       I    between atoms: N_17  and  C_18 
REMARK    7  A    between atoms: C_18  and  C_19 
ROOT
HETATM    1  C   UNL     1      23.119  45.336  49.528  1.00  0.00     0.034 A 
HETATM    2  C   UNL     1      24.206  46.181  49.737  1.00  0.00     0.032 A 
HETATM    3  C   UNL     1      25.324  45.750  50.467  1.00  0.00     0.031 A 
HETATM    4  C   UNL     1      25.397  44.467  51.032  1.00  0.00     0.030 A 
HETATM    5  C   UNL     1      24.288  43.633  50.800  1.00  0.00     0.031 A 
HETATM    6  C   UNL     1      23.173  44.048  50.049  1.00  0.00     0.032 A 
ENDROOT
BRANCH   1   7
HETATM    7  N   UNL     1      21.974  45.889  48.908  1.00  0.00    -0.333 N 
HETATM    8  H   UNL     1      21.108  45.679  49.391  1.00  0.00     0.168 HD
BRANCH   7   9
HETATM    9  C   UNL     1      21.813  46.234  47.610  1.00  0.00     0.179 C 
HETATM   10  S   UNL     1      22.045  45.082  46.418  1.00  0.00    -0.040 SA
BRANCH   9  11
HETATM   11  N   UNL     1      21.393  47.475  47.240  1.00  0.00    -0.299 N 
HETATM   12  C   UNL     1      21.946  48.617  47.807  1.00  0.00     0.257 C 
HETATM   13  O   UNL     1      23.136  48.911  47.750  1.00  0.00    -0.267 OA
HETATM   14  H   UNL     1      20.387  47.478  47.184  1.00  0.00     0.171 HD
BRANCH  12  15
HETATM   15  C   UNL     1      20.995  49.589  48.449  1.00  0.00     0.035 A 
HETATM   16  C   UNL     1      20.180  49.268  49.545  1.00  0.00     0.053 A 
HETATM   17  C   UNL     1      19.335  50.227  50.120  1.00  0.00     0.069 A 
HETATM   18  C   UNL     1      19.320  51.525  49.615  1.00  0.00     0.037 A 
HETATM   19  C   UNL     1      20.141  51.863  48.538  1.00  0.00     0.004 A 
HETATM   20  C   UNL     1      20.970  50.902  47.959  1.00  0.00     0.017 A 
BRANCH  17  21
HETATM   21  O   UNL     1      18.588  49.764  51.169  1.00  0.00    -0.356 OA
HETATM   22  C   UNL     1      18.469  48.352  51.306  1.00  0.00     0.210 C 
ENDBRANCH  17  21
ENDBRANCH  12  15
ENDBRANCH   9  11
ENDBRANCH   7   9
ENDBRANCH   1   7
BRANCH   4  23
HETATM   23  N   UNL     1      26.459  44.049  51.853  1.00  0.00    -0.378 N 
HETATM   24  C   UNL     1      26.570  44.636  53.210  1.00  0.00     0.143 C 
HETATM   25  C   UNL     1      27.573  43.861  54.084  1.00  0.00     0.146 C 
HETATM   26  N   UNL     1      28.871  43.667  53.425  1.00  0.00    -0.345 N 
HETATM   27  C   UNL     1      30.028  43.360  54.142  1.00  0.00     0.253 C 
HETATM   28  C   UNL     1      28.760  43.108  52.077  1.00  0.00     0.146 C 
HETATM   29  O   UNL     1      30.920  42.635  53.706  1.00  0.00    -0.267 OA
HETATM   30  C   UNL     1      27.778  43.892  51.187  1.00  0.00     0.143 C 
BRANCH  27  31
HETATM   31  C   UNL     1      30.228  43.972  55.478  1.00  0.00     0.032 A 
HETATM   32  C   UNL     1      31.091  43.353  56.387  1.00  0.00     0.017 A 
HETATM   33  C   UNL     1      31.329  43.943  57.630  1.00  0.00     0.001 A 
HETATM   34  C   UNL     1      30.716  45.154  57.956  1.00  0.00     0.000 A 
HETATM   35  C   UNL     1      29.873  45.784  57.040  1.00  0.00     0.001 A 
HETATM   36  C   UNL     1      29.633  45.199  55.795  1.00  0.00     0.017 A 
ENDBRANCH  27  31
ENDBRANCH   4  23
TORSDOF 7
ENDMDL
MODEL 2
REMARK VINA RESULT:     -10.2      1.762      2.225
REMARK  7 active torsions:
REMARK  status: ('A' for Active; 'I' for Inactive)
REMARK    1  A    between atoms: O_2  and  C_3 
REMARK    2  A    between atoms: C_5  and  C_6 
REMARK       I    between atoms: C_6  and  N_7 
REMARK    3  A    between atoms: N_7  and  C_8 
REMARK    4  A    between atoms: C_8  and  N_9 
REMARK    5  A    between atoms: N_9  and  C_10 
REMARK    6  A    between atoms: C_13  and  N_14 
REMARK       I    between atoms: N_17  and  C_18 
REMARK    7  A    between atoms: C_18  and  C_19 
ROOT
HETATM    1  C   UNL     1      23.607  46.953  49.555  1.00  0.00     0.034 A 
HETATM    2  C   UNL     1      24.492  47.678  50.350  1.00  0.00     0.032 A 
HETATM    3  C   UNL     1      25.495  47.029  51.087  1.00  0.00     0.031 A 
HETATM    4  C   UNL     1      25.646  45.634  51.074  1.00  0.00     0.030 A 
HETATM    5  C   UNL     1      24.742  44.929  50.258  1.00  0.00     0.031 A 
HETATM    6  C   UNL     1      23.749  45.571  49.498  1.00  0.00     0.032 A 
ENDROOT
BRANCH   1   7
HETATM    7  N   UNL     1      22.537  47.662  48.960  1.00  0.00    -0.333 N 
HETATM    8  H   UNL     1      22.066  47.147  48.225  1.00  0.00     0.168 HD
BRANCH   7   9
HETATM    9  C   UNL     1      22.355  49.002  48.901  1.00  0.00     0.179 C 
HETATM   10  S   UNL     1      23.179  49.894  47.749  1.00  0.00    -0.040 SA
BRANCH   9  11
HETATM   11  N   UNL     1      21.461  49.645  49.702  1.00  0.00    -0.299 N 
HETATM   12  C   UNL     1      20.097  49.409  49.584  1.00  0.00     0.257 C 
HETATM   13  O   UNL     1      19.569  48.311  49.733  1.00  0.00    -0.267 OA
HETATM   14  H   UNL     1      21.716  50.617  49.765  1.00  0.00     0.171 HD
BRANCH  12  15
HETATM   15  C   UNL     1      19.215  50.604  49.349  1.00  0.00     0.035 A 
HETATM   16  C   UNL     1      17.980  50.796  49.987  1.00  0.00     0.053 A 
HETATM   17  C   UNL     1      17.217  51.947  49.749  1.00  0.00     0.069 A 
HETATM   18  C   UNL     1      17.699  52.929  48.886  1.00  0.00     0.037 A 
HETATM   19  C   UNL     1      18.935  52.760  48.261  1.00  0.00     0.004 A 
HETATM   20  C   UNL     1      19.686  51.606  48.488  1.00  0.00     0.017 A 
BRANCH  17  21
HETATM   21  O   UNL     1      16.030  51.986  50.428  1.00  0.00    -0.356 OA
HETATM   22  C   UNL     1      15.152  53.067  50.134  1.00  0.00     0.210 C 
ENDBRANCH  17  21
ENDBRANCH  12  15
ENDBRANCH   9  11
ENDBRANCH   7   9
ENDBRANCH   1   7
BRANCH   4  23
HETATM   23  N   UNL     1      26.575  44.955  51.882  1.00  0.00    -0.378 N 
HETATM   24  C   UNL     1      26.849  45.489  53.237  1.00  0.00     0.143 C 
HETATM   25  C   UNL     1      27.630  44.480  54.099  1.00  0.00     0.146 C 
HETATM   26  N   UNL     1      28.827  43.962  53.424  1.00  0.00    -0.345 N 
HETATM   27  C   UNL     1      29.875  43.367  54.127  1.00  0.00     0.253 C 
HETATM   28  C   UNL     1      28.561  43.455  52.077  1.00  0.00     0.146 C 
HETATM   29  O   UNL     1      30.546  42.439  53.679  1.00  0.00    -0.267 OA
HETATM   30  C   UNL     1      27.802  44.468  51.200  1.00  0.00     0.143 C 
BRANCH  27  31
HETATM   31  C   UNL     1      30.240  43.902  55.460  1.00  0.00     0.032 A 
HETATM   32  C   UNL     1      31.075  43.148  56.291  1.00  0.00     0.017 A 
HETATM   33  C   UNL     1      31.468  43.660  57.529  1.00  0.00     0.001 A 
HETATM   34  C   UNL     1      31.040  44.927  57.927  1.00  0.00     0.000 A 
HETATM   35  C   UNL     1      30.227  45.690  57.089  1.00  0.00     0.001 A 
HETATM   36  C   UNL     1      29.832  45.184  55.850  1.00  0.00     0.017 A 
ENDBRANCH  27  31
ENDBRANCH   4  23
TORSDOF 7
ENDMDL
MODEL 3
REMARK VINA RESULT:     -10.1      2.624     11.540
REMARK  7 active torsions:
REMARK  status: ('A' for Active; 'I' for Inactive)
REMARK    1  A    between atoms: O_2  and  C_3 
REMARK    2  A    between atoms: C_5  and  C_6 
REMARK       I    between atoms: C_6  and  N_7 
REMARK    3  A    between atoms: N_7  and  C_8 
REMARK    4  A    between atoms: C_8  and  N_9 
REMARK    5  A    between atoms: N_9  and  C_10 
REMARK    6  A    between atoms: C_13  and  N_14 
REMARK       I    between atoms: N_17  and  C_18 
REMARK    7  A    between atoms: C_18  and  C_19 
ROOT
HETATM    1  C   UNL     1      26.291  45.801  49.872  1.00  0.00     0.034 A 
HETATM    2  C   UNL     1      25.022  45.284  49.621  1.00  0.00     0.032 A 
HETATM    3  C   UNL     1      23.928  46.135  49.400  1.00  0.00     0.031 A 
HETATM    4  C   UNL     1      24.051  47.532  49.439  1.00  0.00     0.030 A 
HETATM    5  C   UNL     1      25.344  48.026  49.688  1.00  0.00     0.031 A 
HETATM    6  C   UNL     1      26.451  47.182  49.887  1.00  0.00     0.032 A 
ENDROOT
BRANCH   1   7
HETATM    7  N   UNL     1      27.309  44.885  50.226  1.00  0.00    -0.333 N 
HETATM    8  H   UNL     1      28.188  45.049  49.749  1.00  0.00     0.168 HD
BRANCH   7   9
HETATM    9  C   UNL     1      27.169  43.630  50.712  1.00  0.00     0.179 C 
HETATM   10  S   UNL     1      27.003  42.349  49.647  1.00  0.00    -0.040 SA
BRANCH   9  11
HETATM   11  N   UNL     1      27.236  43.360  52.046  1.00  0.00    -0.299 N 
HETATM   12  C   UNL     1      27.333  44.386  52.978  1.00  0.00     0.257 C 
HETATM   13  O   UNL     1      26.502  45.279  53.114  1.00  0.00    -0.267 OA
HETATM   14  H   UNL     1      27.872  42.594  52.194  1.00  0.00     0.171 HD
BRANCH  12  15
HETATM   15  C   UNL     1      28.491  44.330  53.936  1.00  0.00     0.035 A 
HETATM   16  C   UNL     1      28.667  45.233  54.994  1.00  0.00     0.053 A 
HETATM   17  C   UNL     1      29.753  45.110  55.873  1.00  0.00     0.069 A 
HETATM   18  C   UNL     1      30.658  44.064  55.710  1.00  0.00     0.037 A 
HETATM   19  C   UNL     1      30.483  43.147  54.672  1.00  0.00     0.004 A 
HETATM   20  C   UNL     1      29.410  43.280  53.791  1.00  0.00     0.017 A 
BRANCH  17  21
HETATM   21  O   UNL     1      29.803  46.072  56.845  1.00  0.00    -0.356 OA
HETATM   22  C   UNL     1      30.416  45.716  58.078  1.00  0.00     0.210 C 
ENDBRANCH  17  21
ENDBRANCH  12  15
ENDBRANCH   9  11
ENDBRANCH   7   9
ENDBRANCH   1   7
BRANCH   4  23
HETATM   23  N   UNL     1      22.952  48.402  49.324  1.00  0.00    -0.378 N 
HETATM   24  C   UNL     1      21.705  47.882  48.716  1.00  0.00     0.143 C 
HETATM   25  C   UNL     1      20.518  48.836  48.946  1.00  0.00     0.146 C 
HETATM   26  N   UNL     1      20.819  50.220  48.562  1.00  0.00    -0.345 N 
HETATM   27  C   UNL     1      19.814  51.155  48.308  1.00  0.00     0.253 C 
HETATM   28  C   UNL     1      22.063  50.728  49.145  1.00  0.00     0.146 C 
HETATM   29  O   UNL     1      19.921  52.350  48.575  1.00  0.00    -0.267 OA
HETATM   30  C   UNL     1      23.260  49.792  48.898  1.00  0.00     0.143 C 
BRANCH  27  31
HETATM   31  C   UNL     1      18.570  50.705  47.639  1.00  0.00     0.032 A 
HETATM   32  C   UNL     1      17.392  50.609  48.387  1.00  0.00     0.017 A 
HETATM   33  C   UNL     1      16.201  50.236  47.762  1.00  0.00     0.001 A 
HETATM   34  C   UNL     1      16.186  49.974  46.391  1.00  0.00     0.000 A 
HETATM   35  C   UNL     1      17.355  50.093  45.640  1.00  0.00     0.001 A 
HETATM   36  C   UNL     1      18.548  50.467  46.260  1.00  0.00     0.017 A 
ENDBRANCH  27  31
ENDBRANCH   4  23
TORSDOF 7
ENDMDL
MODEL 4
REMARK VINA RESULT:      -9.9      2.334     10.872
REMARK  7 active torsions:
REMARK  status: ('A' for Active; 'I' for Inactive)
REMARK    1  A    between atoms: O_2  and  C_3 
REMARK    2  A    between atoms: C_5  and  C_6 
REMARK       I    between atoms: C_6  and  N_7 
REMARK    3  A    between atoms: N_7  and  C_8 
REMARK    4  A    between atoms: C_8  and  N_9 
REMARK    5  A    between atoms: N_9  and  C_10 
REMARK    6  A    between atoms: C_13  and  N_14 
REMARK       I    between atoms: N_17  and  C_18 
REMARK    7  A    between atoms: C_18  and  C_19 
ROOT
HETATM    1  C   UNL     1      25.993  42.434  50.410  1.00  0.00     0.034 A 
HETATM    2  C   UNL     1      24.881  42.077  49.650  1.00  0.00     0.032 A 
HETATM    3  C   UNL     1      24.085  43.055  49.035  1.00  0.00     0.031 A 
HETATM    4  C   UNL     1      24.354  44.426  49.165  1.00  0.00     0.030 A 
HETATM    5  C   UNL     1      25.486  44.756  49.932  1.00  0.00     0.031 A 
HETATM    6  C   UNL     1      26.303  43.783  50.533  1.00  0.00     0.032 A 
ENDROOT
BRANCH   1   7
HETATM    7  N   UNL     1      26.658  41.403  51.114  1.00  0.00    -0.333 N 
HETATM    8  H   UNL     1      26.240  41.187  52.012  1.00  0.00     0.168 HD
BRANCH   7   9
HETATM    9  C   UNL     1      27.948  41.010  50.996  1.00  0.00     0.179 C 
HETATM   10  S   UNL     1      28.409  40.089  49.676  1.00  0.00    -0.040 SA
BRANCH   9  11
HETATM   11  N   UNL     1      28.907  41.405  51.879  1.00  0.00    -0.299 N 
HETATM   12  C   UNL     1      28.673  41.376  53.248  1.00  0.00     0.257 C 
HETATM   13  O   UNL     1      28.387  40.365  53.881  1.00  0.00    -0.267 OA
HETATM   14  H   UNL     1      29.335  42.252  51.542  1.00  0.00     0.171 HD
BRANCH  12  15
HETATM   15  C   UNL     1      28.877  42.661  54.002  1.00  0.00     0.035 A 
HETATM   16  C   UNL     1      30.031  42.950  54.746  1.00  0.00     0.053 A 
HETATM   17  C   UNL     1      30.177  44.180  55.402  1.00  0.00     0.069 A 
HETATM   18  C   UNL     1      29.174  45.141  55.298  1.00  0.00     0.037 A 
HETATM   19  C   UNL     1      28.030  44.874  54.545  1.00  0.00     0.004 A 
HETATM   20  C   UNL     1      27.881  43.644  53.904  1.00  0.00     0.017 A 
BRANCH  17  21
HETATM   21  O   UNL     1      31.346  44.310  56.101  1.00  0.00    -0.356 OA
HETATM   22  C   UNL     1      31.618  43.332  57.098  1.00  0.00     0.210 C 
ENDBRANCH  17  21
ENDBRANCH  12  15
ENDBRANCH   9  11
ENDBRANCH   7   9
ENDBRANCH   1   7
BRANCH   4  23
HETATM   23  N   UNL     1      23.513  45.425  48.645  1.00  0.00    -0.378 N 
HETATM   24  C   UNL     1      23.301  46.652  49.448  1.00  0.00     0.143 C 
HETATM   25  C   UNL     1      22.627  47.764  48.623  1.00  0.00     0.146 C 
HETATM   26  N   UNL     1      21.416  47.304  47.932  1.00  0.00    -0.345 N 
HETATM   27  C   UNL     1      20.446  48.192  47.466  1.00  0.00     0.253 C 
HETATM   28  C   UNL     1      21.620  46.080  47.156  1.00  0.00     0.146 C 
HETATM   29  O   UNL     1      19.794  48.003  46.441  1.00  0.00    -0.267 OA
HETATM   30  C   UNL     1      22.270  44.954  47.980  1.00  0.00     0.143 C 
BRANCH  27  31
HETATM   31  C   UNL     1      20.141  49.405  48.264  1.00  0.00     0.032 A 
HETATM   32  C   UNL     1      20.438  50.662  47.729  1.00  0.00     0.017 A 
HETATM   33  C   UNL     1      20.112  51.815  48.446  1.00  0.00     0.001 A 
HETATM   34  C   UNL     1      19.479  51.710  49.685  1.00  0.00     0.000 A 
HETATM   35  C   UNL     1      19.161  50.457  50.208  1.00  0.00     0.001 A 
HETATM   36  C   UNL     1      19.483  49.301  49.495  1.00  0.00     0.017 A 
ENDBRANCH  27  31
ENDBRANCH   4  23
TORSDOF 7
ENDMDL
MODEL 5
REMARK VINA RESULT:      -9.9      2.235      2.685
REMARK  7 active torsions:
REMARK  status: ('A' for Active; 'I' for Inactive)
REMARK    1  A    between atoms: O_2  and  C_3 
REMARK    2  A    between atoms: C_5  and  C_6 
REMARK       I    between atoms: C_6  and  N_7 
REMARK    3  A    between atoms: N_7  and  C_8 
REMARK    4  A    between atoms: C_8  and  N_9 
REMARK    5  A    between atoms: N_9  and  C_10 
REMARK    6  A    between atoms: C_13  and  N_14 
REMARK       I    between atoms: N_17  and  C_18 
REMARK    7  A    between atoms: C_18  and  C_19 
ROOT
HETATM    1  C   UNL     1      23.495  47.193  49.229  1.00  0.00     0.034 A 
HETATM    2  C   UNL     1      24.516  47.872  49.890  1.00  0.00     0.032 A 
HETATM    3  C   UNL     1      25.484  47.175  50.630  1.00  0.00     0.031 A 
HETATM    4  C   UNL     1      25.463  45.777  50.755  1.00  0.00     0.030 A 
HETATM    5  C   UNL     1      24.425  45.118  50.072  1.00  0.00     0.031 A 
HETATM    6  C   UNL     1      23.465  45.805  49.308  1.00  0.00     0.032 A 
ENDROOT
BRANCH   1   7
HETATM    7  N   UNL     1      22.480  47.971  48.626  1.00  0.00    -0.333 N 
HETATM    8  H   UNL     1      22.578  48.062  47.622  1.00  0.00     0.168 HD
BRANCH   7   9
HETATM    9  C   UNL     1      21.716  48.933  49.197  1.00  0.00     0.179 C 
HETATM   10  S   UNL     1      22.243  50.521  49.174  1.00  0.00    -0.040 SA
BRANCH   9  11
HETATM   11  N   UNL     1      20.491  48.662  49.725  1.00  0.00    -0.299 N 
HETATM   12  C   UNL     1      19.600  47.820  49.071  1.00  0.00     0.257 C 
HETATM   13  O   UNL     1      19.833  46.647  48.795  1.00  0.00    -0.267 OA
HETATM   14  H   UNL     1      20.086  49.518  50.069  1.00  0.00     0.171 HD
BRANCH  12  15
HETATM   15  C   UNL     1      18.233  48.371  48.773  1.00  0.00     0.035 A 
HETATM   16  C   UNL     1      17.912  49.734  48.854  1.00  0.00     0.053 A 
HETATM   17  C   UNL     1      16.626  50.191  48.533  1.00  0.00     0.069 A 
HETATM   18  C   UNL     1      15.658  49.285  48.105  1.00  0.00     0.037 A 
HETATM   19  C   UNL     1      15.971  47.929  48.002  1.00  0.00     0.004 A 
HETATM   20  C   UNL     1      17.247  47.475  48.335  1.00  0.00     0.017 A 
BRANCH  17  21
HETATM   21  O   UNL     1      16.456  51.541  48.675  1.00  0.00    -0.356 OA
HETATM   22  C   UNL     1      17.102  52.163  49.780  1.00  0.00     0.210 C 
ENDBRANCH  17  21
ENDBRANCH  12  15
ENDBRANCH   9  11
ENDBRANCH   7   9
ENDBRANCH   1   7
BRANCH   4  23
HETATM   23  N   UNL     1      26.359  45.067  51.573  1.00  0.00    -0.378 N 
HETATM   24  C   UNL     1      26.664  45.611  52.917  1.00  0.00     0.143 C 
HETATM   25  C   UNL     1      27.395  44.580  53.797  1.00  0.00     0.146 C 
HETATM   26  N   UNL     1      28.562  43.989  53.129  1.00  0.00    -0.345 N 
HETATM   27  C   UNL     1      29.581  43.354  53.840  1.00  0.00     0.253 C 
HETATM   28  C   UNL     1      28.266  43.471  51.792  1.00  0.00     0.146 C 
HETATM   29  O   UNL     1      30.202  42.384  53.409  1.00  0.00    -0.267 OA
HETATM   30  C   UNL     1      27.557  44.505  50.897  1.00  0.00     0.143 C 
BRANCH  27  31
HETATM   31  C   UNL     1      29.976  43.894  55.163  1.00  0.00     0.032 A 
HETATM   32  C   UNL     1      30.886  43.177  55.946  1.00  0.00     0.017 A 
HETATM   33  C   UNL     1      31.308  43.697  57.171  1.00  0.00     0.001 A 
HETATM   34  C   UNL     1      30.832  44.935  57.604  1.00  0.00     0.000 A 
HETATM   35  C   UNL     1      29.943  45.663  56.812  1.00  0.00     0.001 A 
HETATM   36  C   UNL     1      29.519  45.148  55.585  1.00  0.00     0.017 A 
ENDBRANCH  27  31
ENDBRANCH   4  23
TORSDOF 7
ENDMDL
MODEL 6
REMARK VINA RESULT:      -9.5      1.614      2.376
REMARK  7 active torsions:
REMARK  status: ('A' for Active; 'I' for Inactive)
REMARK    1  A    between atoms: O_2  and  C_3 
REMARK    2  A    between atoms: C_5  and  C_6 
REMARK       I    between atoms: C_6  and  N_7 
REMARK    3  A    between atoms: N_7  and  C_8 
REMARK    4  A    between atoms: C_8  and  N_9 
REMARK    5  A    between atoms: N_9  and  C_10 
REMARK    6  A    between atoms: C_13  and  N_14 
REMARK       I    between atoms: N_17  and  C_18 
REMARK    7  A    between atoms: C_18  and  C_19 
ROOT
HETATM    1  C   UNL     1      22.654  44.130  49.818  1.00  0.00     0.034 A 
HETATM    2  C   UNL     1      23.459  45.186  50.239  1.00  0.00     0.032 A 
HETATM    3  C   UNL     1      24.667  44.948  50.912  1.00  0.00     0.031 A 
HETATM    4  C   UNL     1      25.114  43.651  51.207  1.00  0.00     0.030 A 
HETATM    5  C   UNL     1      24.284  42.604  50.764  1.00  0.00     0.031 A 
HETATM    6  C   UNL     1      23.084  42.832  50.069  1.00  0.00     0.032 A 
ENDROOT
BRANCH   1   7
HETATM    7  N   UNL     1      21.388  44.452  49.277  1.00  0.00    -0.333 N 
HETATM    8  H   UNL     1      20.706  43.706  49.364  1.00  0.00     0.168 HD
BRANCH   7   9
HETATM    9  C   UNL     1      21.098  45.357  48.314  1.00  0.00     0.179 C 
HETATM   10  S   UNL     1      21.136  44.889  46.707  1.00  0.00    -0.040 SA
BRANCH   9  11
HETATM   11  N   UNL     1      20.699  46.625  48.611  1.00  0.00    -0.299 N 
HETATM   12  C   UNL     1      20.814  47.648  47.678  1.00  0.00     0.257 C 
HETATM   13  O   UNL     1      20.273  47.645  46.577  1.00  0.00    -0.267 OA
HETATM   14  H   UNL     1      21.017  46.860  49.537  1.00  0.00     0.171 HD
BRANCH  12  15
HETATM   15  C   UNL     1      21.582  48.871  48.099  1.00  0.00     0.035 A 
HETATM   16  C   UNL     1      22.951  48.861  48.403  1.00  0.00     0.053 A 
HETATM   17  C   UNL     1      23.619  50.041  48.761  1.00  0.00     0.069 A 
HETATM   18  C   UNL     1      22.921  51.247  48.792  1.00  0.00     0.037 A 
HETATM   19  C   UNL     1      21.562  51.273  48.473  1.00  0.00     0.004 A 
HETATM   20  C   UNL     1      20.898  50.095  48.131  1.00  0.00     0.017 A 
BRANCH  17  21
HETATM   21  O   UNL     1      24.946  49.873  49.046  1.00  0.00    -0.356 OA
HETATM   22  C   UNL     1      25.852  49.897  47.949  1.00  0.00     0.210 C 
ENDBRANCH  17  21
ENDBRANCH  12  15
ENDBRANCH   9  11
ENDBRANCH   7   9
ENDBRANCH   1   7
BRANCH   4  23
HETATM   23  N   UNL     1      26.266  43.391  51.969  1.00  0.00    -0.378 N 
HETATM   24  C   UNL     1      26.374  44.008  53.312  1.00  0.00     0.143 C 
HETATM   25  C   UNL     1      27.519  43.387  54.134  1.00  0.00     0.146 C 
HETATM   26  N   UNL     1      28.792  43.356  53.402  1.00  0.00    -0.345 N 
HETATM   27  C   UNL     1      30.018  43.217  54.054  1.00  0.00     0.253 C 
HETATM   28  C   UNL     1      28.681  42.767  52.067  1.00  0.00     0.146 C 
HETATM   29  O   UNL     1      30.973  42.609  53.573  1.00  0.00    -0.267 OA
HETATM   30  C   UNL     1      27.555  43.399  51.229  1.00  0.00     0.143 C 
BRANCH  27  31
HETATM   31  C   UNL     1      30.208  43.871  55.371  1.00  0.00     0.032 A 
HETATM   32  C   UNL     1      31.073  43.286  56.302  1.00  0.00     0.017 A 
HETATM   33  C   UNL     1      31.302  43.915  57.527  1.00  0.00     0.001 A 
HETATM   34  C   UNL     1      30.680  45.131  57.813  1.00  0.00     0.000 A 
HETATM   35  C   UNL     1      29.836  45.728  56.875  1.00  0.00     0.001 A 
HETATM   36  C   UNL     1      29.605  45.104  55.648  1.00  0.00     0.017 A 
ENDBRANCH  27  31
ENDBRANCH   4  23
TORSDOF 7
ENDMDL
MODEL 7
REMARK VINA RESULT:      -9.4      2.430     10.404
REMARK  7 active torsions:
REMARK  status: ('A' for Active; 'I' for Inactive)
REMARK    1  A    between atoms: O_2  and  C_3 
REMARK    2  A    between atoms: C_5  and  C_6 
REMARK       I    between atoms: C_6  and  N_7 
REMARK    3  A    between atoms: N_7  and  C_8 
REMARK    4  A    between atoms: C_8  and  N_9 
REMARK    5  A    between atoms: N_9  and  C_10 
REMARK    6  A    between atoms: C_13  and  N_14 
REMARK       I    between atoms: N_17  and  C_18 
REMARK    7  A    between atoms: C_18  and  C_19 
ROOT
HETATM    1  C   UNL     1      25.540  41.991  50.524  1.00  0.00     0.034 A 
HETATM    2  C   UNL     1      25.257  43.155  51.234  1.00  0.00     0.032 A 
HETATM    3  C   UNL     1      24.434  44.151  50.686  1.00  0.00     0.031 A 
HETATM    4  C   UNL     1      23.875  44.034  49.404  1.00  0.00     0.030 A 
HETATM    5  C   UNL     1      24.173  42.846  48.713  1.00  0.00     0.031 A 
HETATM    6  C   UNL     1      24.977  41.832  49.263  1.00  0.00     0.032 A 
ENDROOT
BRANCH   1   7
HETATM    7  N   UNL     1      26.489  41.103  51.082  1.00  0.00    -0.333 N 
HETATM    8  H   UNL     1      26.255  40.793  52.019  1.00  0.00     0.168 HD
BRANCH   7   9
HETATM    9  C   UNL     1      27.801  40.980  50.770  1.00  0.00     0.179 C 
HETATM   10  S   UNL     1      28.237  40.236  49.335  1.00  0.00    -0.040 SA
BRANCH   9  11
HETATM   11  N   UNL     1      28.782  41.512  51.550  1.00  0.00    -0.299 N 
HETATM   12  C   UNL     1      28.702  41.456  52.936  1.00  0.00     0.257 C 
HETATM   13  O   UNL     1      28.634  40.416  53.584  1.00  0.00    -0.267 OA
HETATM   14  H   UNL     1      29.045  42.410  51.179  1.00  0.00     0.171 HD
BRANCH  12  15
HETATM   15  C   UNL     1      28.800  42.760  53.678  1.00  0.00     0.035 A 
HETATM   16  C   UNL     1      27.827  43.768  53.608  1.00  0.00     0.053 A 
HETATM   17  C   UNL     1      27.960  44.951  54.348  1.00  0.00     0.069 A 
HETATM   18  C   UNL     1      29.062  45.123  55.184  1.00  0.00     0.037 A 
HETATM   19  C   UNL     1      30.027  44.120  55.277  1.00  0.00     0.004 A 
HETATM   20  C   UNL     1      29.899  42.949  54.529  1.00  0.00     0.017 A 
BRANCH  17  21
HETATM   21  O   UNL     1      26.942  45.847  54.166  1.00  0.00    -0.356 OA
HETATM   22  C   UNL     1      25.621  45.323  54.108  1.00  0.00     0.210 C 
ENDBRANCH  17  21
ENDBRANCH  12  15
ENDBRANCH   9  11
ENDBRANCH   7   9
ENDBRANCH   1   7
BRANCH   4  23
HETATM   23  N   UNL     1      23.134  45.062  48.793  1.00  0.00    -0.378 N 
HETATM   24  C   UNL     1      22.982  46.345  49.519  1.00  0.00     0.143 C 
HETATM   25  C   UNL     1      22.428  47.454  48.605  1.00  0.00     0.146 C 
HETATM   26  N   UNL     1      21.216  47.045  47.886  1.00  0.00    -0.345 N 
HETATM   27  C   UNL     1      20.335  47.973  47.330  1.00  0.00     0.253 C 
HETATM   28  C   UNL     1      21.358  45.766  47.187  1.00  0.00     0.146 C 
HETATM   29  O   UNL     1      19.713  47.774  46.288  1.00  0.00    -0.267 OA
HETATM   30  C   UNL     1      21.887  44.645  48.099  1.00  0.00     0.143 C 
BRANCH  27  31
HETATM   31  C   UNL     1      20.090  49.248  48.046  1.00  0.00     0.032 A 
HETATM   32  C   UNL     1      19.253  49.249  49.166  1.00  0.00     0.017 A 
HETATM   33  C   UNL     1      19.053  50.431  49.882  1.00  0.00     0.001 A 
HETATM   34  C   UNL     1      19.699  51.603  49.487  1.00  0.00     0.000 A 
HETATM   35  C   UNL     1      20.553  51.598  48.384  1.00  0.00     0.001 A 
HETATM   36  C   UNL     1      20.758  50.418  47.666  1.00  0.00     0.017 A 
ENDBRANCH  27  31
ENDBRANCH   4  23
TORSDOF 7
ENDMDL
MODEL 8
REMARK VINA RESULT:      -9.0      1.699      2.182
REMARK  7 active torsions:
REMARK  status: ('A' for Active; 'I' for Inactive)
REMARK    1  A    between atoms: O_2  and  C_3 
REMARK    2  A    between atoms: C_5  and  C_6 
REMARK       I    between atoms: C_6  and  N_7 
REMARK    3  A    between atoms: N_7  and  C_8 
REMARK    4  A    between atoms: C_8  and  N_9 
REMARK    5  A    between atoms: N_9  and  C_10 
REMARK    6  A    between atoms: C_13  and  N_14 
REMARK       I    between atoms: N_17  and  C_18 
REMARK    7  A    between atoms: C_18  and  C_19 
ROOT
HETATM    1  C   UNL     1      22.355  45.644  48.514  1.00  0.00     0.034 A 
HETATM    2  C   UNL     1      22.380  44.295  48.862  1.00  0.00     0.032 A 
HETATM    3  C   UNL     1      23.358  43.795  49.735  1.00  0.00     0.031 A 
HETATM    4  C   UNL     1      24.358  44.613  50.283  1.00  0.00     0.030 A 
HETATM    5  C   UNL     1      24.304  45.971  49.919  1.00  0.00     0.031 A 
HETATM    6  C   UNL     1      23.315  46.486  49.063  1.00  0.00     0.032 A 
ENDROOT
BRANCH   1   7
HETATM    7  N   UNL     1      21.431  46.042  47.520  1.00  0.00    -0.333 N 
HETATM    8  H   UNL     1      21.776  46.778  46.914  1.00  0.00     0.168 HD
BRANCH   7   9
HETATM    9  C   UNL     1      20.082  45.932  47.543  1.00  0.00     0.179 C 
HETATM   10  S   UNL     1      19.354  44.604  46.830  1.00  0.00    -0.040 SA
BRANCH   9  11
HETATM   11  N   UNL     1      19.295  46.830  48.197  1.00  0.00    -0.299 N 
HETATM   12  C   UNL     1      18.743  47.917  47.529  1.00  0.00     0.257 C 
HETATM   13  O   UNL     1      17.987  47.827  46.568  1.00  0.00    -0.267 OA
HETATM   14  H   UNL     1      19.717  47.050  49.085  1.00  0.00     0.171 HD
BRANCH  12  15
HETATM   15  C   UNL     1      19.030  49.281  48.093  1.00  0.00     0.035 A 
HETATM   16  C   UNL     1      18.172  49.951  48.978  1.00  0.00     0.053 A 
HETATM   17  C   UNL     1      18.509  51.210  49.494  1.00  0.00     0.069 A 
HETATM   18  C   UNL     1      19.724  51.797  49.145  1.00  0.00     0.037 A 
HETATM   19  C   UNL     1      20.595  51.132  48.281  1.00  0.00     0.004 A 
HETATM   20  C   UNL     1      20.250  49.885  47.757  1.00  0.00     0.017 A 
BRANCH  17  21
HETATM   21  O   UNL     1      17.569  51.747  50.330  1.00  0.00    -0.356 OA
HETATM   22  C   UNL     1      16.737  52.770  49.795  1.00  0.00     0.210 C 
ENDBRANCH  17  21
ENDBRANCH  12  15
ENDBRANCH   9  11
ENDBRANCH   7   9
ENDBRANCH   1   7
BRANCH   4  23
HETATM   23  N   UNL     1      25.407  44.116  51.076  1.00  0.00    -0.378 N 
HETATM   24  C   UNL     1      25.741  44.833  52.329  1.00  0.00     0.143 C 
HETATM   25  C   UNL     1      26.678  44.005  53.227  1.00  0.00     0.146 C 
HETATM   26  N   UNL     1      27.858  43.505  52.510  1.00  0.00    -0.345 N 
HETATM   27  C   UNL     1      29.009  43.087  53.179  1.00  0.00     0.253 C 
HETATM   28  C   UNL     1      27.530  42.815  51.262  1.00  0.00     0.146 C 
HETATM   29  O   UNL     1      29.722  42.166  52.783  1.00  0.00    -0.267 OA
HETATM   30  C   UNL     1      26.614  43.647  50.345  1.00  0.00     0.143 C 
BRANCH  27  31
HETATM   31  C   UNL     1      29.431  43.811  54.402  1.00  0.00     0.032 A 
HETATM   32  C   UNL     1      30.452  43.273  55.192  1.00  0.00     0.017 A 
HETATM   33  C   UNL     1      30.895  43.967  56.319  1.00  0.00     0.001 A 
HETATM   34  C   UNL     1      30.331  45.201  56.646  1.00  0.00     0.000 A 
HETATM   35  C   UNL     1      29.329  45.749  55.844  1.00  0.00     0.001 A 
HETATM   36  C   UNL     1      28.883  45.060  54.715  1.00  0.00     0.017 A 
ENDBRANCH  27  31
ENDBRANCH   4  23
TORSDOF 7
ENDMDL
MODEL 9
REMARK VINA RESULT:      -8.9      1.887      2.013
REMARK  7 active torsions:
REMARK  status: ('A' for Active; 'I' for Inactive)
REMARK    1  A    between atoms: O_2  and  C_3 
REMARK    2  A    between atoms: C_5  and  C_6 
REMARK       I    between atoms: C_6  and  N_7 
REMARK    3  A    between atoms: N_7  and  C_8 
REMARK    4  A    between atoms: C_8  and  N_9 
REMARK    5  A    between atoms: N_9  and  C_10 
REMARK    6  A    between atoms: C_13  and  N_14 
REMARK       I    between atoms: N_17  and  C_18 
REMARK    7  A    between atoms: C_18  and  C_19 
ROOT
HETATM    1  C   UNL     1      22.875  45.299  49.430  1.00  0.00     0.034 A 
HETATM    2  C   UNL     1      23.962  46.143  49.643  1.00  0.00     0.032 A 
HETATM    3  C   UNL     1      25.088  45.702  50.355  1.00  0.00     0.031 A 
HETATM    4  C   UNL     1      25.170  44.410  50.896  1.00  0.00     0.030 A 
HETATM    5  C   UNL     1      24.061  43.578  50.660  1.00  0.00     0.031 A 
HETATM    6  C   UNL     1      22.938  44.002  49.928  1.00  0.00     0.032 A 
ENDROOT
BRANCH   1   7
HETATM    7  N   UNL     1      21.723  45.860  48.831  1.00  0.00    -0.333 N 
HETATM    8  H   UNL     1      20.856  45.434  49.139  1.00  0.00     0.168 HD
BRANCH   7   9
HETATM    9  C   UNL     1      21.630  46.511  47.648  1.00  0.00     0.179 C 
HETATM   10  S   UNL     1      21.532  45.628  46.230  1.00  0.00    -0.040 SA
BRANCH   9  11
HETATM   11  N   UNL     1      21.537  47.868  47.576  1.00  0.00    -0.299 N 
HETATM   12  C   UNL     1      20.631  48.565  48.367  1.00  0.00     0.257 C 
HETATM   13  O   UNL     1      20.625  48.545  49.593  1.00  0.00    -0.267 OA
HETATM   14  H   UNL     1      21.555  48.147  46.609  1.00  0.00     0.171 HD
BRANCH  12  15
HETATM   15  C   UNL     1      19.662  49.470  47.657  1.00  0.00     0.035 A 
HETATM   16  C   UNL     1      18.706  49.014  46.737  1.00  0.00     0.053 A 
HETATM   17  C   UNL     1      17.808  49.903  46.130  1.00  0.00     0.069 A 
HETATM   18  C   UNL     1      17.848  51.257  46.460  1.00  0.00     0.037 A 
HETATM   19  C   UNL     1      18.783  51.720  47.388  1.00  0.00     0.004 A 
HETATM   20  C   UNL     1      19.684  50.834  47.980  1.00  0.00     0.017 A 
BRANCH  17  21
HETATM   21  O   UNL     1      16.946  49.317  45.245  1.00  0.00    -0.356 OA
HETATM   22  C   UNL     1      16.516  47.993  45.539  1.00  0.00     0.210 C 
ENDBRANCH  17  21
ENDBRANCH  12  15
ENDBRANCH   9  11
ENDBRANCH   7   9
ENDBRANCH   1   7
BRANCH   4  23
HETATM   23  N   UNL     1      26.241  43.981  51.699  1.00  0.00    -0.378 N 
HETATM   24  C   UNL     1      26.401  44.590  53.040  1.00  0.00     0.143 C 
HETATM   25  C   UNL     1      27.405  43.806  53.906  1.00  0.00     0.146 C 
HETATM   26  N   UNL     1      28.681  43.566  53.219  1.00  0.00    -0.345 N 
HETATM   27  C   UNL     1      29.847  43.243  53.913  1.00  0.00     0.253 C 
HETATM   28  C   UNL     1      28.522  42.985  51.885  1.00  0.00     0.146 C 
HETATM   29  O   UNL     1      30.709  42.486  53.470  1.00  0.00    -0.267 OA
HETATM   30  C   UNL     1      27.539  43.777  51.004  1.00  0.00     0.143 C 
BRANCH  27  31
HETATM   31  C   UNL     1      30.095  43.875  55.232  1.00  0.00     0.032 A 
HETATM   32  C   UNL     1      30.982  43.262  56.123  1.00  0.00     0.017 A 
HETATM   33  C   UNL     1      31.264  43.870  57.348  1.00  0.00     0.001 A 
HETATM   34  C   UNL     1      30.674  45.092  57.673  1.00  0.00     0.000 A 
HETATM   35  C   UNL     1      29.808  45.716  56.774  1.00  0.00     0.001 A 
HETATM   36  C   UNL     1      29.523  45.113  55.547  1.00  0.00     0.017 A 
ENDBRANCH  27  31
ENDBRANCH   4  23
TORSDOF 7
ENDMDL
MODEL 10
REMARK VINA RESULT:      -8.8      4.215      6.090
REMARK  7 active torsions:
REMARK  status: ('A' for Active; 'I' for Inactive)
REMARK    1  A    between atoms: O_2  and  C_3 
REMARK    2  A    between atoms: C_5  and  C_6 
REMARK       I    between atoms: C_6  and  N_7 
REMARK    3  A    between atoms: N_7  and  C_8 
REMARK    4  A    between atoms: C_8  and  N_9 
REMARK    5  A    between atoms: N_9  and  C_10 
REMARK    6  A    between atoms: C_13  and  N_14 
REMARK       I    between atoms: N_17  and  C_18 
REMARK    7  A    between atoms: C_18  and  C_19 
ROOT
HETATM    1  C   UNL     1      24.627  46.578  49.975  1.00  0.00     0.034 A 
HETATM    2  C   UNL     1      26.013  46.570  50.115  1.00  0.00     0.032 A 
HETATM    3  C   UNL     1      26.747  45.386  49.943  1.00  0.00     0.031 A 
HETATM    4  C   UNL     1      26.130  44.162  49.643  1.00  0.00     0.030 A 
HETATM    5  C   UNL     1      24.731  44.202  49.501  1.00  0.00     0.031 A 
HETATM    6  C   UNL     1      23.988  45.387  49.647  1.00  0.00     0.032 A 
ENDROOT
BRANCH   1   7
HETATM    7  N   UNL     1      23.947  47.774  50.303  1.00  0.00    -0.333 N 
HETATM    8  H   UNL     1      23.613  47.803  51.260  1.00  0.00     0.168 HD
BRANCH   7   9
HETATM    9  C   UNL     1      23.309  48.627  49.468  1.00  0.00     0.179 C 
HETATM   10  S   UNL     1      24.202  49.540  48.386  1.00  0.00    -0.040 SA
BRANCH   9  11
HETATM   11  N   UNL     1      21.950  48.713  49.424  1.00  0.00    -0.299 N 
HETATM   12  C   UNL     1      21.275  48.750  48.211  1.00  0.00     0.257 C 
HETATM   13  O   UNL     1      21.330  47.867  47.361  1.00  0.00    -0.267 OA
HETATM   14  H   UNL     1      21.643  49.396  50.098  1.00  0.00     0.171 HD
BRANCH  12  15
HETATM   15  C   UNL     1      20.349  49.912  47.980  1.00  0.00     0.035 A 
HETATM   16  C   UNL     1      19.312  49.902  47.035  1.00  0.00     0.053 A 
HETATM   17  C   UNL     1      18.461  51.007  46.888  1.00  0.00     0.069 A 
HETATM   18  C   UNL     1      18.629  52.122  47.706  1.00  0.00     0.037 A 
HETATM   19  C   UNL     1      19.645  52.137  48.662  1.00  0.00     0.004 A 
HETATM   20  C   UNL     1      20.499  51.041  48.797  1.00  0.00     0.017 A 
BRANCH  17  21
HETATM   21  O   UNL     1      17.509  50.859  45.917  1.00  0.00    -0.356 OA
HETATM   22  C   UNL     1      16.736  49.664  45.944  1.00  0.00     0.210 C 
ENDBRANCH  17  21
ENDBRANCH  12  15
ENDBRANCH   9  11
ENDBRANCH   7   9
ENDBRANCH   1   7
BRANCH   4  23
HETATM   23  N   UNL     1      26.832  42.946  49.569  1.00  0.00    -0.378 N 
HETATM   24  C   UNL     1      26.454  41.980  48.510  1.00  0.00     0.143 C 
HETATM   25  C   UNL     1      27.501  40.861  48.361  1.00  0.00     0.146 C 
HETATM   26  N   UNL     1      27.836  40.222  49.640  1.00  0.00    -0.345 N 
HETATM   27  C   UNL     1      28.433  38.962  49.705  1.00  0.00     0.253 C 
HETATM   28  C   UNL     1      28.188  41.177  50.692  1.00  0.00     0.146 C 
HETATM   29  O   UNL     1      29.244  38.644  50.573  1.00  0.00    -0.267 OA
HETATM   30  C   UNL     1      27.134  42.285  50.866  1.00  0.00     0.143 C 
BRANCH  27  31
HETATM   31  C   UNL     1      28.044  37.932  48.712  1.00  0.00     0.032 A 
HETATM   32  C   UNL     1      26.870  37.200  48.917  1.00  0.00     0.017 A 
HETATM   33  C   UNL     1      26.463  36.262  47.967  1.00  0.00     0.001 A 
HETATM   34  C   UNL     1      27.219  36.067  46.811  1.00  0.00     0.000 A 
HETATM   35  C   UNL     1      28.378  36.813  46.594  1.00  0.00     0.001 A 
HETATM   36  C   UNL     1      28.788  37.754  47.540  1.00  0.00     0.017 A 
ENDBRANCH  27  31
ENDBRANCH   4  23
TORSDOF 7
ENDMDL
