MODEL 1
REMARK VINA RESULT:      -9.2      0.000      0.000
REMARK  8 active torsions:
REMARK  status: ('A' for Active; 'I' for Inactive)
REMARK    1  A    between atoms: C_2  and  C_3 
REMARK    2  A    between atoms: C_3  and  C_4 
REMARK    3  A    between atoms: C_7  and  C_8 
REMARK    4  A    between atoms: C_8  and  N_9 
REMARK    5  A    between atoms: C_8  and  C_26 
REMARK    6  A    between atoms: N_9  and  C_12 
REMARK    7  A    between atoms: C_12  and  C_13 
REMARK       I    between atoms: C_13  and  N_14 
REMARK    8  A    between atoms: N_14  and  C_15 
ROOT
HETATM    1  N   UNL     1      24.391  44.866  50.842  1.00  0.00    -0.054 N 
HETATM    2  H   UNL     1      24.689  44.062  51.407  1.00  0.00     0.278 HD
HETATM    3  H   UNL     1      23.361  44.818  50.855  1.00  0.00     0.278 HD
ENDROOT
BRANCH   1   4
HETATM    4  C   UNL     1      24.854  46.110  51.519  1.00  0.00     0.259 C 
BRANCH   4   5
HETATM    5  C   UNL     1      25.998  45.853  52.491  1.00  0.00    -0.023 A 
HETATM    6  C   UNL     1      26.245  46.670  53.608  1.00  0.00     0.010 A 
HETATM    7  C   UNL     1      27.285  46.378  54.492  1.00  0.00     0.007 A 
HETATM    8  C   UNL     1      28.093  45.253  54.299  1.00  0.00    -0.058 A 
HETATM    9  C   UNL     1      27.850  44.430  53.196  1.00  0.00     0.007 A 
HETATM   10  C   UNL     1      26.817  44.725  52.301  1.00  0.00     0.010 A 
BRANCH   8  11
HETATM   11  C   UNL     1      29.185  44.920  55.288  1.00  0.00     0.038 C 
BRANCH  11  12
HETATM   12  C   UNL     1      29.834  43.568  54.982  1.00  0.00     0.000 C 
HETATM   13  C   UNL     1      30.983  43.274  55.934  1.00  0.00     0.005 C 
ENDBRANCH  11  12
ENDBRANCH   8  11
ENDBRANCH   4   5
BRANCH   4  14
HETATM   14  C   UNL     1      25.185  47.195  50.523  1.00  0.00     0.017 A 
HETATM   15  S   UNL     1      23.935  48.027  49.680  1.00  0.00    -0.104 SA
HETATM   16  C   UNL     1      25.057  48.992  48.831  1.00  0.00     0.050 A 
HETATM   17  C   UNL     1      26.356  48.701  49.177  1.00  0.00     0.008 A 
HETATM   18  C   UNL     1      26.432  47.664  50.153  1.00  0.00     0.017 A 
ENDBRANCH   4  14
ENDBRANCH   1   4
BRANCH   1  19
HETATM   19  C   UNL     1      24.835  44.630  49.425  1.00  0.00     0.336 C 
BRANCH  19  20
HETATM   20  C   UNL     1      25.289  43.173  49.296  1.00  0.00     0.248 C 
HETATM   21  N   UNL     1      26.649  42.995  49.168  1.00  0.00    -0.326 N 
HETATM   22  H   UNL     1      27.248  43.813  49.123  1.00  0.00     0.169 HD
HETATM   23  O   UNL     1      24.420  42.303  49.363  1.00  0.00    -0.271 OA
BRANCH  21  24
HETATM   24  C   UNL     1      27.338  41.757  49.133  1.00  0.00     0.037 A 
HETATM   25  C   UNL     1      27.825  41.107  50.276  1.00  0.00     0.061 A 
HETATM   26  C   UNL     1      28.501  39.922  50.085  1.00  0.00     0.065 A 
HETATM   27  C   UNL     1      28.702  39.369  48.824  1.00  0.00     0.063 A 
HETATM   28  N   UNL     1      29.090  39.079  51.020  1.00  0.00    -0.306 N 
HETATM   29  N   UNL     1      29.417  38.189  48.982  1.00  0.00    -0.307 N 
HETATM   30  C   UNL     1      28.234  39.971  47.685  1.00  0.00     0.034 A 
HETATM   31  C   UNL     1      29.668  37.992  50.347  1.00  0.00     0.325 A 
HETATM   32  H   UNL     1      29.724  37.552  48.264  1.00  0.00     0.170 HD
HETATM   33  O   UNL     1      30.270  37.064  50.852  1.00  0.00    -0.247 OA
HETATM   34  C   UNL     1      27.543  41.180  47.850  1.00  0.00     0.032 A 
HETATM   35  H   UNL     1      29.122  39.190  52.022  1.00  0.00     0.170 HD
ENDBRANCH  21  24
ENDBRANCH  19  20
ENDBRANCH   1  19
TORSDOF 8
ENDMDL
MODEL 2
REMARK VINA RESULT:      -8.7      4.814      9.203
REMARK  8 active torsions:
REMARK  status: ('A' for Active; 'I' for Inactive)
REMARK    1  A    between atoms: C_2  and  C_3 
REMARK    2  A    between atoms: C_3  and  C_4 
REMARK    3  A    between atoms: C_7  and  C_8 
REMARK    4  A    between atoms: C_8  and  N_9 
REMARK    5  A    between atoms: C_8  and  C_26 
REMARK    6  A    between atoms: N_9  and  C_12 
REMARK    7  A    between atoms: C_12  and  C_13 
REMARK       I    between atoms: C_13  and  N_14 
REMARK    8  A    between atoms: N_14  and  C_15 
ROOT
HETATM    1  N   UNL     1      24.293  46.146  49.211  1.00  0.00    -0.054 N 
HETATM    2  H   UNL     1      24.547  46.483  48.274  1.00  0.00     0.278 HD
HETATM    3  H   UNL     1      24.783  45.241  49.297  1.00  0.00     0.278 HD
ENDROOT
BRANCH   1   4
HETATM    4  C   UNL     1      24.823  47.111  50.214  1.00  0.00     0.259 C 
BRANCH   4   5
HETATM    5  C   UNL     1      25.566  46.422  51.350  1.00  0.00    -0.023 A 
HETATM    6  C   UNL     1      26.243  45.201  51.186  1.00  0.00     0.010 A 
HETATM    7  C   UNL     1      26.940  44.621  52.249  1.00  0.00     0.007 A 
HETATM    8  C   UNL     1      27.000  45.253  53.495  1.00  0.00    -0.058 A 
HETATM    9  C   UNL     1      26.337  46.472  53.665  1.00  0.00     0.007 A 
HETATM   10  C   UNL     1      25.628  47.050  52.608  1.00  0.00     0.010 A 
BRANCH   8  11
HETATM   11  C   UNL     1      27.796  44.641  54.622  1.00  0.00     0.038 C 
BRANCH  11  12
HETATM   12  C   UNL     1      28.820  43.626  54.109  1.00  0.00     0.000 C 
HETATM   13  C   UNL     1      30.048  43.572  55.003  1.00  0.00     0.005 C 
ENDBRANCH  11  12
ENDBRANCH   8  11
ENDBRANCH   4   5
BRANCH   4  14
HETATM   14  C   UNL     1      25.651  48.191  49.562  1.00  0.00     0.017 A 
HETATM   15  S   UNL     1      24.903  49.446  48.651  1.00  0.00    -0.104 SA
HETATM   16  C   UNL     1      26.404  50.174  48.292  1.00  0.00     0.050 A 
HETATM   17  C   UNL     1      27.458  49.489  48.851  1.00  0.00     0.008 A 
HETATM   18  C   UNL     1      27.026  48.346  49.585  1.00  0.00     0.017 A 
ENDBRANCH   4  14
ENDBRANCH   1   4
BRANCH   1  19
HETATM   19  C   UNL     1      22.817  45.862  49.219  1.00  0.00     0.336 C 
BRANCH  19  20
HETATM   20  C   UNL     1      22.099  47.009  48.503  1.00  0.00     0.248 C 
HETATM   21  N   UNL     1      21.289  47.782  49.307  1.00  0.00    -0.326 N 
HETATM   22  H   UNL     1      21.182  47.528  50.284  1.00  0.00     0.169 HD
HETATM   23  O   UNL     1      22.339  47.166  47.306  1.00  0.00    -0.271 OA
BRANCH  21  24
HETATM   24  C   UNL     1      20.595  48.956  48.924  1.00  0.00     0.037 A 
HETATM   25  C   UNL     1      19.420  48.949  48.160  1.00  0.00     0.061 A 
HETATM   26  C   UNL     1      18.871  50.172  47.839  1.00  0.00     0.065 A 
HETATM   27  C   UNL     1      19.435  51.376  48.248  1.00  0.00     0.063 A 
HETATM   28  N   UNL     1      17.732  50.462  47.098  1.00  0.00    -0.306 N 
HETATM   29  N   UNL     1      18.646  52.408  47.756  1.00  0.00    -0.307 N 
HETATM   30  C   UNL     1      20.579  51.423  49.002  1.00  0.00     0.034 A 
HETATM   31  C   UNL     1      17.577  51.855  47.035  1.00  0.00     0.325 A 
HETATM   32  H   UNL     1      18.782  53.399  47.872  1.00  0.00     0.170 HD
HETATM   33  O   UNL     1      16.691  52.462  46.465  1.00  0.00    -0.247 OA
HETATM   34  C   UNL     1      21.159  50.192  49.342  1.00  0.00     0.032 A 
HETATM   35  H   UNL     1      17.094  49.815  46.661  1.00  0.00     0.170 HD
ENDBRANCH  21  24
ENDBRANCH  19  20
ENDBRANCH   1  19
TORSDOF 8
ENDMDL
MODEL 3
REMARK VINA RESULT:      -8.7      3.953      8.473
REMARK  8 active torsions:
REMARK  status: ('A' for Active; 'I' for Inactive)
REMARK    1  A    between atoms: C_2  and  C_3 
REMARK    2  A    between atoms: C_3  and  C_4 
REMARK    3  A    between atoms: C_7  and  C_8 
REMARK    4  A    between atoms: C_8  and  N_9 
REMARK    5  A    between atoms: C_8  and  C_26 
REMARK    6  A    between atoms: N_9  and  C_12 
REMARK    7  A    between atoms: C_12  and  C_13 
REMARK       I    between atoms: C_13  and  N_14 
REMARK    8  A    between atoms: N_14  and  C_15 
ROOT
HETATM    1  N   UNL     1      26.506  45.540  51.073  1.00  0.00    -0.054 N 
HETATM    2  H   UNL     1      25.553  45.271  51.345  1.00  0.00     0.278 HD
HETATM    3  H   UNL     1      26.846  46.107  51.865  1.00  0.00     0.278 HD
ENDROOT
BRANCH   1   4
HETATM    4  C   UNL     1      27.322  44.301  50.944  1.00  0.00     0.259 C 
BRANCH   4   5
HETATM    5  C   UNL     1      28.135  44.004  52.197  1.00  0.00    -0.023 A 
HETATM    6  C   UNL     1      27.747  44.441  53.476  1.00  0.00     0.010 A 
HETATM    7  C   UNL     1      28.506  44.118  54.603  1.00  0.00     0.007 A 
HETATM    8  C   UNL     1      29.658  43.334  54.489  1.00  0.00    -0.058 A 
HETATM    9  C   UNL     1      30.047  42.888  53.223  1.00  0.00     0.007 A 
HETATM   10  C   UNL     1      29.297  43.219  52.090  1.00  0.00     0.010 A 
BRANCH   8  11
HETATM   11  C   UNL     1      30.444  42.950  55.720  1.00  0.00     0.038 C 
BRANCH  11  12
HETATM   12  C   UNL     1      31.327  44.100  56.210  1.00  0.00     0.000 C 
HETATM   13  C   UNL     1      31.467  44.089  57.724  1.00  0.00     0.005 C 
ENDBRANCH  11  12
ENDBRANCH   8  11
ENDBRANCH   4   5
BRANCH   4  14
HETATM   14  C   UNL     1      26.480  43.123  50.518  1.00  0.00     0.017 A 
HETATM   15  S   UNL     1      27.130  41.900  49.495  1.00  0.00    -0.104 SA
HETATM   16  C   UNL     1      25.664  41.026  49.495  1.00  0.00     0.050 A 
HETATM   17  C   UNL     1      24.696  41.639  50.257  1.00  0.00     0.008 A 
HETATM   18  C   UNL     1      25.165  42.848  50.849  1.00  0.00     0.017 A 
ENDBRANCH   4  14
ENDBRANCH   1   4
BRANCH   1  19
HETATM   19  C   UNL     1      26.410  46.447  49.878  1.00  0.00     0.336 C 
BRANCH  19  20
HETATM   20  C   UNL     1      25.292  47.462  50.128  1.00  0.00     0.248 C 
HETATM   21  N   UNL     1      24.747  48.021  48.993  1.00  0.00    -0.326 N 
HETATM   22  H   UNL     1      25.134  47.771  48.089  1.00  0.00     0.169 HD
HETATM   23  O   UNL     1      24.953  47.653  51.296  1.00  0.00    -0.271 OA
BRANCH  21  24
HETATM   24  C   UNL     1      23.641  48.905  48.936  1.00  0.00     0.037 A 
HETATM   25  C   UNL     1      22.311  48.497  49.110  1.00  0.00     0.061 A 
HETATM   26  C   UNL     1      21.336  49.464  49.000  1.00  0.00     0.065 A 
HETATM   27  C   UNL     1      21.632  50.797  48.730  1.00  0.00     0.063 A 
HETATM   28  N   UNL     1      19.956  49.347  49.116  1.00  0.00    -0.306 N 
HETATM   29  N   UNL     1      20.434  51.500  48.677  1.00  0.00    -0.307 N 
HETATM   30  C   UNL     1      22.919  51.236  48.561  1.00  0.00     0.034 A 
HETATM   31  C   UNL     1      19.378  50.609  48.916  1.00  0.00     0.325 A 
HETATM   32  H   UNL     1      20.302  52.482  48.500  1.00  0.00     0.170 HD
HETATM   33  O   UNL     1      18.191  50.876  48.943  1.00  0.00    -0.247 OA
HETATM   34  C   UNL     1      23.932  50.270  48.668  1.00  0.00     0.032 A 
HETATM   35  H   UNL     1      19.419  48.516  49.310  1.00  0.00     0.170 HD
ENDBRANCH  21  24
ENDBRANCH  19  20
ENDBRANCH   1  19
TORSDOF 8
ENDMDL
MODEL 4
REMARK VINA RESULT:      -8.5      2.941      7.252
REMARK  8 active torsions:
REMARK  status: ('A' for Active; 'I' for Inactive)
REMARK    1  A    between atoms: C_2  and  C_3 
REMARK    2  A    between atoms: C_3  and  C_4 
REMARK    3  A    between atoms: C_7  and  C_8 
REMARK    4  A    between atoms: C_8  and  N_9 
REMARK    5  A    between atoms: C_8  and  C_26 
REMARK    6  A    between atoms: N_9  and  C_12 
REMARK    7  A    between atoms: C_12  and  C_13 
REMARK       I    between atoms: C_13  and  N_14 
REMARK    8  A    between atoms: N_14  and  C_15 
ROOT
HETATM    1  N   UNL     1      25.856  42.280  51.766  1.00  0.00    -0.054 N 
HETATM    2  H   UNL     1      25.782  41.433  52.343  1.00  0.00     0.278 HD
HETATM    3  H   UNL     1      25.569  43.043  52.398  1.00  0.00     0.278 HD
ENDROOT
BRANCH   1   4
HETATM    4  C   UNL     1      27.282  42.452  51.370  1.00  0.00     0.259 C 
BRANCH   4   5
HETATM    5  C   UNL     1      28.175  42.811  52.550  1.00  0.00    -0.023 A 
HETATM    6  C   UNL     1      29.578  42.751  52.488  1.00  0.00     0.010 A 
HETATM    7  C   UNL     1      30.360  43.122  53.584  1.00  0.00     0.007 A 
HETATM    8  C   UNL     1      29.765  43.583  54.763  1.00  0.00    -0.058 A 
HETATM    9  C   UNL     1      28.371  43.653  54.832  1.00  0.00     0.007 A 
HETATM   10  C   UNL     1      27.585  43.271  53.741  1.00  0.00     0.010 A 
BRANCH   8  11
HETATM   11  C   UNL     1      30.621  44.026  55.926  1.00  0.00     0.038 C 
BRANCH  11  12
HETATM   12  C   UNL     1      30.502  45.531  56.176  1.00  0.00     0.000 C 
HETATM   13  C   UNL     1      29.854  45.823  57.520  1.00  0.00     0.005 C 
ENDBRANCH  11  12
ENDBRANCH   8  11
ENDBRANCH   4   5
BRANCH   4  14
HETATM   14  C   UNL     1      27.796  41.254  50.610  1.00  0.00     0.017 A 
HETATM   15  S   UNL     1      27.812  41.245  48.888  1.00  0.00    -0.104 SA
HETATM   16  C   UNL     1      28.475  39.673  48.835  1.00  0.00     0.050 A 
HETATM   17  C   UNL     1      28.689  39.159  50.093  1.00  0.00     0.008 A 
HETATM   18  C   UNL     1      28.299  40.070  51.118  1.00  0.00     0.017 A 
ENDBRANCH   4  14
ENDBRANCH   1   4
BRANCH   1  19
HETATM   19  C   UNL     1      24.828  42.188  50.672  1.00  0.00     0.336 C 
BRANCH  19  20
HETATM   20  C   UNL     1      24.856  43.493  49.872  1.00  0.00     0.248 C 
HETATM   21  N   UNL     1      24.845  44.643  50.631  1.00  0.00    -0.326 N 
HETATM   22  H   UNL     1      24.776  44.563  51.640  1.00  0.00     0.169 HD
HETATM   23  O   UNL     1      24.930  43.403  48.647  1.00  0.00    -0.271 OA
BRANCH  21  24
HETATM   24  C   UNL     1      24.965  45.971  50.152  1.00  0.00     0.037 A 
HETATM   25  C   UNL     1      23.931  46.657  49.501  1.00  0.00     0.061 A 
HETATM   26  C   UNL     1      24.201  47.936  49.064  1.00  0.00     0.065 A 
HETATM   27  C   UNL     1      25.439  48.544  49.251  1.00  0.00     0.063 A 
HETATM   28  N   UNL     1      23.380  48.833  48.392  1.00  0.00    -0.306 N 
HETATM   29  N   UNL     1      25.381  49.815  48.691  1.00  0.00    -0.307 N 
HETATM   30  C   UNL     1      26.472  47.908  49.888  1.00  0.00     0.034 A 
HETATM   31  C   UNL     1      24.102  50.012  48.151  1.00  0.00     0.325 A 
HETATM   32  H   UNL     1      26.110  50.508  48.657  1.00  0.00     0.170 HD
HETATM   33  O   UNL     1      23.697  51.008  47.582  1.00  0.00    -0.247 OA
HETATM   34  C   UNL     1      26.223  46.604  50.343  1.00  0.00     0.032 A 
HETATM   35  H   UNL     1      22.422  48.703  48.106  1.00  0.00     0.170 HD
ENDBRANCH  21  24
ENDBRANCH  19  20
ENDBRANCH   1  19
TORSDOF 8
ENDMDL
MODEL 5
REMARK VINA RESULT:      -8.4      4.869      9.119
REMARK  8 active torsions:
REMARK  status: ('A' for Active; 'I' for Inactive)
REMARK    1  A    between atoms: C_2  and  C_3 
REMARK    2  A    between atoms: C_3  and  C_4 
REMARK    3  A    between atoms: C_7  and  C_8 
REMARK    4  A    between atoms: C_8  and  N_9 
REMARK    5  A    between atoms: C_8  and  C_26 
REMARK    6  A    between atoms: N_9  and  C_12 
REMARK    7  A    between atoms: C_12  and  C_13 
REMARK       I    between atoms: C_13  and  N_14 
REMARK    8  A    between atoms: N_14  and  C_15 
ROOT
HETATM    1  N   UNL     1      24.733  47.458  50.394  1.00  0.00    -0.054 N 
HETATM    2  H   UNL     1      23.710  47.407  50.467  1.00  0.00     0.278 HD
HETATM    3  H   UNL     1      25.035  47.831  51.307  1.00  0.00     0.278 HD
ENDROOT
BRANCH   1   4
HETATM    4  C   UNL     1      25.257  46.076  50.206  1.00  0.00     0.259 C 
BRANCH   4   5
HETATM    5  C   UNL     1      26.103  45.609  51.383  1.00  0.00    -0.023 A 
HETATM    6  C   UNL     1      27.050  44.576  51.276  1.00  0.00     0.010 A 
HETATM    7  C   UNL     1      27.828  44.202  52.374  1.00  0.00     0.007 A 
HETATM    8  C   UNL     1      27.697  44.861  53.601  1.00  0.00    -0.058 A 
HETATM    9  C   UNL     1      26.763  45.894  53.715  1.00  0.00     0.007 A 
HETATM   10  C   UNL     1      25.974  46.263  52.621  1.00  0.00     0.010 A 
BRANCH   8  11
HETATM   11  C   UNL     1      28.577  44.480  54.768  1.00  0.00     0.038 C 
BRANCH  11  12
HETATM   12  C   UNL     1      29.632  43.446  54.370  1.00  0.00     0.000 C 
HETATM   13  C   UNL     1      30.709  43.311  55.435  1.00  0.00     0.005 C 
ENDBRANCH  11  12
ENDBRANCH   8  11
ENDBRANCH   4   5
BRANCH   4  14
HETATM   14  C   UNL     1      24.152  45.103  49.875  1.00  0.00     0.017 A 
HETATM   15  S   UNL     1      23.136  45.356  48.508  1.00  0.00    -0.104 SA
HETATM   16  C   UNL     1      22.239  43.939  48.827  1.00  0.00     0.050 A 
HETATM   17  C   UNL     1      22.698  43.277  49.943  1.00  0.00     0.008 A 
HETATM   18  C   UNL     1      23.801  43.946  50.548  1.00  0.00     0.017 A 
ENDBRANCH   4  14
ENDBRANCH   1   4
BRANCH   1  19
HETATM   19  C   UNL     1      25.074  48.487  49.352  1.00  0.00     0.336 C 
BRANCH  19  20
HETATM   20  C   UNL     1      23.769  49.020  48.753  1.00  0.00     0.248 C 
HETATM   21  N   UNL     1      22.693  49.027  49.614  1.00  0.00    -0.326 N 
HETATM   22  H   UNL     1      22.811  48.650  50.549  1.00  0.00     0.169 HD
HETATM   23  O   UNL     1      23.805  49.430  47.593  1.00  0.00    -0.271 OA
BRANCH  21  24
HETATM   24  C   UNL     1      21.406  49.556  49.350  1.00  0.00     0.037 A 
HETATM   25  C   UNL     1      20.257  48.767  49.204  1.00  0.00     0.061 A 
HETATM   26  C   UNL     1      19.076  49.420  48.921  1.00  0.00     0.065 A 
HETATM   27  C   UNL     1      19.000  50.803  48.784  1.00  0.00     0.063 A 
HETATM   28  N   UNL     1      17.804  48.899  48.720  1.00  0.00    -0.306 N 
HETATM   29  N   UNL     1      17.682  51.133  48.496  1.00  0.00    -0.307 N 
HETATM   30  C   UNL     1      20.100  51.608  48.927  1.00  0.00     0.034 A 
HETATM   31  C   UNL     1      16.921  49.956  48.452  1.00  0.00     0.325 A 
HETATM   32  H   UNL     1      17.296  52.050  48.337  1.00  0.00     0.170 HD
HETATM   33  O   UNL     1      15.729  49.866  48.224  1.00  0.00    -0.247 OA
HETATM   34  C   UNL     1      21.315  50.969  49.215  1.00  0.00     0.032 A 
HETATM   35  H   UNL     1      17.517  47.934  48.751  1.00  0.00     0.170 HD
ENDBRANCH  21  24
ENDBRANCH  19  20
ENDBRANCH   1  19
TORSDOF 8
ENDMDL
MODEL 6
REMARK VINA RESULT:      -8.2      1.820      2.424
REMARK  8 active torsions:
REMARK  status: ('A' for Active; 'I' for Inactive)
REMARK    1  A    between atoms: C_2  and  C_3 
REMARK    2  A    between atoms: C_3  and  C_4 
REMARK    3  A    between atoms: C_7  and  C_8 
REMARK    4  A    between atoms: C_8  and  N_9 
REMARK    5  A    between atoms: C_8  and  C_26 
REMARK    6  A    between atoms: N_9  and  C_12 
REMARK    7  A    between atoms: C_12  and  C_13 
REMARK       I    between atoms: C_13  and  N_14 
REMARK    8  A    between atoms: N_14  and  C_15 
ROOT
HETATM    1  N   UNL     1      24.401  45.737  49.352  1.00  0.00    -0.054 N 
HETATM    2  H   UNL     1      24.311  46.132  48.408  1.00  0.00     0.278 HD
HETATM    3  H   UNL     1      25.198  45.086  49.280  1.00  0.00     0.278 HD
ENDROOT
BRANCH   1   4
HETATM    4  C   UNL     1      24.727  46.844  50.293  1.00  0.00     0.259 C 
BRANCH   4   5
HETATM    5  C   UNL     1      25.586  46.381  51.463  1.00  0.00    -0.023 A 
HETATM    6  C   UNL     1      26.427  45.257  51.391  1.00  0.00     0.010 A 
HETATM    7  C   UNL     1      27.223  44.888  52.477  1.00  0.00     0.007 A 
HETATM    8  C   UNL     1      27.217  45.641  53.656  1.00  0.00    -0.058 A 
HETATM    9  C   UNL     1      26.390  46.764  53.734  1.00  0.00     0.007 A 
HETATM   10  C   UNL     1      25.583  47.130  52.653  1.00  0.00     0.010 A 
BRANCH   8  11
HETATM   11  C   UNL     1      28.117  45.261  54.808  1.00  0.00     0.038 C 
BRANCH  11  12
HETATM   12  C   UNL     1      28.916  43.990  54.508  1.00  0.00     0.000 C 
HETATM   13  C   UNL     1      30.191  43.926  55.333  1.00  0.00     0.005 C 
ENDBRANCH  11  12
ENDBRANCH   8  11
ENDBRANCH   4   5
BRANCH   4  14
HETATM   14  C   UNL     1      25.331  48.025  49.574  1.00  0.00     0.017 A 
HETATM   15  S   UNL     1      27.037  48.264  49.552  1.00  0.00    -0.104 SA
HETATM   16  C   UNL     1      26.894  49.687  48.622  1.00  0.00     0.050 A 
HETATM   17  C   UNL     1      25.583  49.982  48.324  1.00  0.00     0.008 A 
HETATM   18  C   UNL     1      24.680  49.023  48.872  1.00  0.00     0.017 A 
ENDBRANCH   4  14
ENDBRANCH   1   4
BRANCH   1  19
HETATM   19  C   UNL     1      23.172  44.915  49.631  1.00  0.00     0.336 C 
BRANCH  19  20
HETATM   20  C   UNL     1      23.606  43.473  49.904  1.00  0.00     0.248 C 
HETATM   21  N   UNL     1      24.759  43.078  49.259  1.00  0.00    -0.326 N 
HETATM   22  H   UNL     1      25.213  43.728  48.627  1.00  0.00     0.169 HD
HETATM   23  O   UNL     1      22.928  42.819  50.696  1.00  0.00    -0.271 OA
BRANCH  21  24
HETATM   24  C   UNL     1      25.430  41.840  49.414  1.00  0.00     0.037 A 
HETATM   25  C   UNL     1      25.267  40.754  48.543  1.00  0.00     0.061 A 
HETATM   26  C   UNL     1      25.964  39.602  48.836  1.00  0.00     0.065 A 
HETATM   27  C   UNL     1      26.804  39.496  49.940  1.00  0.00     0.063 A 
HETATM   28  N   UNL     1      25.987  38.387  48.162  1.00  0.00    -0.306 N 
HETATM   29  N   UNL     1      27.341  38.215  49.949  1.00  0.00    -0.307 N 
HETATM   30  C   UNL     1      26.995  40.538  50.810  1.00  0.00     0.034 A 
HETATM   31  C   UNL     1      26.842  37.509  48.845  1.00  0.00     0.325 A 
HETATM   32  H   UNL     1      27.984  37.819  50.616  1.00  0.00     0.170 HD
HETATM   33  O   UNL     1      27.096  36.359  48.539  1.00  0.00    -0.247 OA
HETATM   34  C   UNL     1      26.296  41.723  50.536  1.00  0.00     0.032 A 
HETATM   35  H   UNL     1      25.490  38.134  47.322  1.00  0.00     0.170 HD
ENDBRANCH  21  24
ENDBRANCH  19  20
ENDBRANCH   1  19
TORSDOF 8
ENDMDL
MODEL 7
REMARK VINA RESULT:      -8.1      3.759      7.101
REMARK  8 active torsions:
REMARK  status: ('A' for Active; 'I' for Inactive)
REMARK    1  A    between atoms: C_2  and  C_3 
REMARK    2  A    between atoms: C_3  and  C_4 
REMARK    3  A    between atoms: C_7  and  C_8 
REMARK    4  A    between atoms: C_8  and  N_9 
REMARK    5  A    between atoms: C_8  and  C_26 
REMARK    6  A    between atoms: N_9  and  C_12 
REMARK    7  A    between atoms: C_12  and  C_13 
REMARK       I    between atoms: C_13  and  N_14 
REMARK    8  A    between atoms: N_14  and  C_15 
ROOT
HETATM    1  N   UNL     1      22.263  46.742  49.198  1.00  0.00    -0.054 N 
HETATM    2  H   UNL     1      22.972  46.572  49.922  1.00  0.00     0.278 HD
HETATM    3  H   UNL     1      21.410  46.977  49.728  1.00  0.00     0.278 HD
ENDROOT
BRANCH   1   4
HETATM    4  C   UNL     1      22.698  47.911  48.383  1.00  0.00     0.259 C 
BRANCH   4   5
HETATM    5  C   UNL     1      21.721  49.076  48.468  1.00  0.00    -0.023 A 
HETATM    6  C   UNL     1      21.790  50.054  49.475  1.00  0.00     0.010 A 
HETATM    7  C   UNL     1      20.893  51.125  49.495  1.00  0.00     0.007 A 
HETATM    8  C   UNL     1      19.918  51.260  48.502  1.00  0.00    -0.058 A 
HETATM    9  C   UNL     1      19.847  50.296  47.492  1.00  0.00     0.007 A 
HETATM   10  C   UNL     1      20.735  49.217  47.475  1.00  0.00     0.010 A 
BRANCH   8  11
HETATM   11  C   UNL     1      18.984  52.447  48.506  1.00  0.00     0.038 C 
BRANCH  11  12
HETATM   12  C   UNL     1      17.994  52.385  49.671  1.00  0.00     0.000 C 
HETATM   13  C   UNL     1      16.846  51.432  49.377  1.00  0.00     0.005 C 
ENDBRANCH  11  12
ENDBRANCH   8  11
ENDBRANCH   4   5
BRANCH   4  14
HETATM   14  C   UNL     1      24.110  48.326  48.716  1.00  0.00     0.017 A 
HETATM   15  S   UNL     1      25.049  47.427  49.845  1.00  0.00    -0.104 SA
HETATM   16  C   UNL     1      26.389  48.469  49.664  1.00  0.00     0.050 A 
HETATM   17  C   UNL     1      26.140  49.479  48.763  1.00  0.00     0.008 A 
HETATM   18  C   UNL     1      24.827  49.397  48.214  1.00  0.00     0.017 A 
ENDBRANCH   4  14
ENDBRANCH   1   4
BRANCH   1  19
HETATM   19  C   UNL     1      22.007  45.443  48.484  1.00  0.00     0.336 C 
BRANCH  19  20
HETATM   20  C   UNL     1      22.643  44.311  49.296  1.00  0.00     0.248 C 
HETATM   21  N   UNL     1      23.948  44.018  48.965  1.00  0.00    -0.326 N 
HETATM   22  H   UNL     1      24.384  44.520  48.198  1.00  0.00     0.169 HD
HETATM   23  O   UNL     1      21.962  43.803  50.187  1.00  0.00    -0.271 OA
BRANCH  21  24
HETATM   24  C   UNL     1      24.797  43.092  49.620  1.00  0.00     0.037 A 
HETATM   25  C   UNL     1      25.510  43.387  50.790  1.00  0.00     0.061 A 
HETATM   26  C   UNL     1      26.319  42.395  51.301  1.00  0.00     0.065 A 
HETATM   27  C   UNL     1      26.439  41.145  50.702  1.00  0.00     0.063 A 
HETATM   28  N   UNL     1      27.134  42.410  52.426  1.00  0.00    -0.306 N 
HETATM   29  N   UNL     1      27.329  40.391  51.456  1.00  0.00    -0.307 N 
HETATM   30  C   UNL     1      25.752  40.817  49.561  1.00  0.00     0.034 A 
HETATM   31  C   UNL     1      27.773  41.166  52.537  1.00  0.00     0.325 A 
HETATM   32  H   UNL     1      27.633  39.445  51.290  1.00  0.00     0.170 HD
HETATM   33  O   UNL     1      28.560  40.829  53.402  1.00  0.00    -0.247 OA
HETATM   34  C   UNL     1      24.921  41.809  49.021  1.00  0.00     0.032 A 
HETATM   35  H   UNL     1      27.274  43.164  53.080  1.00  0.00     0.170 HD
ENDBRANCH  21  24
ENDBRANCH  19  20
ENDBRANCH   1  19
TORSDOF 8
ENDMDL
MODEL 8
REMARK VINA RESULT:      -8.0      4.980      8.551
REMARK  8 active torsions:
REMARK  status: ('A' for Active; 'I' for Inactive)
REMARK    1  A    between atoms: C_2  and  C_3 
REMARK    2  A    between atoms: C_3  and  C_4 
REMARK    3  A    between atoms: C_7  and  C_8 
REMARK    4  A    between atoms: C_8  and  N_9 
REMARK    5  A    between atoms: C_8  and  C_26 
REMARK    6  A    between atoms: N_9  and  C_12 
REMARK    7  A    between atoms: C_12  and  C_13 
REMARK       I    between atoms: C_13  and  N_14 
REMARK    8  A    between atoms: N_14  and  C_15 
ROOT
HETATM    1  N   UNL     1      24.180  47.244  50.510  1.00  0.00    -0.054 N 
HETATM    2  H   UNL     1      23.210  46.950  50.677  1.00  0.00     0.278 HD
HETATM    3  H   UNL     1      24.453  47.724  51.382  1.00  0.00     0.278 HD
ENDROOT
BRANCH   1   4
HETATM    4  C   UNL     1      25.011  46.024  50.314  1.00  0.00     0.259 C 
BRANCH   4   5
HETATM    5  C   UNL     1      25.902  45.727  51.513  1.00  0.00    -0.023 A 
HETATM    6  C   UNL     1      25.783  46.409  52.737  1.00  0.00     0.010 A 
HETATM    7  C   UNL     1      26.599  46.081  53.821  1.00  0.00     0.007 A 
HETATM    8  C   UNL     1      27.541  45.052  53.722  1.00  0.00    -0.058 A 
HETATM    9  C   UNL     1      27.661  44.363  52.512  1.00  0.00     0.007 A 
HETATM   10  C   UNL     1      26.854  44.696  51.420  1.00  0.00     0.010 A 
BRANCH   8  11
HETATM   11  C   UNL     1      28.386  44.673  54.915  1.00  0.00     0.038 C 
BRANCH  11  12
HETATM   12  C   UNL     1      29.124  45.882  55.494  1.00  0.00     0.000 C 
HETATM   13  C   UNL     1      28.731  46.135  56.941  1.00  0.00     0.005 C 
ENDBRANCH  11  12
ENDBRANCH   8  11
ENDBRANCH   4   5
BRANCH   4  14
HETATM   14  C   UNL     1      24.169  44.835  49.921  1.00  0.00     0.017 A 
HETATM   15  S   UNL     1      23.865  44.481  48.263  1.00  0.00    -0.104 SA
HETATM   16  C   UNL     1      22.922  43.115  48.658  1.00  0.00     0.050 A 
HETATM   17  C   UNL     1      22.837  42.919  50.018  1.00  0.00     0.008 A 
HETATM   18  C   UNL     1      23.557  43.910  50.748  1.00  0.00     0.017 A 
ENDBRANCH   4  14
ENDBRANCH   1   4
BRANCH   1  19
HETATM   19  C   UNL     1      24.171  48.273  49.413  1.00  0.00     0.336 C 
BRANCH  19  20
HETATM   20  C   UNL     1      22.844  48.164  48.658  1.00  0.00     0.248 C 
HETATM   21  N   UNL     1      21.853  47.469  49.317  1.00  0.00    -0.326 N 
HETATM   22  H   UNL     1      22.066  47.045  50.214  1.00  0.00     0.169 HD
HETATM   23  O   UNL     1      22.764  48.734  47.570  1.00  0.00    -0.271 OA
BRANCH  21  24
HETATM   24  C   UNL     1      20.511  47.306  48.892  1.00  0.00     0.037 A 
HETATM   25  C   UNL     1      19.573  48.347  48.867  1.00  0.00     0.061 A 
HETATM   26  C   UNL     1      18.296  48.033  48.456  1.00  0.00     0.065 A 
HETATM   27  C   UNL     1      17.928  46.747  48.072  1.00  0.00     0.063 A 
HETATM   28  N   UNL     1      17.178  48.850  48.342  1.00  0.00    -0.306 N 
HETATM   29  N   UNL     1      16.583  46.771  47.725  1.00  0.00    -0.307 N 
HETATM   30  C   UNL     1      18.819  45.705  48.075  1.00  0.00     0.034 A 
HETATM   31  C   UNL     1      16.098  48.077  47.887  1.00  0.00     0.325 A 
HETATM   32  H   UNL     1      16.013  46.004  47.406  1.00  0.00     0.170 HD
HETATM   33  O   UNL     1      14.965  48.466  47.678  1.00  0.00    -0.247 OA
HETATM   34  C   UNL     1      20.127  45.998  48.491  1.00  0.00     0.032 A 
HETATM   35  H   UNL     1      17.107  49.836  48.541  1.00  0.00     0.170 HD
ENDBRANCH  21  24
ENDBRANCH  19  20
ENDBRANCH   1  19
TORSDOF 8
ENDMDL
MODEL 9
REMARK VINA RESULT:      -7.9     11.375     16.409
REMARK  8 active torsions:
REMARK  status: ('A' for Active; 'I' for Inactive)
REMARK    1  A    between atoms: C_2  and  C_3 
REMARK    2  A    between atoms: C_3  and  C_4 
REMARK    3  A    between atoms: C_7  and  C_8 
REMARK    4  A    between atoms: C_8  and  N_9 
REMARK    5  A    between atoms: C_8  and  C_26 
REMARK    6  A    between atoms: N_9  and  C_12 
REMARK    7  A    between atoms: C_12  and  C_13 
REMARK       I    between atoms: C_13  and  N_14 
REMARK    8  A    between atoms: N_14  and  C_15 
ROOT
HETATM    1  N   UNL     1      16.518  52.545  49.638  1.00  0.00    -0.054 N 
HETATM    2  H   UNL     1      16.979  52.111  50.447  1.00  0.00     0.278 HD
HETATM    3  H   UNL     1      16.731  53.550  49.734  1.00  0.00     0.278 HD
ENDROOT
BRANCH   1   4
HETATM    4  C   UNL     1      17.143  52.005  48.399  1.00  0.00     0.259 C 
BRANCH   4   5
HETATM    5  C   UNL     1      18.582  51.558  48.620  1.00  0.00    -0.023 A 
HETATM    6  C   UNL     1      19.433  51.186  47.564  1.00  0.00     0.010 A 
HETATM    7  C   UNL     1      20.757  50.814  47.810  1.00  0.00     0.007 A 
HETATM    8  C   UNL     1      21.273  50.824  49.109  1.00  0.00    -0.058 A 
HETATM    9  C   UNL     1      20.437  51.200  50.164  1.00  0.00     0.007 A 
HETATM   10  C   UNL     1      19.108  51.561  49.924  1.00  0.00     0.010 A 
BRANCH   8  11
HETATM   11  C   UNL     1      22.719  50.465  49.358  1.00  0.00     0.038 C 
BRANCH  11  12
HETATM   12  C   UNL     1      23.172  49.295  48.482  1.00  0.00     0.000 C 
HETATM   13  C   UNL     1      23.579  48.096  49.323  1.00  0.00     0.005 C 
ENDBRANCH  11  12
ENDBRANCH   8  11
ENDBRANCH   4   5
BRANCH   4  14
HETATM   14  C   UNL     1      16.298  50.920  47.777  1.00  0.00     0.017 A 
HETATM   15  S   UNL     1      15.424  51.210  46.322  1.00  0.00    -0.104 SA
HETATM   16  C   UNL     1      14.790  49.626  46.307  1.00  0.00     0.050 A 
HETATM   17  C   UNL     1      15.230  48.883  47.378  1.00  0.00     0.008 A 
HETATM   18  C   UNL     1      16.100  49.627  48.227  1.00  0.00     0.017 A 
ENDBRANCH   4  14
ENDBRANCH   1   4
BRANCH   1  19
HETATM   19  C   UNL     1      15.032  52.381  49.806  1.00  0.00     0.336 C 
BRANCH  19  20
HETATM   20  C   UNL     1      14.519  53.509  50.706  1.00  0.00     0.248 C 
HETATM   21  N   UNL     1      15.460  54.457  51.046  1.00  0.00    -0.326 N 
HETATM   22  H   UNL     1      16.416  54.334  50.730  1.00  0.00     0.169 HD
HETATM   23  O   UNL     1      13.325  53.495  51.003  1.00  0.00    -0.271 OA
BRANCH  21  24
HETATM   24  C   UNL     1      15.230  55.647  51.779  1.00  0.00     0.037 A 
HETATM   25  C   UNL     1      15.003  55.676  53.162  1.00  0.00     0.061 A 
HETATM   26  C   UNL     1      14.766  56.907  53.735  1.00  0.00     0.065 A 
HETATM   27  C   UNL     1      14.751  58.086  52.996  1.00  0.00     0.063 A 
HETATM   28  N   UNL     1      14.506  57.229  55.061  1.00  0.00    -0.306 N 
HETATM   29  N   UNL     1      14.478  59.134  53.866  1.00  0.00    -0.307 N 
HETATM   30  C   UNL     1      14.975  58.099  51.644  1.00  0.00     0.034 A 
HETATM   31  C   UNL     1      14.323  58.617  55.161  1.00  0.00     0.325 A 
HETATM   32  H   UNL     1      14.397  60.114  53.647  1.00  0.00     0.170 HD
HETATM   33  O   UNL     1      14.075  59.245  56.172  1.00  0.00    -0.247 OA
HETATM   34  C   UNL     1      15.219  56.859  51.035  1.00  0.00     0.032 A 
HETATM   35  H   UNL     1      14.450  56.606  55.851  1.00  0.00     0.170 HD
ENDBRANCH  21  24
ENDBRANCH  19  20
ENDBRANCH   1  19
TORSDOF 8
ENDMDL
MODEL 10
REMARK VINA RESULT:      -7.8     12.656     14.047
REMARK  8 active torsions:
REMARK  status: ('A' for Active; 'I' for Inactive)
REMARK    1  A    between atoms: C_2  and  C_3 
REMARK    2  A    between atoms: C_3  and  C_4 
REMARK    3  A    between atoms: C_7  and  C_8 
REMARK    4  A    between atoms: C_8  and  N_9 
REMARK    5  A    between atoms: C_8  and  C_26 
REMARK    6  A    between atoms: N_9  and  C_12 
REMARK    7  A    between atoms: C_12  and  C_13 
REMARK       I    between atoms: C_13  and  N_14 
REMARK    8  A    between atoms: N_14  and  C_15 
ROOT
HETATM    1  N   UNL     1      32.111  49.387  40.442  1.00  0.00    -0.054 N 
HETATM    2  H   UNL     1      32.101  50.014  39.628  1.00  0.00     0.278 HD
HETATM    3  H   UNL     1      33.096  49.091  40.523  1.00  0.00     0.278 HD
ENDROOT
BRANCH   1   4
HETATM    4  C   UNL     1      31.711  50.173  41.642  1.00  0.00     0.259 C 
BRANCH   4   5
HETATM    5  C   UNL     1      32.901  50.814  42.342  1.00  0.00    -0.023 A 
HETATM    6  C   UNL     1      32.787  51.496  43.566  1.00  0.00     0.010 A 
HETATM    7  C   UNL     1      33.912  52.040  44.189  1.00  0.00     0.007 A 
HETATM    8  C   UNL     1      35.182  51.900  43.622  1.00  0.00    -0.058 A 
HETATM    9  C   UNL     1      35.307  51.216  42.410  1.00  0.00     0.007 A 
HETATM   10  C   UNL     1      34.182  50.681  41.776  1.00  0.00     0.010 A 
BRANCH   8  11
HETATM   11  C   UNL     1      36.398  52.451  44.328  1.00  0.00     0.038 C 
BRANCH  11  12
HETATM   12  C   UNL     1      37.012  53.628  43.567  1.00  0.00     0.000 C 
HETATM   13  C   UNL     1      38.489  53.401  43.287  1.00  0.00     0.005 C 
ENDBRANCH  11  12
ENDBRANCH   8  11
ENDBRANCH   4   5
BRANCH   4  14
HETATM   14  C   UNL     1      30.633  51.178  41.314  1.00  0.00     0.017 A 
HETATM   15  S   UNL     1      30.980  52.555  40.341  1.00  0.00    -0.104 SA
HETATM   16  C   UNL     1      29.374  53.121  40.449  1.00  0.00     0.050 A 
HETATM   17  C   UNL     1      28.580  52.285  41.202  1.00  0.00     0.008 A 
HETATM   18  C   UNL     1      29.305  51.164  41.701  1.00  0.00     0.017 A 
ENDBRANCH   4  14
ENDBRANCH   1   4
BRANCH   1  19
HETATM   19  C   UNL     1      31.301  48.167  40.098  1.00  0.00     0.336 C 
BRANCH  19  20
HETATM   20  C   UNL     1      30.113  48.602  39.236  1.00  0.00     0.248 C 
HETATM   21  N   UNL     1      28.892  48.094  39.627  1.00  0.00    -0.326 N 
HETATM   22  H   UNL     1      28.858  47.448  40.409  1.00  0.00     0.169 HD
HETATM   23  O   UNL     1      30.339  49.386  38.315  1.00  0.00    -0.271 OA
BRANCH  21  24
HETATM   24  C   UNL     1      27.629  48.413  39.071  1.00  0.00     0.037 A 
HETATM   25  C   UNL     1      26.725  49.308  39.659  1.00  0.00     0.061 A 
HETATM   26  C   UNL     1      25.521  49.499  39.018  1.00  0.00     0.065 A 
HETATM   27  C   UNL     1      25.192  48.847  37.833  1.00  0.00     0.063 A 
HETATM   28  N   UNL     1      24.449  50.309  39.372  1.00  0.00    -0.306 N 
HETATM   29  N   UNL     1      23.917  49.253  37.460  1.00  0.00    -0.307 N 
HETATM   30  C   UNL     1      26.053  47.971  37.224  1.00  0.00     0.034 A 
HETATM   31  C   UNL     1      23.438  50.166  38.410  1.00  0.00     0.325 A 
HETATM   32  H   UNL     1      23.389  48.965  36.652  1.00  0.00     0.170 HD
HETATM   33  O   UNL     1      22.357  50.725  38.404  1.00  0.00    -0.247 OA
HETATM   34  C   UNL     1      27.286  47.758  37.857  1.00  0.00     0.032 A 
HETATM   35  H   UNL     1      24.367  50.913  40.175  1.00  0.00     0.170 HD
ENDBRANCH  21  24
ENDBRANCH  19  20
ENDBRANCH   1  19
TORSDOF 8
ENDMDL
