MODEL 1
REMARK VINA RESULT:      -9.4      0.000      0.000
REMARK  2 active torsions:
REMARK  status: ('A' for Active; 'I' for Inactive)
REMARK    1  A    between atoms: C_4  and  C_5 
REMARK       I    between atoms: N_12  and  C_13 
REMARK    2  A    between atoms: C_13  and  C_14 
ROOT
HETATM    1  C   UNL     1      27.432  45.571  53.877  1.00  0.00     0.070 A 
HETATM    2  N   UNL     1      26.772  46.589  54.525  1.00  0.00    -0.277 N 
HETATM    3  H   UNL     1      26.955  46.948  55.455  1.00  0.00     0.189 HD
HETATM    4  N   UNL     1      25.792  47.163  53.802  1.00  0.00    -0.178 NA
HETATM    5  C   UNL     1      25.825  46.485  52.655  1.00  0.00     0.066 A 
HETATM    6  C   UNL     1      26.823  45.486  52.638  1.00  0.00     0.015 A 
HETATM    7  C   UNL     1      27.072  44.581  51.485  1.00  0.00     0.169 C 
HETATM    8  N   UNL     1      26.050  44.782  50.439  1.00  0.00    -0.343 N 
HETATM    9  C   UNL     1      25.579  43.775  49.602  1.00  0.00     0.254 C 
HETATM   10  O   UNL     1      24.661  43.926  48.800  1.00  0.00    -0.267 OA
HETATM   11  C   UNL     1      25.549  46.156  50.238  1.00  0.00     0.132 C 
HETATM   12  C   UNL     1      24.910  46.732  51.513  1.00  0.00     0.081 C 
ENDROOT
BRANCH   9  13
HETATM   13  C   UNL     1      26.196  42.432  49.675  1.00  0.00     0.035 A 
HETATM   14  C   UNL     1      27.258  42.089  48.828  1.00  0.00     0.056 A 
HETATM   15  C   UNL     1      27.789  40.825  48.967  1.00  0.00     0.106 A 
HETATM   16  C   UNL     1      27.287  39.919  49.875  1.00  0.00     0.105 A 
HETATM   17  O   UNL     1      28.836  40.323  48.258  1.00  0.00    -0.323 OA
HETATM   18  O   UNL     1      27.957  38.736  49.849  1.00  0.00    -0.323 OA
HETATM   19  C   UNL     1      26.219  40.221  50.694  1.00  0.00     0.041 A 
HETATM   20  C   UNL     1      28.941  39.001  48.828  1.00  0.00     0.352 A 
HETATM   21  C   UNL     1      25.663  41.498  50.587  1.00  0.00     0.020 A 
ENDBRANCH   9  13
BRANCH   1  22
HETATM   22  C   UNL     1      28.533  44.826  54.475  1.00  0.00    -0.007 A 
HETATM   23  C   UNL     1      28.830  43.525  54.046  1.00  0.00     0.014 A 
HETATM   24  C   UNL     1      29.891  42.816  54.617  1.00  0.00     0.001 A 
HETATM   25  C   UNL     1      30.661  43.400  55.620  1.00  0.00     0.000 A 
HETATM   26  C   UNL     1      30.373  44.692  56.055  1.00  0.00     0.001 A 
HETATM   27  C   UNL     1      29.313  45.401  55.485  1.00  0.00     0.014 A 
ENDBRANCH   1  22
TORSDOF 2
ENDMDL
MODEL 2
REMARK VINA RESULT:      -9.3      2.533      5.233
REMARK  2 active torsions:
REMARK  status: ('A' for Active; 'I' for Inactive)
REMARK    1  A    between atoms: C_4  and  C_5 
REMARK       I    between atoms: N_12  and  C_13 
REMARK    2  A    between atoms: C_13  and  C_14 
ROOT
HETATM    1  C   UNL     1      28.583  42.698  53.539  1.00  0.00     0.070 A 
HETATM    2  N   UNL     1      29.193  41.469  53.627  1.00  0.00    -0.277 N 
HETATM    3  H   UNL     1      29.936  41.194  54.258  1.00  0.00     0.189 HD
HETATM    4  N   UNL     1      28.706  40.546  52.775  1.00  0.00    -0.178 NA
HETATM    5  C   UNL     1      27.756  41.211  52.119  1.00  0.00     0.066 A 
HETATM    6  C   UNL     1      27.628  42.550  52.549  1.00  0.00     0.015 A 
HETATM    7  C   UNL     1      26.649  43.515  51.980  1.00  0.00     0.169 C 
HETATM    8  N   UNL     1      25.946  42.919  50.827  1.00  0.00    -0.343 N 
HETATM    9  C   UNL     1      25.501  43.642  49.724  1.00  0.00     0.254 C 
HETATM   10  O   UNL     1      25.003  43.128  48.726  1.00  0.00    -0.267 OA
HETATM   11  C   UNL     1      25.648  41.475  50.889  1.00  0.00     0.132 C 
HETATM   12  C   UNL     1      26.921  40.626  51.041  1.00  0.00     0.081 C 
ENDROOT
BRANCH   9  13
HETATM   13  C   UNL     1      25.639  45.115  49.726  1.00  0.00     0.035 A 
HETATM   14  C   UNL     1      26.839  45.719  49.333  1.00  0.00     0.056 A 
HETATM   15  C   UNL     1      26.884  47.097  49.349  1.00  0.00     0.106 A 
HETATM   16  C   UNL     1      25.811  47.856  49.759  1.00  0.00     0.105 A 
HETATM   17  O   UNL     1      27.947  47.859  48.976  1.00  0.00    -0.323 OA
HETATM   18  O   UNL     1      26.067  49.190  49.694  1.00  0.00    -0.323 OA
HETATM   19  C   UNL     1      24.631  47.283  50.185  1.00  0.00     0.041 A 
HETATM   20  C   UNL     1      27.419  49.185  49.191  1.00  0.00     0.352 A 
HETATM   21  C   UNL     1      24.547  45.889  50.171  1.00  0.00     0.020 A 
ENDBRANCH   9  13
BRANCH   1  22
HETATM   22  C   UNL     1      28.949  43.833  54.378  1.00  0.00    -0.007 A 
HETATM   23  C   UNL     1      28.158  44.989  54.399  1.00  0.00     0.014 A 
HETATM   24  C   UNL     1      28.508  46.072  55.210  1.00  0.00     0.001 A 
HETATM   25  C   UNL     1      29.650  46.008  56.004  1.00  0.00     0.000 A 
HETATM   26  C   UNL     1      30.445  44.865  55.989  1.00  0.00     0.001 A 
HETATM   27  C   UNL     1      30.095  43.781  55.180  1.00  0.00     0.014 A 
ENDBRANCH   1  22
TORSDOF 2
ENDMDL
MODEL 3
REMARK VINA RESULT:      -9.1      2.906      6.835
REMARK  2 active torsions:
REMARK  status: ('A' for Active; 'I' for Inactive)
REMARK    1  A    between atoms: C_4  and  C_5 
REMARK       I    between atoms: N_12  and  C_13 
REMARK    2  A    between atoms: C_13  and  C_14 
ROOT
HETATM    1  C   UNL     1      25.519  43.893  49.764  1.00  0.00     0.070 A 
HETATM    2  N   UNL     1      24.570  43.172  49.078  1.00  0.00    -0.277 N 
HETATM    3  H   UNL     1      23.829  43.534  48.488  1.00  0.00     0.189 HD
HETATM    4  N   UNL     1      24.683  41.837  49.213  1.00  0.00    -0.178 NA
HETATM    5  C   UNL     1      25.738  41.702  50.016  1.00  0.00     0.066 A 
HETATM    6  C   UNL     1      26.303  42.941  50.390  1.00  0.00     0.015 A 
HETATM    7  C   UNL     1      27.483  43.077  51.285  1.00  0.00     0.169 C 
HETATM    8  N   UNL     1      27.879  41.761  51.825  1.00  0.00    -0.343 N 
HETATM    9  C   UNL     1      28.437  41.570  53.086  1.00  0.00     0.254 C 
HETATM   10  O   UNL     1      28.675  40.465  53.566  1.00  0.00    -0.267 OA
HETATM   11  C   UNL     1      27.723  40.592  50.939  1.00  0.00     0.132 C 
HETATM   12  C   UNL     1      26.267  40.397  50.485  1.00  0.00     0.081 C 
ENDROOT
BRANCH   9  13
HETATM   13  C   UNL     1      28.759  42.750  53.917  1.00  0.00     0.035 A 
HETATM   14  C   UNL     1      27.795  43.739  54.154  1.00  0.00     0.056 A 
HETATM   15  C   UNL     1      28.167  44.800  54.951  1.00  0.00     0.106 A 
HETATM   16  C   UNL     1      29.436  44.911  55.472  1.00  0.00     0.105 A 
HETATM   17  O   UNL     1      27.365  45.837  55.314  1.00  0.00    -0.323 OA
HETATM   18  O   UNL     1      29.589  46.030  56.229  1.00  0.00    -0.323 OA
HETATM   19  C   UNL     1      30.413  43.968  55.224  1.00  0.00     0.041 A 
HETATM   20  C   UNL     1      28.272  46.609  56.130  1.00  0.00     0.352 A 
HETATM   21  C   UNL     1      30.067  42.873  54.429  1.00  0.00     0.020 A 
ENDBRANCH   9  13
BRANCH   1  22
HETATM   22  C   UNL     1      25.585  45.349  49.744  1.00  0.00    -0.007 A 
HETATM   23  C   UNL     1      24.421  46.118  49.880  1.00  0.00     0.014 A 
HETATM   24  C   UNL     1      24.489  47.514  49.867  1.00  0.00     0.001 A 
HETATM   25  C   UNL     1      25.719  48.151  49.719  1.00  0.00     0.000 A 
HETATM   26  C   UNL     1      26.881  47.397  49.581  1.00  0.00     0.001 A 
HETATM   27  C   UNL     1      26.814  46.002  49.594  1.00  0.00     0.014 A 
ENDBRANCH   1  22
TORSDOF 2
ENDMDL
MODEL 4
REMARK VINA RESULT:      -9.1      3.431      6.419
REMARK  2 active torsions:
REMARK  status: ('A' for Active; 'I' for Inactive)
REMARK    1  A    between atoms: C_4  and  C_5 
REMARK       I    between atoms: N_12  and  C_13 
REMARK    2  A    between atoms: C_13  and  C_14 
ROOT
HETATM    1  C   UNL     1      27.179  43.837  51.395  1.00  0.00     0.070 A 
HETATM    2  N   UNL     1      26.732  44.311  50.185  1.00  0.00    -0.277 N 
HETATM    3  H   UNL     1      26.744  43.830  49.292  1.00  0.00     0.189 HD
HETATM    4  N   UNL     1      26.206  45.550  50.234  1.00  0.00    -0.178 NA
HETATM    5  C   UNL     1      26.327  45.879  51.520  1.00  0.00     0.066 A 
HETATM    6  C   UNL     1      26.920  44.857  52.293  1.00  0.00     0.015 A 
HETATM    7  C   UNL     1      27.177  44.965  53.754  1.00  0.00     0.169 C 
HETATM    8  N   UNL     1      26.858  46.323  54.237  1.00  0.00    -0.343 N 
HETATM    9  C   UNL     1      27.529  46.961  55.276  1.00  0.00     0.254 C 
HETATM   10  O   UNL     1      27.324  48.125  55.609  1.00  0.00    -0.267 OA
HETATM   11  C   UNL     1      25.714  47.013  53.609  1.00  0.00     0.132 C 
HETATM   12  C   UNL     1      25.899  47.180  52.092  1.00  0.00     0.081 C 
ENDROOT
BRANCH   9  13
HETATM   13  C   UNL     1      28.563  46.216  56.029  1.00  0.00     0.035 A 
HETATM   14  C   UNL     1      29.387  45.288  55.380  1.00  0.00     0.056 A 
HETATM   15  C   UNL     1      30.335  44.646  56.147  1.00  0.00     0.106 A 
HETATM   16  C   UNL     1      30.457  44.876  57.499  1.00  0.00     0.105 A 
HETATM   17  O   UNL     1      31.240  43.738  55.691  1.00  0.00    -0.323 OA
HETATM   18  O   UNL     1      31.455  44.142  58.060  1.00  0.00    -0.323 OA
HETATM   19  C   UNL     1      29.634  45.758  58.167  1.00  0.00     0.041 A 
HETATM   20  C   UNL     1      31.951  43.429  56.909  1.00  0.00     0.352 A 
HETATM   21  C   UNL     1      28.668  46.435  57.418  1.00  0.00     0.020 A 
ENDBRANCH   9  13
BRANCH   1  22
HETATM   22  C   UNL     1      27.771  42.516  51.566  1.00  0.00    -0.007 A 
HETATM   23  C   UNL     1      27.663  41.549  50.557  1.00  0.00     0.014 A 
HETATM   24  C   UNL     1      28.237  40.286  50.721  1.00  0.00     0.001 A 
HETATM   25  C   UNL     1      28.924  39.979  51.894  1.00  0.00     0.000 A 
HETATM   26  C   UNL     1      29.036  40.931  52.904  1.00  0.00     0.001 A 
HETATM   27  C   UNL     1      28.462  42.194  52.740  1.00  0.00     0.014 A 
ENDBRANCH   1  22
TORSDOF 2
ENDMDL
MODEL 5
REMARK VINA RESULT:      -9.0      2.507      5.509
REMARK  2 active torsions:
REMARK  status: ('A' for Active; 'I' for Inactive)
REMARK    1  A    between atoms: C_4  and  C_5 
REMARK       I    between atoms: N_12  and  C_13 
REMARK    2  A    between atoms: C_13  and  C_14 
ROOT
HETATM    1  C   UNL     1      28.384  42.960  53.372  1.00  0.00     0.070 A 
HETATM    2  N   UNL     1      29.203  41.859  53.460  1.00  0.00    -0.277 N 
HETATM    3  H   UNL     1      29.964  41.708  54.111  1.00  0.00     0.189 HD
HETATM    4  N   UNL     1      28.916  40.882  52.578  1.00  0.00    -0.178 NA
HETATM    5  C   UNL     1      27.881  41.380  51.901  1.00  0.00     0.066 A 
HETATM    6  C   UNL     1      27.501  42.664  52.349  1.00  0.00     0.015 A 
HETATM    7  C   UNL     1      26.381  43.450  51.764  1.00  0.00     0.169 C 
HETATM    8  N   UNL     1      25.831  42.763  50.578  1.00  0.00    -0.343 N 
HETATM    9  C   UNL     1      25.296  43.418  49.473  1.00  0.00     0.254 C 
HETATM   10  O   UNL     1      24.929  42.845  48.451  1.00  0.00    -0.267 OA
HETATM   11  C   UNL     1      25.797  41.287  50.607  1.00  0.00     0.132 C 
HETATM   12  C   UNL     1      27.197  40.678  50.787  1.00  0.00     0.081 C 
ENDROOT
BRANCH   9  13
HETATM   13  C   UNL     1      25.166  44.891  49.505  1.00  0.00     0.035 A 
HETATM   14  C   UNL     1      23.916  45.500  49.330  1.00  0.00     0.056 A 
HETATM   15  C   UNL     1      23.875  46.876  49.387  1.00  0.00     0.106 A 
HETATM   16  C   UNL     1      25.009  47.633  49.578  1.00  0.00     0.105 A 
HETATM   17  O   UNL     1      22.756  47.641  49.268  1.00  0.00    -0.323 OA
HETATM   18  O   UNL     1      24.743  48.966  49.604  1.00  0.00    -0.323 OA
HETATM   19  C   UNL     1      26.255  47.058  49.717  1.00  0.00     0.041 A 
HETATM   20  C   UNL     1      23.313  48.964  49.414  1.00  0.00     0.352 A 
HETATM   21  C   UNL     1      26.333  45.664  49.676  1.00  0.00     0.020 A 
ENDBRANCH   9  13
BRANCH   1  22
HETATM   22  C   UNL     1      28.514  44.123  54.241  1.00  0.00    -0.007 A 
HETATM   23  C   UNL     1      27.538  45.128  54.239  1.00  0.00     0.014 A 
HETATM   24  C   UNL     1      27.663  46.238  55.079  1.00  0.00     0.001 A 
HETATM   25  C   UNL     1      28.763  46.353  55.926  1.00  0.00     0.000 A 
HETATM   26  C   UNL     1      29.739  45.360  55.934  1.00  0.00     0.001 A 
HETATM   27  C   UNL     1      29.615  44.250  55.096  1.00  0.00     0.014 A 
ENDBRANCH   1  22
TORSDOF 2
ENDMDL
MODEL 6
REMARK VINA RESULT:      -8.5      4.771      6.619
REMARK  2 active torsions:
REMARK  status: ('A' for Active; 'I' for Inactive)
REMARK    1  A    between atoms: C_4  and  C_5 
REMARK       I    between atoms: N_12  and  C_13 
REMARK    2  A    between atoms: C_13  and  C_14 
ROOT
HETATM    1  C   UNL     1      23.169  49.246  49.131  1.00  0.00     0.070 A 
HETATM    2  N   UNL     1      22.509  50.369  49.571  1.00  0.00    -0.277 N 
HETATM    3  H   UNL     1      22.919  51.239  49.890  1.00  0.00     0.189 HD
HETATM    4  N   UNL     1      21.166  50.271  49.540  1.00  0.00    -0.178 NA
HETATM    5  C   UNL     1      20.963  49.041  49.068  1.00  0.00     0.066 A 
HETATM    6  C   UNL     1      22.166  48.356  48.792  1.00  0.00     0.015 A 
HETATM    7  C   UNL     1      22.227  46.967  48.262  1.00  0.00     0.169 C 
HETATM    8  N   UNL     1      20.875  46.375  48.206  1.00  0.00    -0.343 N 
HETATM    9  C   UNL     1      20.605  45.023  48.396  1.00  0.00     0.254 C 
HETATM   10  O   UNL     1      19.472  44.553  48.443  1.00  0.00    -0.267 OA
HETATM   11  C   UNL     1      19.756  47.275  47.864  1.00  0.00     0.132 C 
HETATM   12  C   UNL     1      19.623  48.438  48.860  1.00  0.00     0.081 C 
ENDROOT
BRANCH   9  13
HETATM   13  C   UNL     1      21.734  44.082  48.568  1.00  0.00     0.035 A 
HETATM   14  C   UNL     1      22.363  43.942  49.811  1.00  0.00     0.056 A 
HETATM   15  C   UNL     1      23.397  43.034  49.893  1.00  0.00     0.106 A 
HETATM   16  C   UNL     1      23.821  42.311  48.801  1.00  0.00     0.105 A 
HETATM   17  O   UNL     1      24.107  42.742  51.017  1.00  0.00    -0.323 OA
HETATM   18  O   UNL     1      24.850  41.474  49.103  1.00  0.00    -0.323 OA
HETATM   19  C   UNL     1      23.241  42.458  47.558  1.00  0.00     0.041 A 
HETATM   20  C   UNL     1      25.021  41.747  50.509  1.00  0.00     0.352 A 
HETATM   21  C   UNL     1      22.182  43.361  47.441  1.00  0.00     0.020 A 
ENDBRANCH   9  13
BRANCH   1  22
HETATM   22  C   UNL     1      24.622  49.146  49.071  1.00  0.00    -0.007 A 
HETATM   23  C   UNL     1      25.371  50.071  48.333  1.00  0.00     0.014 A 
HETATM   24  C   UNL     1      26.764  49.976  48.284  1.00  0.00     0.001 A 
HETATM   25  C   UNL     1      27.419  48.956  48.970  1.00  0.00     0.000 A 
HETATM   26  C   UNL     1      26.684  48.030  49.706  1.00  0.00     0.001 A 
HETATM   27  C   UNL     1      25.291  48.124  49.756  1.00  0.00     0.014 A 
ENDBRANCH   1  22
TORSDOF 2
ENDMDL
MODEL 7
REMARK VINA RESULT:      -8.3      3.006      6.884
REMARK  2 active torsions:
REMARK  status: ('A' for Active; 'I' for Inactive)
REMARK    1  A    between atoms: C_4  and  C_5 
REMARK       I    between atoms: N_12  and  C_13 
REMARK    2  A    between atoms: C_13  and  C_14 
ROOT
HETATM    1  C   UNL     1      28.054  41.051  50.793  1.00  0.00     0.070 A 
HETATM    2  N   UNL     1      28.540  40.041  51.590  1.00  0.00    -0.277 N 
HETATM    3  H   UNL     1      28.713  39.078  51.326  1.00  0.00     0.189 HD
HETATM    4  N   UNL     1      28.825  40.418  52.851  1.00  0.00    -0.178 NA
HETATM    5  C   UNL     1      28.507  41.712  52.860  1.00  0.00     0.066 A 
HETATM    6  C   UNL     1      28.026  42.165  51.612  1.00  0.00     0.015 A 
HETATM    7  C   UNL     1      27.594  43.564  51.348  1.00  0.00     0.169 C 
HETATM    8  N   UNL     1      27.608  44.355  52.594  1.00  0.00    -0.343 N 
HETATM    9  C   UNL     1      26.723  45.392  52.872  1.00  0.00     0.254 C 
HETATM   10  O   UNL     1      26.678  45.982  53.948  1.00  0.00    -0.267 OA
HETATM   11  C   UNL     1      28.672  44.055  53.573  1.00  0.00     0.132 C 
HETATM   12  C   UNL     1      28.628  42.593  54.047  1.00  0.00     0.081 C 
ENDROOT
BRANCH   9  13
HETATM   13  C   UNL     1      25.764  45.818  51.829  1.00  0.00     0.035 A 
HETATM   14  C   UNL     1      25.777  47.131  51.342  1.00  0.00     0.056 A 
HETATM   15  C   UNL     1      24.862  47.446  50.361  1.00  0.00     0.106 A 
HETATM   16  C   UNL     1      23.950  46.527  49.892  1.00  0.00     0.105 A 
HETATM   17  O   UNL     1      24.741  48.654  49.748  1.00  0.00    -0.323 OA
HETATM   18  O   UNL     1      23.144  47.044  48.927  1.00  0.00    -0.323 OA
HETATM   19  C   UNL     1      23.894  45.238  50.382  1.00  0.00     0.041 A 
HETATM   20  C   UNL     1      23.655  48.389  48.835  1.00  0.00     0.352 A 
HETATM   21  C   UNL     1      24.815  44.881  51.370  1.00  0.00     0.020 A 
ENDBRANCH   9  13
BRANCH   1  22
HETATM   22  C   UNL     1      27.694  40.860  49.393  1.00  0.00    -0.007 A 
HETATM   23  C   UNL     1      26.385  41.098  48.955  1.00  0.00     0.014 A 
HETATM   24  C   UNL     1      26.045  40.921  47.611  1.00  0.00     0.001 A 
HETATM   25  C   UNL     1      27.010  40.505  46.696  1.00  0.00     0.000 A 
HETATM   26  C   UNL     1      28.314  40.264  47.122  1.00  0.00     0.001 A 
HETATM   27  C   UNL     1      28.654  40.441  48.465  1.00  0.00     0.014 A 
ENDBRANCH   1  22
TORSDOF 2
ENDMDL
MODEL 8
REMARK VINA RESULT:      -7.9      6.611     10.108
REMARK  2 active torsions:
REMARK  status: ('A' for Active; 'I' for Inactive)
REMARK    1  A    between atoms: C_4  and  C_5 
REMARK       I    between atoms: N_12  and  C_13 
REMARK    2  A    between atoms: C_13  and  C_14 
ROOT
HETATM    1  C   UNL     1      21.790  50.394  48.454  1.00  0.00     0.070 A 
HETATM    2  N   UNL     1      22.863  51.180  48.801  1.00  0.00    -0.277 N 
HETATM    3  H   UNL     1      22.897  52.192  48.842  1.00  0.00     0.189 HD
HETATM    4  N   UNL     1      23.970  50.491  49.140  1.00  0.00    -0.178 NA
HETATM    5  C   UNL     1      23.590  49.221  48.999  1.00  0.00     0.066 A 
HETATM    6  C   UNL     1      22.247  49.094  48.580  1.00  0.00     0.015 A 
HETATM    7  C   UNL     1      21.573  47.791  48.340  1.00  0.00     0.169 C 
HETATM    8  N   UNL     1      22.536  46.679  48.465  1.00  0.00    -0.343 N 
HETATM    9  C   UNL     1      22.467  45.499  47.730  1.00  0.00     0.254 C 
HETATM   10  O   UNL     1      23.323  44.619  47.768  1.00  0.00    -0.267 OA
HETATM   11  C   UNL     1      23.597  46.814  49.482  1.00  0.00     0.132 C 
HETATM   12  C   UNL     1      24.474  48.054  49.242  1.00  0.00     0.081 C 
ENDROOT
BRANCH   9  13
HETATM   13  C   UNL     1      21.311  45.276  46.833  1.00  0.00     0.035 A 
HETATM   14  C   UNL     1      20.075  44.870  47.351  1.00  0.00     0.056 A 
HETATM   15  C   UNL     1      19.044  44.698  46.454  1.00  0.00     0.106 A 
HETATM   16  C   UNL     1      19.216  44.886  45.101  1.00  0.00     0.105 A 
HETATM   17  O   UNL     1      17.771  44.336  46.769  1.00  0.00    -0.323 OA
HETATM   18  O   UNL     1      18.072  44.666  44.398  1.00  0.00    -0.323 OA
HETATM   19  C   UNL     1      20.433  45.251  44.563  1.00  0.00     0.041 A 
HETATM   20  C   UNL     1      17.159  44.325  45.462  1.00  0.00     0.352 A 
HETATM   21  C   UNL     1      21.498  45.445  45.446  1.00  0.00     0.020 A 
ENDBRANCH   9  13
BRANCH   1  22
HETATM   22  C   UNL     1      20.494  50.937  48.067  1.00  0.00    -0.007 A 
HETATM   23  C   UNL     1      19.897  51.961  48.814  1.00  0.00     0.014 A 
HETATM   24  C   UNL     1      18.658  52.485  48.436  1.00  0.00     0.001 A 
HETATM   25  C   UNL     1      18.005  51.989  47.310  1.00  0.00     0.000 A 
HETATM   26  C   UNL     1      18.588  50.969  46.561  1.00  0.00     0.001 A 
HETATM   27  C   UNL     1      19.827  50.446  46.938  1.00  0.00     0.014 A 
ENDBRANCH   1  22
TORSDOF 2
ENDMDL
MODEL 9
REMARK VINA RESULT:      -7.9      3.447      6.615
REMARK  2 active torsions:
REMARK  status: ('A' for Active; 'I' for Inactive)
REMARK    1  A    between atoms: C_4  and  C_5 
REMARK       I    between atoms: N_12  and  C_13 
REMARK    2  A    between atoms: C_13  and  C_14 
ROOT
HETATM    1  C   UNL     1      26.289  43.719  52.199  1.00  0.00     0.070 A 
HETATM    2  N   UNL     1      26.894  42.489  52.092  1.00  0.00    -0.277 N 
HETATM    3  H   UNL     1      27.688  42.145  52.621  1.00  0.00     0.189 HD
HETATM    4  N   UNL     1      26.326  41.668  51.188  1.00  0.00    -0.178 NA
HETATM    5  C   UNL     1      25.327  42.401  50.698  1.00  0.00     0.066 A 
HETATM    6  C   UNL     1      25.249  43.683  51.287  1.00  0.00     0.015 A 
HETATM    7  C   UNL     1      24.232  44.704  50.920  1.00  0.00     0.169 C 
HETATM    8  N   UNL     1      23.425  44.242  49.774  1.00  0.00    -0.343 N 
HETATM    9  C   UNL     1      22.891  45.085  48.803  1.00  0.00     0.254 C 
HETATM   10  O   UNL     1      22.302  44.686  47.802  1.00  0.00    -0.267 OA
HETATM   11  C   UNL     1      23.121  42.800  49.698  1.00  0.00     0.132 C 
HETATM   12  C   UNL     1      24.395  41.941  49.639  1.00  0.00     0.081 C 
ENDROOT
BRANCH   9  13
HETATM   13  C   UNL     1      23.040  46.548  48.961  1.00  0.00     0.035 A 
HETATM   14  C   UNL     1      21.935  47.397  48.819  1.00  0.00     0.056 A 
HETATM   15  C   UNL     1      22.153  48.746  48.995  1.00  0.00     0.106 A 
HETATM   16  C   UNL     1      23.403  49.253  49.270  1.00  0.00     0.105 A 
HETATM   17  O   UNL     1      21.203  49.718  48.925  1.00  0.00    -0.323 OA
HETATM   18  O   UNL     1      23.394  50.606  49.407  1.00  0.00    -0.323 OA
HETATM   19  C   UNL     1      24.513  48.441  49.378  1.00  0.00     0.041 A 
HETATM   20  C   UNL     1      21.997  50.893  49.195  1.00  0.00     0.352 A 
HETATM   21  C   UNL     1      24.327  47.066  49.217  1.00  0.00     0.020 A 
ENDBRANCH   9  13
BRANCH   1  22
HETATM   22  C   UNL     1      26.737  44.751  53.125  1.00  0.00    -0.007 A 
HETATM   23  C   UNL     1      27.661  44.452  54.135  1.00  0.00     0.014 A 
HETATM   24  C   UNL     1      28.093  45.446  55.017  1.00  0.00     0.001 A 
HETATM   25  C   UNL     1      27.606  46.746  54.897  1.00  0.00     0.000 A 
HETATM   26  C   UNL     1      26.686  47.053  53.898  1.00  0.00     0.001 A 
HETATM   27  C   UNL     1      26.253  46.061  53.016  1.00  0.00     0.014 A 
ENDBRANCH   1  22
TORSDOF 2
ENDMDL
MODEL 10
REMARK VINA RESULT:      -7.8      2.149      4.857
REMARK  2 active torsions:
REMARK  status: ('A' for Active; 'I' for Inactive)
REMARK    1  A    between atoms: C_4  and  C_5 
REMARK       I    between atoms: N_12  and  C_13 
REMARK    2  A    between atoms: C_13  and  C_14 
ROOT
HETATM    1  C   UNL     1      26.881  44.752  52.361  1.00  0.00     0.070 A 
HETATM    2  N   UNL     1      27.541  45.410  53.371  1.00  0.00    -0.277 N 
HETATM    3  H   UNL     1      27.439  46.381  53.643  1.00  0.00     0.189 HD
HETATM    4  N   UNL     1      28.396  44.639  54.070  1.00  0.00    -0.178 NA
HETATM    5  C   UNL     1      28.281  43.449  53.482  1.00  0.00     0.066 A 
HETATM    6  C   UNL     1      27.354  43.453  52.416  1.00  0.00     0.015 A 
HETATM    7  C   UNL     1      27.038  42.259  51.586  1.00  0.00     0.169 C 
HETATM    8  N   UNL     1      27.924  41.133  51.942  1.00  0.00    -0.343 N 
HETATM    9  C   UNL     1      28.364  40.169  51.040  1.00  0.00     0.254 C 
HETATM   10  O   UNL     1      29.176  39.291  51.320  1.00  0.00    -0.267 OA
HETATM   11  C   UNL     1      28.309  40.997  53.360  1.00  0.00     0.132 C 
HETATM   12  C   UNL     1      29.045  42.242  53.883  1.00  0.00     0.081 C 
ENDROOT
BRANCH   9  13
HETATM   13  C   UNL     1      27.847  40.192  49.654  1.00  0.00     0.035 A 
HETATM   14  C   UNL     1      28.575  40.815  48.632  1.00  0.00     0.056 A 
HETATM   15  C   UNL     1      28.033  40.782  47.365  1.00  0.00     0.106 A 
HETATM   16  C   UNL     1      26.817  40.191  47.107  1.00  0.00     0.105 A 
HETATM   17  O   UNL     1      28.603  41.306  46.246  1.00  0.00    -0.323 OA
HETATM   18  O   UNL     1      26.472  40.268  45.794  1.00  0.00    -0.323 OA
HETATM   19  C   UNL     1      26.065  39.602  48.103  1.00  0.00     0.041 A 
HETATM   20  C   UNL     1      27.611  40.969  45.253  1.00  0.00     0.352 A 
HETATM   21  C   UNL     1      26.589  39.608  49.398  1.00  0.00     0.020 A 
ENDBRANCH   9  13
BRANCH   1  22
HETATM   22  C   UNL     1      25.904  45.396  51.492  1.00  0.00    -0.007 A 
HETATM   23  C   UNL     1      26.022  46.755  51.170  1.00  0.00     0.014 A 
HETATM   24  C   UNL     1      25.087  47.368  50.331  1.00  0.00     0.001 A 
HETATM   25  C   UNL     1      24.027  46.629  49.810  1.00  0.00     0.000 A 
HETATM   26  C   UNL     1      23.899  45.279  50.126  1.00  0.00     0.001 A 
HETATM   27  C   UNL     1      24.833  44.665  50.963  1.00  0.00     0.014 A 
ENDBRANCH   1  22
TORSDOF 2
ENDMDL
