MODEL 1
REMARK VINA RESULT:      -8.9      0.000      0.000
REMARK  6 active torsions:
REMARK  status: ('A' for Active; 'I' for Inactive)
REMARK    1  A    between atoms: C_2  and  O_3 
REMARK    2  A    between atoms: O_3  and  C_4 
REMARK    3  A    between atoms: C_7  and  C_8 
REMARK    4  A    between atoms: C_8  and  N_9 
REMARK       I    between atoms: N_9  and  C_10 
REMARK    5  A    between atoms: C_10  and  C_11 
REMARK    6  A    between atoms: C_15  and  C_16 
ROOT
HETATM    1  N   UNL     1      26.576  44.442  51.271  1.00  0.00    -0.347 N 
HETATM    2  C   UNL     1      26.610  45.322  50.209  1.00  0.00     0.272 C 
HETATM    3  O   UNL     1      27.595  45.487  49.494  1.00  0.00    -0.266 OA
HETATM    4  H   UNL     1      25.669  44.336  51.711  1.00  0.00     0.163 HD
ENDROOT
BRANCH   2   5
HETATM    5  C   UNL     1      25.332  46.007  49.963  1.00  0.00     0.146 A 
HETATM    6  N   UNL     1      24.168  45.346  49.807  1.00  0.00    -0.169 NA
HETATM    7  N   UNL     1      23.280  46.323  49.534  1.00  0.00    -0.277 N 
HETATM    8  H   UNL     1      22.320  46.056  49.347  1.00  0.00     0.189 HD
HETATM    9  C   UNL     1      23.813  47.586  49.494  1.00  0.00     0.063 A 
HETATM   10  C   UNL     1      25.149  47.402  49.791  1.00  0.00     0.071 A 
BRANCH   9  11
HETATM   11  C   UNL     1      23.061  48.792  49.146  1.00  0.00    -0.008 A 
HETATM   12  C   UNL     1      23.705  49.999  48.840  1.00  0.00     0.014 A 
HETATM   13  C   UNL     1      22.964  51.142  48.522  1.00  0.00     0.001 A 
HETATM   14  C   UNL     1      21.573  51.093  48.504  1.00  0.00     0.000 A 
HETATM   15  C   UNL     1      20.918  49.901  48.799  1.00  0.00     0.001 A 
HETATM   16  C   UNL     1      21.659  48.759  49.116  1.00  0.00     0.014 A 
ENDBRANCH   9  11
ENDBRANCH   2   5
BRANCH   1  17
HETATM   17  C   UNL     1      27.596  43.426  51.424  1.00  0.00     0.114 C 
HETATM   18  C   UNL     1      26.983  42.025  51.328  1.00  0.00     0.037 C 
BRANCH  17  19
HETATM   19  C   UNL     1      28.372  43.582  52.719  1.00  0.00    -0.036 A 
HETATM   20  C   UNL     1      29.564  42.884  52.964  1.00  0.00     0.012 A 
HETATM   21  C   UNL     1      30.308  43.119  54.129  1.00  0.00     0.037 A 
HETATM   22  C   UNL     1      29.875  44.062  55.060  1.00  0.00     0.068 A 
HETATM   23  C   UNL     1      28.672  44.732  54.841  1.00  0.00     0.037 A 
HETATM   24  C   UNL     1      27.928  44.499  53.683  1.00  0.00     0.012 A 
BRANCH  22  25
HETATM   25  O   UNL     1      30.523  44.413  56.211  1.00  0.00    -0.352 OA
BRANCH  25  26
HETATM   26  C   UNL     1      30.084  45.607  56.858  1.00  0.00     0.171 C 
HETATM   27  C   UNL     1      30.380  45.471  58.340  1.00  0.00     0.034 C 
ENDBRANCH  25  26
ENDBRANCH  22  25
ENDBRANCH  17  19
ENDBRANCH   1  17
TORSDOF 6
ENDMDL
MODEL 2
REMARK VINA RESULT:      -8.7      2.388      9.504
REMARK  6 active torsions:
REMARK  status: ('A' for Active; 'I' for Inactive)
REMARK    1  A    between atoms: C_2  and  O_3 
REMARK    2  A    between atoms: O_3  and  C_4 
REMARK    3  A    between atoms: C_7  and  C_8 
REMARK    4  A    between atoms: C_8  and  N_9 
REMARK       I    between atoms: N_9  and  C_10 
REMARK    5  A    between atoms: C_10  and  C_11 
REMARK    6  A    between atoms: C_15  and  C_16 
ROOT
HETATM    1  N   UNL     1      25.910  46.316  51.722  1.00  0.00    -0.347 N 
HETATM    2  C   UNL     1      25.750  45.595  52.888  1.00  0.00     0.272 C 
HETATM    3  O   UNL     1      24.861  44.766  53.058  1.00  0.00    -0.266 OA
HETATM    4  H   UNL     1      26.744  46.892  51.686  1.00  0.00     0.163 HD
ENDROOT
BRANCH   2   5
HETATM    5  C   UNL     1      26.786  45.859  53.898  1.00  0.00     0.146 A 
HETATM    6  N   UNL     1      27.164  47.104  54.249  1.00  0.00    -0.169 NA
HETATM    7  N   UNL     1      28.164  46.899  55.128  1.00  0.00    -0.277 N 
HETATM    8  H   UNL     1      28.633  47.711  55.514  1.00  0.00     0.189 HD
HETATM    9  C   UNL     1      28.461  45.580  55.359  1.00  0.00     0.063 A 
HETATM   10  C   UNL     1      27.558  44.885  54.579  1.00  0.00     0.071 A 
BRANCH   9  11
HETATM   11  C   UNL     1      29.553  45.114  56.215  1.00  0.00    -0.008 A 
HETATM   12  C   UNL     1      29.791  45.676  57.477  1.00  0.00     0.014 A 
HETATM   13  C   UNL     1      30.849  45.223  58.272  1.00  0.00     0.001 A 
HETATM   14  C   UNL     1      31.681  44.203  57.816  1.00  0.00     0.000 A 
HETATM   15  C   UNL     1      31.454  43.630  56.569  1.00  0.00     0.001 A 
HETATM   16  C   UNL     1      30.397  44.083  55.775  1.00  0.00     0.014 A 
ENDBRANCH   9  11
ENDBRANCH   2   5
BRANCH   1  17
HETATM   17  C   UNL     1      25.230  45.921  50.508  1.00  0.00     0.114 C 
HETATM   18  C   UNL     1      26.158  45.093  49.612  1.00  0.00     0.037 C 
BRANCH  17  19
HETATM   19  C   UNL     1      24.675  47.111  49.747  1.00  0.00    -0.036 A 
HETATM   20  C   UNL     1      25.421  48.280  49.540  1.00  0.00     0.012 A 
HETATM   21  C   UNL     1      24.916  49.325  48.753  1.00  0.00     0.037 A 
HETATM   22  C   UNL     1      23.663  49.211  48.155  1.00  0.00     0.068 A 
HETATM   23  C   UNL     1      22.899  48.067  48.387  1.00  0.00     0.037 A 
HETATM   24  C   UNL     1      23.398  47.026  49.171  1.00  0.00     0.012 A 
BRANCH  22  25
HETATM   25  O   UNL     1      23.074  50.135  47.337  1.00  0.00    -0.352 OA
BRANCH  25  26
HETATM   26  C   UNL     1      21.700  50.429  47.583  1.00  0.00     0.171 C 
HETATM   27  C   UNL     1      21.617  51.235  48.867  1.00  0.00     0.034 C 
ENDBRANCH  25  26
ENDBRANCH  22  25
ENDBRANCH  17  19
ENDBRANCH   1  17
TORSDOF 6
ENDMDL
MODEL 3
REMARK VINA RESULT:      -8.6      3.660     10.250
REMARK  6 active torsions:
REMARK  status: ('A' for Active; 'I' for Inactive)
REMARK    1  A    between atoms: C_2  and  O_3 
REMARK    2  A    between atoms: O_3  and  C_4 
REMARK    3  A    between atoms: C_7  and  C_8 
REMARK    4  A    between atoms: C_8  and  N_9 
REMARK       I    between atoms: N_9  and  C_10 
REMARK    5  A    between atoms: C_10  and  C_11 
REMARK    6  A    between atoms: C_15  and  C_16 
ROOT
HETATM    1  N   UNL     1      22.581  48.898  49.312  1.00  0.00    -0.347 N 
HETATM    2  C   UNL     1      22.923  47.678  48.764  1.00  0.00     0.272 C 
HETATM    3  O   UNL     1      22.605  47.329  47.631  1.00  0.00    -0.266 OA
HETATM    4  H   UNL     1      22.994  49.092  50.218  1.00  0.00     0.163 HD
ENDROOT
BRANCH   2   5
HETATM    5  C   UNL     1      23.766  46.849  49.638  1.00  0.00     0.146 A 
HETATM    6  N   UNL     1      23.719  45.502  49.634  1.00  0.00    -0.169 NA
HETATM    7  N   UNL     1      24.577  45.150  50.612  1.00  0.00    -0.277 N 
HETATM    8  H   UNL     1      24.687  44.163  50.816  1.00  0.00     0.189 HD
HETATM    9  C   UNL     1      25.172  46.202  51.258  1.00  0.00     0.063 A 
HETATM   10  C   UNL     1      24.670  47.321  50.623  1.00  0.00     0.071 A 
BRANCH   9  11
HETATM   11  C   UNL     1      26.080  46.068  52.398  1.00  0.00    -0.008 A 
HETATM   12  C   UNL     1      26.777  44.879  52.649  1.00  0.00     0.014 A 
HETATM   13  C   UNL     1      27.630  44.771  53.753  1.00  0.00     0.001 A 
HETATM   14  C   UNL     1      27.797  45.849  54.617  1.00  0.00     0.000 A 
HETATM   15  C   UNL     1      27.118  47.040  54.379  1.00  0.00     0.001 A 
HETATM   16  C   UNL     1      26.266  47.147  53.275  1.00  0.00     0.014 A 
ENDBRANCH   9  11
ENDBRANCH   2   5
BRANCH   1  17
HETATM   17  C   UNL     1      22.090  49.973  48.477  1.00  0.00     0.114 C 
HETATM   18  C   UNL     1      23.135  51.088  48.358  1.00  0.00     0.037 C 
BRANCH  17  19
HETATM   19  C   UNL     1      20.769  50.531  48.976  1.00  0.00    -0.036 A 
HETATM   20  C   UNL     1      20.270  51.769  48.547  1.00  0.00     0.012 A 
HETATM   21  C   UNL     1      19.004  52.214  48.953  1.00  0.00     0.037 A 
HETATM   22  C   UNL     1      18.216  51.423  49.787  1.00  0.00     0.068 A 
HETATM   23  C   UNL     1      18.721  50.207  50.249  1.00  0.00     0.037 A 
HETATM   24  C   UNL     1      19.982  49.762  49.848  1.00  0.00     0.012 A 
BRANCH  22  25
HETATM   25  O   UNL     1      16.955  51.720  50.222  1.00  0.00    -0.352 OA
BRANCH  25  26
HETATM   26  C   UNL     1      16.417  52.980  49.822  1.00  0.00     0.171 C 
HETATM   27  C   UNL     1      14.939  52.987  50.168  1.00  0.00     0.034 C 
ENDBRANCH  25  26
ENDBRANCH  22  25
ENDBRANCH  17  19
ENDBRANCH   1  17
TORSDOF 6
ENDMDL
MODEL 4
REMARK VINA RESULT:      -8.6      3.054      9.968
REMARK  6 active torsions:
REMARK  status: ('A' for Active; 'I' for Inactive)
REMARK    1  A    between atoms: C_2  and  O_3 
REMARK    2  A    between atoms: O_3  and  C_4 
REMARK    3  A    between atoms: C_7  and  C_8 
REMARK    4  A    between atoms: C_8  and  N_9 
REMARK       I    between atoms: N_9  and  C_10 
REMARK    5  A    between atoms: C_10  and  C_11 
REMARK    6  A    between atoms: C_15  and  C_16 
ROOT
HETATM    1  N   UNL     1      23.686  48.212  50.003  1.00  0.00    -0.347 N 
HETATM    2  C   UNL     1      24.107  46.898  49.999  1.00  0.00     0.272 C 
HETATM    3  O   UNL     1      23.780  46.083  49.140  1.00  0.00    -0.266 OA
HETATM    4  H   UNL     1      24.113  48.796  50.714  1.00  0.00     0.163 HD
ENDROOT
BRANCH   2   5
HETATM    5  C   UNL     1      25.043  46.569  51.083  1.00  0.00     0.146 A 
HETATM    6  N   UNL     1      25.336  47.426  52.081  1.00  0.00    -0.169 NA
HETATM    7  N   UNL     1      26.269  46.772  52.801  1.00  0.00    -0.277 N 
HETATM    8  H   UNL     1      26.668  47.244  53.604  1.00  0.00     0.189 HD
HETATM    9  C   UNL     1      26.604  45.535  52.314  1.00  0.00     0.063 A 
HETATM   10  C   UNL     1      25.799  45.376  51.203  1.00  0.00     0.071 A 
BRANCH   9  11
HETATM   11  C   UNL     1      27.641  44.673  52.883  1.00  0.00    -0.008 A 
HETATM   12  C   UNL     1      28.057  44.803  54.216  1.00  0.00     0.014 A 
HETATM   13  C   UNL     1      29.060  43.976  54.734  1.00  0.00     0.001 A 
HETATM   14  C   UNL     1      29.658  43.010  53.927  1.00  0.00     0.000 A 
HETATM   15  C   UNL     1      29.252  42.865  52.605  1.00  0.00     0.001 A 
HETATM   16  C   UNL     1      28.249  43.691  52.088  1.00  0.00     0.014 A 
ENDBRANCH   9  11
ENDBRANCH   2   5
BRANCH   1  17
HETATM   17  C   UNL     1      23.081  48.800  48.827  1.00  0.00     0.114 C 
HETATM   18  C   UNL     1      23.989  49.885  48.237  1.00  0.00     0.037 C 
BRANCH  17  19
HETATM   19  C   UNL     1      21.698  49.356  49.110  1.00  0.00    -0.036 A 
HETATM   20  C   UNL     1      20.565  48.534  49.200  1.00  0.00     0.012 A 
HETATM   21  C   UNL     1      19.317  49.065  49.555  1.00  0.00     0.037 A 
HETATM   22  C   UNL     1      19.186  50.424  49.835  1.00  0.00     0.068 A 
HETATM   23  C   UNL     1      20.300  51.255  49.711  1.00  0.00     0.037 A 
HETATM   24  C   UNL     1      21.544  50.729  49.356  1.00  0.00     0.012 A 
BRANCH  22  25
HETATM   25  O   UNL     1      18.042  51.059  50.229  1.00  0.00    -0.352 OA
BRANCH  25  26
HETATM   26  C   UNL     1      17.816  52.366  49.700  1.00  0.00     0.171 C 
HETATM   27  C   UNL     1      16.388  52.762  50.029  1.00  0.00     0.034 C 
ENDBRANCH  25  26
ENDBRANCH  22  25
ENDBRANCH  17  19
ENDBRANCH   1  17
TORSDOF 6
ENDMDL
MODEL 5
REMARK VINA RESULT:      -8.5      2.220      9.315
REMARK  6 active torsions:
REMARK  status: ('A' for Active; 'I' for Inactive)
REMARK    1  A    between atoms: C_2  and  O_3 
REMARK    2  A    between atoms: O_3  and  C_4 
REMARK    3  A    between atoms: C_7  and  C_8 
REMARK    4  A    between atoms: C_8  and  N_9 
REMARK       I    between atoms: N_9  and  C_10 
REMARK    5  A    between atoms: C_10  and  C_11 
REMARK    6  A    between atoms: C_15  and  C_16 
ROOT
HETATM    1  N   UNL     1      25.673  44.797  51.069  1.00  0.00    -0.347 N 
HETATM    2  C   UNL     1      25.711  44.565  52.429  1.00  0.00     0.272 C 
HETATM    3  O   UNL     1      24.707  44.443  53.126  1.00  0.00    -0.266 OA
HETATM    4  H   UNL     1      26.575  44.776  50.606  1.00  0.00     0.163 HD
ENDROOT
BRANCH   2   5
HETATM    5  C   UNL     1      27.070  44.407  52.968  1.00  0.00     0.146 A 
HETATM    6  N   UNL     1      28.082  43.875  52.255  1.00  0.00    -0.169 NA
HETATM    7  N   UNL     1      29.109  43.849  53.128  1.00  0.00    -0.277 N 
HETATM    8  H   UNL     1      29.988  43.453  52.817  1.00  0.00     0.189 HD
HETATM    9  C   UNL     1      28.810  44.329  54.378  1.00  0.00     0.063 A 
HETATM   10  C   UNL     1      27.488  44.717  54.287  1.00  0.00     0.071 A 
BRANCH   9  11
HETATM   11  C   UNL     1      29.739  44.331  55.508  1.00  0.00    -0.008 A 
HETATM   12  C   UNL     1      30.684  43.311  55.688  1.00  0.00     0.014 A 
HETATM   13  C   UNL     1      31.553  43.329  56.784  1.00  0.00     0.001 A 
HETATM   14  C   UNL     1      31.490  44.365  57.712  1.00  0.00     0.000 A 
HETATM   15  C   UNL     1      30.563  45.389  57.544  1.00  0.00     0.001 A 
HETATM   16  C   UNL     1      29.695  45.371  56.449  1.00  0.00     0.014 A 
ENDBRANCH   9  11
ENDBRANCH   2   5
BRANCH   1  17
HETATM   17  C   UNL     1      24.451  44.605  50.319  1.00  0.00     0.114 C 
HETATM   18  C   UNL     1      24.636  43.521  49.251  1.00  0.00     0.037 C 
BRANCH  17  19
HETATM   19  C   UNL     1      23.954  45.894  49.691  1.00  0.00    -0.036 A 
HETATM   20  C   UNL     1      24.524  47.140  49.990  1.00  0.00     0.012 A 
HETATM   21  C   UNL     1      24.106  48.301  49.324  1.00  0.00     0.037 A 
HETATM   22  C   UNL     1      23.118  48.230  48.343  1.00  0.00     0.068 A 
HETATM   23  C   UNL     1      22.520  47.000  48.067  1.00  0.00     0.037 A 
HETATM   24  C   UNL     1      22.933  45.843  48.730  1.00  0.00     0.012 A 
BRANCH  22  25
HETATM   25  O   UNL     1      22.650  49.274  47.595  1.00  0.00    -0.352 OA
BRANCH  25  26
HETATM   26  C   UNL     1      22.958  50.587  48.062  1.00  0.00     0.171 C 
HETATM   27  C   UNL     1      21.724  51.138  48.754  1.00  0.00     0.034 C 
ENDBRANCH  25  26
ENDBRANCH  22  25
ENDBRANCH  17  19
ENDBRANCH   1  17
TORSDOF 6
ENDMDL
MODEL 6
REMARK VINA RESULT:      -8.4      2.592      9.556
REMARK  6 active torsions:
REMARK  status: ('A' for Active; 'I' for Inactive)
REMARK    1  A    between atoms: C_2  and  O_3 
REMARK    2  A    between atoms: O_3  and  C_4 
REMARK    3  A    between atoms: C_7  and  C_8 
REMARK    4  A    between atoms: C_8  and  N_9 
REMARK       I    between atoms: N_9  and  C_10 
REMARK    5  A    between atoms: C_10  and  C_11 
REMARK    6  A    between atoms: C_15  and  C_16 
ROOT
HETATM    1  N   UNL     1      24.428  47.282  50.100  1.00  0.00    -0.347 N 
HETATM    2  C   UNL     1      24.326  45.917  49.928  1.00  0.00     0.272 C 
HETATM    3  O   UNL     1      23.745  45.392  48.982  1.00  0.00    -0.266 OA
HETATM    4  H   UNL     1      25.019  47.574  50.870  1.00  0.00     0.163 HD
ENDROOT
BRANCH   2   5
HETATM    5  C   UNL     1      25.035  45.134  50.950  1.00  0.00     0.146 A 
HETATM    6  N   UNL     1      24.396  44.416  51.896  1.00  0.00    -0.169 NA
HETATM    7  N   UNL     1      25.396  43.925  52.654  1.00  0.00    -0.277 N 
HETATM    8  H   UNL     1      25.148  43.365  53.462  1.00  0.00     0.189 HD
HETATM    9  C   UNL     1      26.653  44.296  52.254  1.00  0.00     0.063 A 
HETATM   10  C   UNL     1      26.440  45.070  51.131  1.00  0.00     0.071 A 
BRANCH   9  11
HETATM   11  C   UNL     1      27.885  43.947  52.963  1.00  0.00    -0.008 A 
HETATM   12  C   UNL     1      28.838  43.083  52.404  1.00  0.00     0.014 A 
HETATM   13  C   UNL     1      30.002  42.754  53.107  1.00  0.00     0.001 A 
HETATM   14  C   UNL     1      30.229  43.284  54.375  1.00  0.00     0.000 A 
HETATM   15  C   UNL     1      29.296  44.148  54.941  1.00  0.00     0.001 A 
HETATM   16  C   UNL     1      28.134  44.477  54.238  1.00  0.00     0.014 A 
ENDBRANCH   9  11
ENDBRANCH   2   5
BRANCH   1  17
HETATM   17  C   UNL     1      24.125  48.190  49.014  1.00  0.00     0.114 C 
HETATM   18  C   UNL     1      25.261  49.201  48.821  1.00  0.00     0.037 C 
BRANCH  17  19
HETATM   19  C   UNL     1      22.802  48.905  49.214  1.00  0.00    -0.036 A 
HETATM   20  C   UNL     1      21.569  48.265  49.020  1.00  0.00     0.012 A 
HETATM   21  C   UNL     1      20.364  48.923  49.304  1.00  0.00     0.037 A 
HETATM   22  C   UNL     1      20.376  50.228  49.794  1.00  0.00     0.068 A 
HETATM   23  C   UNL     1      21.596  50.884  49.954  1.00  0.00     0.037 A 
HETATM   24  C   UNL     1      22.797  50.232  49.671  1.00  0.00     0.012 A 
BRANCH  22  25
HETATM   25  O   UNL     1      19.280  50.965  50.146  1.00  0.00    -0.352 OA
BRANCH  25  26
HETATM   26  C   UNL     1      18.335  51.245  49.113  1.00  0.00     0.171 C 
HETATM   27  C   UNL     1      18.793  52.497  48.388  1.00  0.00     0.034 C 
ENDBRANCH  25  26
ENDBRANCH  22  25
ENDBRANCH  17  19
ENDBRANCH   1  17
TORSDOF 6
ENDMDL
MODEL 7
REMARK VINA RESULT:      -8.2      2.214      8.686
REMARK  6 active torsions:
REMARK  status: ('A' for Active; 'I' for Inactive)
REMARK    1  A    between atoms: C_2  and  O_3 
REMARK    2  A    between atoms: O_3  and  C_4 
REMARK    3  A    between atoms: C_7  and  C_8 
REMARK    4  A    between atoms: C_8  and  N_9 
REMARK       I    between atoms: N_9  and  C_10 
REMARK    5  A    between atoms: C_10  and  C_11 
REMARK    6  A    between atoms: C_15  and  C_16 
ROOT
HETATM    1  N   UNL     1      25.733  42.979  51.845  1.00  0.00    -0.347 N 
HETATM    2  C   UNL     1      26.973  43.094  51.251  1.00  0.00     0.272 C 
HETATM    3  O   UNL     1      27.138  43.206  50.039  1.00  0.00    -0.266 OA
HETATM    4  H   UNL     1      25.741  42.994  52.859  1.00  0.00     0.163 HD
ENDROOT
BRANCH   2   5
HETATM    5  C   UNL     1      28.089  43.140  52.207  1.00  0.00     0.146 A 
HETATM    6  N   UNL     1      29.172  42.344  52.104  1.00  0.00    -0.169 NA
HETATM    7  N   UNL     1      29.899  42.651  53.196  1.00  0.00    -0.277 N 
HETATM    8  H   UNL     1      30.764  42.145  53.350  1.00  0.00     0.189 HD
HETATM    9  C   UNL     1      29.336  43.600  54.010  1.00  0.00     0.063 A 
HETATM   10  C   UNL     1      28.162  43.946  53.370  1.00  0.00     0.071 A 
BRANCH   9  11
HETATM   11  C   UNL     1      29.903  44.038  55.287  1.00  0.00    -0.008 A 
HETATM   12  C   UNL     1      29.446  45.193  55.938  1.00  0.00     0.014 A 
HETATM   13  C   UNL     1      30.012  45.599  57.151  1.00  0.00     0.001 A 
HETATM   14  C   UNL     1      31.040  44.857  57.728  1.00  0.00     0.000 A 
HETATM   15  C   UNL     1      31.500  43.705  57.098  1.00  0.00     0.001 A 
HETATM   16  C   UNL     1      30.933  43.299  55.886  1.00  0.00     0.014 A 
ENDBRANCH   9  11
ENDBRANCH   2   5
BRANCH   1  17
HETATM   17  C   UNL     1      24.527  43.292  51.109  1.00  0.00     0.114 C 
HETATM   18  C   UNL     1      24.368  42.357  49.905  1.00  0.00     0.037 C 
BRANCH  17  19
HETATM   19  C   UNL     1      24.484  44.744  50.668  1.00  0.00    -0.036 A 
HETATM   20  C   UNL     1      23.837  45.149  49.491  1.00  0.00     0.012 A 
HETATM   21  C   UNL     1      23.733  46.507  49.159  1.00  0.00     0.037 A 
HETATM   22  C   UNL     1      24.267  47.479  50.003  1.00  0.00     0.068 A 
HETATM   23  C   UNL     1      24.945  47.082  51.156  1.00  0.00     0.037 A 
HETATM   24  C   UNL     1      25.051  45.730  51.489  1.00  0.00     0.012 A 
BRANCH  22  25
HETATM   25  O   UNL     1      24.200  48.831  49.817  1.00  0.00    -0.352 OA
BRANCH  25  26
HETATM   26  C   UNL     1      23.301  49.298  48.812  1.00  0.00     0.171 C 
HETATM   27  C   UNL     1      22.654  50.574  49.321  1.00  0.00     0.034 C 
ENDBRANCH  25  26
ENDBRANCH  22  25
ENDBRANCH  17  19
ENDBRANCH   1  17
TORSDOF 6
ENDMDL
MODEL 8
REMARK VINA RESULT:      -7.8      2.620      9.593
REMARK  6 active torsions:
REMARK  status: ('A' for Active; 'I' for Inactive)
REMARK    1  A    between atoms: C_2  and  O_3 
REMARK    2  A    between atoms: O_3  and  C_4 
REMARK    3  A    between atoms: C_7  and  C_8 
REMARK    4  A    between atoms: C_8  and  N_9 
REMARK       I    between atoms: N_9  and  C_10 
REMARK    5  A    between atoms: C_10  and  C_11 
REMARK    6  A    between atoms: C_15  and  C_16 
ROOT
HETATM    1  N   UNL     1      23.739  45.589  49.270  1.00  0.00    -0.347 N 
HETATM    2  C   UNL     1      24.001  44.677  50.272  1.00  0.00     0.272 C 
HETATM    3  O   UNL     1      23.144  43.954  50.773  1.00  0.00    -0.266 OA
HETATM    4  H   UNL     1      24.558  46.046  48.883  1.00  0.00     0.163 HD
ENDROOT
BRANCH   2   5
HETATM    5  C   UNL     1      25.420  44.596  50.647  1.00  0.00     0.146 A 
HETATM    6  N   UNL     1      26.421  44.718  49.753  1.00  0.00    -0.169 NA
HETATM    7  N   UNL     1      27.532  44.512  50.487  1.00  0.00    -0.277 N 
HETATM    8  H   UNL     1      28.427  44.527  50.011  1.00  0.00     0.189 HD
HETATM    9  C   UNL     1      27.302  44.252  51.813  1.00  0.00     0.063 A 
HETATM   10  C   UNL     1      25.929  44.322  51.942  1.00  0.00     0.071 A 
BRANCH   9  11
HETATM   11  C   UNL     1      28.345  43.925  52.787  1.00  0.00    -0.008 A 
HETATM   12  C   UNL     1      29.353  42.994  52.502  1.00  0.00     0.014 A 
HETATM   13  C   UNL     1      30.332  42.688  53.453  1.00  0.00     0.001 A 
HETATM   14  C   UNL     1      30.316  43.309  54.700  1.00  0.00     0.000 A 
HETATM   15  C   UNL     1      29.326  44.240  54.996  1.00  0.00     0.001 A 
HETATM   16  C   UNL     1      28.348  44.546  54.045  1.00  0.00     0.014 A 
ENDBRANCH   9  11
ENDBRANCH   2   5
BRANCH   1  17
HETATM   17  C   UNL     1      22.499  45.537  48.526  1.00  0.00     0.114 C 
HETATM   18  C   UNL     1      22.657  44.674  47.269  1.00  0.00     0.037 C 
BRANCH  17  19
HETATM   19  C   UNL     1      21.988  46.920  48.164  1.00  0.00    -0.036 A 
HETATM   20  C   UNL     1      20.719  47.125  47.602  1.00  0.00     0.012 A 
HETATM   21  C   UNL     1      20.238  48.420  47.366  1.00  0.00     0.037 A 
HETATM   22  C   UNL     1      21.015  49.528  47.696  1.00  0.00     0.068 A 
HETATM   23  C   UNL     1      22.293  49.332  48.221  1.00  0.00     0.037 A 
HETATM   24  C   UNL     1      22.776  48.044  48.455  1.00  0.00     0.012 A 
BRANCH  22  25
HETATM   25  O   UNL     1      20.651  50.838  47.555  1.00  0.00    -0.352 OA
BRANCH  25  26
HETATM   26  C   UNL     1      20.345  51.553  48.752  1.00  0.00     0.171 C 
HETATM   27  C   UNL     1      19.087  52.365  48.503  1.00  0.00     0.034 C 
ENDBRANCH  25  26
ENDBRANCH  22  25
ENDBRANCH  17  19
ENDBRANCH   1  17
TORSDOF 6
ENDMDL
MODEL 9
REMARK VINA RESULT:      -7.7      2.828      4.717
REMARK  6 active torsions:
REMARK  status: ('A' for Active; 'I' for Inactive)
REMARK    1  A    between atoms: C_2  and  O_3 
REMARK    2  A    between atoms: O_3  and  C_4 
REMARK    3  A    between atoms: C_7  and  C_8 
REMARK    4  A    between atoms: C_8  and  N_9 
REMARK       I    between atoms: N_9  and  C_10 
REMARK    5  A    between atoms: C_10  and  C_11 
REMARK    6  A    between atoms: C_15  and  C_16 
ROOT
HETATM    1  N   UNL     1      23.711  47.695  50.155  1.00  0.00    -0.347 N 
HETATM    2  C   UNL     1      23.687  48.765  49.285  1.00  0.00     0.272 C 
HETATM    3  O   UNL     1      24.512  48.932  48.391  1.00  0.00    -0.266 OA
HETATM    4  H   UNL     1      22.914  47.632  50.778  1.00  0.00     0.163 HD
ENDROOT
BRANCH   2   5
HETATM    5  C   UNL     1      22.540  49.664  49.478  1.00  0.00     0.146 A 
HETATM    6  N   UNL     1      22.590  50.753  50.270  1.00  0.00    -0.169 NA
HETATM    7  N   UNL     1      21.334  51.240  50.223  1.00  0.00    -0.277 N 
HETATM    8  H   UNL     1      21.121  52.061  50.779  1.00  0.00     0.189 HD
HETATM    9  C   UNL     1      20.468  50.515  49.447  1.00  0.00     0.063 A 
HETATM   10  C   UNL     1      21.242  49.493  48.935  1.00  0.00     0.071 A 
BRANCH   9  11
HETATM   11  C   UNL     1      19.041  50.808  49.303  1.00  0.00    -0.008 A 
HETATM   12  C   UNL     1      18.167  49.917  48.666  1.00  0.00     0.014 A 
HETATM   13  C   UNL     1      16.809  50.224  48.529  1.00  0.00     0.001 A 
HETATM   14  C   UNL     1      16.308  51.423  49.029  1.00  0.00     0.000 A 
HETATM   15  C   UNL     1      17.161  52.316  49.670  1.00  0.00     0.001 A 
HETATM   16  C   UNL     1      18.518  52.008  49.807  1.00  0.00     0.014 A 
ENDBRANCH   9  11
ENDBRANCH   2   5
BRANCH   1  17
HETATM   17  C   UNL     1      24.528  46.533  49.879  1.00  0.00     0.114 C 
HETATM   18  C   UNL     1      23.656  45.346  49.455  1.00  0.00     0.037 C 
BRANCH  17  19
HETATM   19  C   UNL     1      25.408  46.156  51.056  1.00  0.00    -0.036 A 
HETATM   20  C   UNL     1      25.448  46.916  52.234  1.00  0.00     0.012 A 
HETATM   21  C   UNL     1      26.198  46.491  53.340  1.00  0.00     0.037 A 
HETATM   22  C   UNL     1      26.912  45.295  53.285  1.00  0.00     0.068 A 
HETATM   23  C   UNL     1      26.908  44.553  52.105  1.00  0.00     0.037 A 
HETATM   24  C   UNL     1      26.163  44.974  51.001  1.00  0.00     0.012 A 
BRANCH  22  25
HETATM   25  O   UNL     1      27.647  44.750  54.300  1.00  0.00    -0.352 OA
BRANCH  25  26
HETATM   26  C   UNL     1      28.021  43.380  54.160  1.00  0.00     0.171 C 
HETATM   27  C   UNL     1      29.478  43.249  54.564  1.00  0.00     0.034 C 
ENDBRANCH  25  26
ENDBRANCH  22  25
ENDBRANCH  17  19
ENDBRANCH   1  17
TORSDOF 6
ENDMDL
MODEL 10
REMARK VINA RESULT:      -7.6      2.218      3.564
REMARK  6 active torsions:
REMARK  status: ('A' for Active; 'I' for Inactive)
REMARK    1  A    between atoms: C_2  and  O_3 
REMARK    2  A    between atoms: O_3  and  C_4 
REMARK    3  A    between atoms: C_7  and  C_8 
REMARK    4  A    between atoms: C_8  and  N_9 
REMARK       I    between atoms: N_9  and  C_10 
REMARK    5  A    between atoms: C_10  and  C_11 
REMARK    6  A    between atoms: C_15  and  C_16 
ROOT
HETATM    1  N   UNL     1      24.174  46.417  50.020  1.00  0.00    -0.347 N 
HETATM    2  C   UNL     1      24.311  47.652  49.419  1.00  0.00     0.272 C 
HETATM    3  O   UNL     1      25.393  48.208  49.250  1.00  0.00    -0.266 OA
HETATM    4  H   UNL     1      23.235  46.035  50.004  1.00  0.00     0.163 HD
ENDROOT
BRANCH   2   5
HETATM    5  C   UNL     1      23.046  48.222  48.934  1.00  0.00     0.146 A 
HETATM    6  N   UNL     1      22.468  47.840  47.778  1.00  0.00    -0.169 NA
HETATM    7  N   UNL     1      21.391  48.644  47.678  1.00  0.00    -0.277 N 
HETATM    8  H   UNL     1      20.807  48.556  46.854  1.00  0.00     0.189 HD
HETATM    9  C   UNL     1      21.246  49.536  48.708  1.00  0.00     0.063 A 
HETATM   10  C   UNL     1      22.306  49.263  49.549  1.00  0.00     0.071 A 
BRANCH   9  11
HETATM   11  C   UNL     1      20.198  50.556  48.780  1.00  0.00    -0.008 A 
HETATM   12  C   UNL     1      19.707  51.023  50.007  1.00  0.00     0.014 A 
HETATM   13  C   UNL     1      18.696  51.989  50.051  1.00  0.00     0.001 A 
HETATM   14  C   UNL     1      18.164  52.499  48.869  1.00  0.00     0.000 A 
HETATM   15  C   UNL     1      18.644  52.051  47.643  1.00  0.00     0.001 A 
HETATM   16  C   UNL     1      19.655  51.086  47.600  1.00  0.00     0.014 A 
ENDBRANCH   9  11
ENDBRANCH   2   5
BRANCH   1  17
HETATM   17  C   UNL     1      25.320  45.555  50.212  1.00  0.00     0.114 C 
HETATM   18  C   UNL     1      24.957  44.096  49.915  1.00  0.00     0.037 C 
BRANCH  17  19
HETATM   19  C   UNL     1      25.911  45.685  51.604  1.00  0.00    -0.036 A 
HETATM   20  C   UNL     1      25.485  46.670  52.508  1.00  0.00     0.012 A 
HETATM   21  C   UNL     1      25.981  46.706  53.819  1.00  0.00     0.037 A 
HETATM   22  C   UNL     1      26.904  45.753  54.246  1.00  0.00     0.068 A 
HETATM   23  C   UNL     1      27.361  44.794  53.342  1.00  0.00     0.037 A 
HETATM   24  C   UNL     1      26.869  44.756  52.036  1.00  0.00     0.012 A 
BRANCH  22  25
HETATM   25  O   UNL     1      27.434  45.653  55.502  1.00  0.00    -0.352 OA
BRANCH  25  26
HETATM   26  C   UNL     1      28.545  46.498  55.800  1.00  0.00     0.171 C 
HETATM   27  C   UNL     1      29.180  45.998  57.085  1.00  0.00     0.034 C 
ENDBRANCH  25  26
ENDBRANCH  22  25
ENDBRANCH  17  19
ENDBRANCH   1  17
TORSDOF 6
ENDMDL
