MODEL 1
REMARK VINA RESULT:      -7.6      0.000      0.000
REMARK  3 active torsions:
REMARK  status: ('A' for Active; 'I' for Inactive)
REMARK       I    between atoms: C_2  and  N_3 
REMARK    1  A    between atoms: N_3  and  C_4 
REMARK    2  A    between atoms: C_7  and  N_8 
REMARK       I    between atoms: N_8  and  C_9 
REMARK    3  A    between atoms: C_9  and  C_10 
ROOT
HETATM    1  C   UNL     1      18.420  51.645  49.509  1.00  0.00     0.034 A 
HETATM    2  C   UNL     1      18.587  50.510  50.308  1.00  0.00     0.032 A 
HETATM    3  C   UNL     1      19.810  49.827  50.345  1.00  0.00     0.032 A 
HETATM    4  C   UNL     1      20.887  50.271  49.581  1.00  0.00     0.035 A 
HETATM    5  C   UNL     1      20.713  51.388  48.760  1.00  0.00     0.032 A 
HETATM    6  C   UNL     1      19.490  52.072  48.725  1.00  0.00     0.032 A 
ENDROOT
BRANCH   4   7
HETATM    7  N   UNL     1      22.161  49.680  49.604  1.00  0.00    -0.322 N 
HETATM    8  C   UNL     1      22.726  48.827  48.676  1.00  0.00     0.274 C 
HETATM    9  O   UNL     1      22.254  48.478  47.601  1.00  0.00    -0.266 OA
HETATM   10  H   UNL     1      22.738  49.838  50.427  1.00  0.00     0.169 HD
BRANCH   8  11
HETATM   11  C   UNL     1      24.057  48.292  49.117  1.00  0.00     0.126 A 
HETATM   12  N   UNL     1      24.049  47.035  49.649  1.00  0.00    -0.255 NA
HETATM   13  C   UNL     1      25.243  46.525  50.018  1.00  0.00     0.119 A 
HETATM   14  C   UNL     1      26.441  47.204  49.880  1.00  0.00     0.043 A 
HETATM   15  C   UNL     1      26.404  48.482  49.333  1.00  0.00     0.037 A 
HETATM   16 CL   UNL     1      27.870  49.361  49.134  1.00  0.00    -0.084 Cl
HETATM   17  C   UNL     1      25.203  49.051  48.943  1.00  0.00     0.061 A 
ENDBRANCH   8  11
ENDBRANCH   4   7
BRANCH   1  18
HETATM   18  N   UNL     1      17.174  52.299  49.568  1.00  0.00    -0.328 N 
HETATM   19  C   UNL     1      15.989  51.912  48.967  1.00  0.00     0.218 C 
HETATM   20  C   UNL     1      14.885  52.911  49.207  1.00  0.00     0.117 C 
HETATM   21  O   UNL     1      15.794  50.906  48.295  1.00  0.00    -0.274 OA
HETATM   22  H   UNL     1      17.156  53.170  50.084  1.00  0.00     0.169 HD
ENDBRANCH   1  18
TORSDOF 3
ENDMDL
MODEL 2
REMARK VINA RESULT:      -7.4      5.779     10.929
REMARK  3 active torsions:
REMARK  status: ('A' for Active; 'I' for Inactive)
REMARK       I    between atoms: C_2  and  N_3 
REMARK    1  A    between atoms: N_3  and  C_4 
REMARK    2  A    between atoms: C_7  and  N_8 
REMARK       I    between atoms: N_8  and  C_9 
REMARK    3  A    between atoms: C_9  and  C_10 
ROOT
HETATM    1  C   UNL     1      28.957  43.836  54.420  1.00  0.00     0.034 A 
HETATM    2  C   UNL     1      29.120  43.514  53.070  1.00  0.00     0.032 A 
HETATM    3  C   UNL     1      28.202  43.955  52.108  1.00  0.00     0.032 A 
HETATM    4  C   UNL     1      27.104  44.725  52.483  1.00  0.00     0.035 A 
HETATM    5  C   UNL     1      26.924  45.022  53.837  1.00  0.00     0.032 A 
HETATM    6  C   UNL     1      27.843  44.584  54.799  1.00  0.00     0.032 A 
ENDROOT
BRANCH   4   7
HETATM    7  N   UNL     1      26.170  45.254  51.577  1.00  0.00    -0.322 N 
HETATM    8  C   UNL     1      25.773  46.568  51.426  1.00  0.00     0.274 C 
HETATM    9  O   UNL     1      26.220  47.553  52.003  1.00  0.00    -0.266 OA
HETATM   10  H   UNL     1      25.664  44.598  50.987  1.00  0.00     0.169 HD
BRANCH   8  11
HETATM   11  C   UNL     1      24.649  46.725  50.445  1.00  0.00     0.126 A 
HETATM   12  N   UNL     1      24.264  48.007  50.175  1.00  0.00    -0.255 NA
HETATM   13  C   UNL     1      23.278  48.166  49.268  1.00  0.00     0.119 A 
HETATM   14  C   UNL     1      22.660  47.113  48.617  1.00  0.00     0.043 A 
HETATM   15  C   UNL     1      23.081  45.824  48.921  1.00  0.00     0.037 A 
HETATM   16 CL   UNL     1      22.347  44.483  48.129  1.00  0.00    -0.084 Cl
HETATM   17  C   UNL     1      24.087  45.608  49.848  1.00  0.00     0.061 A 
ENDBRANCH   8  11
ENDBRANCH   4   7
BRANCH   1  18
HETATM   18  N   UNL     1      29.953  43.394  55.315  1.00  0.00    -0.328 N 
HETATM   19  C   UNL     1      30.770  44.171  56.117  1.00  0.00     0.218 C 
HETATM   20  C   UNL     1      31.759  43.332  56.887  1.00  0.00     0.117 C 
HETATM   21  O   UNL     1      30.760  45.392  56.225  1.00  0.00    -0.274 OA
HETATM   22  H   UNL     1      30.105  42.394  55.345  1.00  0.00     0.169 HD
ENDBRANCH   1  18
TORSDOF 3
ENDMDL
MODEL 3
REMARK VINA RESULT:      -7.4      5.572     10.075
REMARK  3 active torsions:
REMARK  status: ('A' for Active; 'I' for Inactive)
REMARK       I    between atoms: C_2  and  N_3 
REMARK    1  A    between atoms: N_3  and  C_4 
REMARK    2  A    between atoms: C_7  and  N_8 
REMARK       I    between atoms: N_8  and  C_9 
REMARK    3  A    between atoms: C_9  and  C_10 
ROOT
HETATM    1  C   UNL     1      28.403  45.907  55.147  1.00  0.00     0.034 A 
HETATM    2  C   UNL     1      28.205  44.844  54.261  1.00  0.00     0.032 A 
HETATM    3  C   UNL     1      27.269  44.935  53.223  1.00  0.00     0.032 A 
HETATM    4  C   UNL     1      26.515  46.095  53.055  1.00  0.00     0.035 A 
HETATM    5  C   UNL     1      26.691  47.147  53.958  1.00  0.00     0.032 A 
HETATM    6  C   UNL     1      27.629  47.056  54.995  1.00  0.00     0.032 A 
ENDROOT
BRANCH   4   7
HETATM    7  N   UNL     1      25.599  46.290  52.008  1.00  0.00    -0.322 N 
HETATM    8  C   UNL     1      25.660  47.206  50.976  1.00  0.00     0.274 C 
HETATM    9  O   UNL     1      26.574  47.983  50.723  1.00  0.00    -0.266 OA
HETATM   10  H   UNL     1      24.744  45.738  52.022  1.00  0.00     0.169 HD
BRANCH   8  11
HETATM   11  C   UNL     1      24.423  47.207  50.128  1.00  0.00     0.126 A 
HETATM   12  N   UNL     1      23.824  48.420  49.943  1.00  0.00    -0.255 NA
HETATM   13  C   UNL     1      22.730  48.442  49.154  1.00  0.00     0.119 A 
HETATM   14  C   UNL     1      22.207  47.319  48.539  1.00  0.00     0.043 A 
HETATM   15  C   UNL     1      22.846  46.103  48.753  1.00  0.00     0.037 A 
HETATM   16 CL   UNL     1      22.236  44.680  48.001  1.00  0.00    -0.084 Cl
HETATM   17  C   UNL     1      23.971  46.027  49.559  1.00  0.00     0.061 A 
ENDBRANCH   8  11
ENDBRANCH   4   7
BRANCH   1  18
HETATM   18  N   UNL     1      29.398  45.750  56.133  1.00  0.00    -0.328 N 
HETATM   19  C   UNL     1      29.291  46.010  57.488  1.00  0.00     0.218 C 
HETATM   20  C   UNL     1      30.597  45.782  58.207  1.00  0.00     0.117 C 
HETATM   21  O   UNL     1      28.297  46.396  58.092  1.00  0.00    -0.274 OA
HETATM   22  H   UNL     1      30.304  45.442  55.800  1.00  0.00     0.169 HD
ENDBRANCH   1  18
TORSDOF 3
ENDMDL
MODEL 4
REMARK VINA RESULT:      -7.3      1.989      2.271
REMARK  3 active torsions:
REMARK  status: ('A' for Active; 'I' for Inactive)
REMARK       I    between atoms: C_2  and  N_3 
REMARK    1  A    between atoms: N_3  and  C_4 
REMARK    2  A    between atoms: C_7  and  N_8 
REMARK       I    between atoms: N_8  and  C_9 
REMARK    3  A    between atoms: C_9  and  C_10 
ROOT
HETATM    1  C   UNL     1      18.621  51.659  47.552  1.00  0.00     0.034 A 
HETATM    2  C   UNL     1      18.966  50.437  46.968  1.00  0.00     0.032 A 
HETATM    3  C   UNL     1      20.132  49.759  47.348  1.00  0.00     0.032 A 
HETATM    4  C   UNL     1      20.972  50.296  48.321  1.00  0.00     0.035 A 
HETATM    5  C   UNL     1      20.644  51.532  48.884  1.00  0.00     0.032 A 
HETATM    6  C   UNL     1      19.477  52.208  48.505  1.00  0.00     0.032 A 
ENDROOT
BRANCH   4   7
HETATM    7  N   UNL     1      22.127  49.656  48.800  1.00  0.00    -0.322 N 
HETATM    8  C   UNL     1      23.389  49.632  48.238  1.00  0.00     0.274 C 
HETATM    9  O   UNL     1      23.773  50.237  47.244  1.00  0.00    -0.266 OA
HETATM   10  H   UNL     1      22.034  49.080  49.634  1.00  0.00     0.169 HD
BRANCH   8  11
HETATM   11  C   UNL     1      24.332  48.724  48.971  1.00  0.00     0.126 A 
HETATM   12  N   UNL     1      25.631  49.140  49.038  1.00  0.00    -0.255 NA
HETATM   13  C   UNL     1      26.486  48.351  49.724  1.00  0.00     0.119 A 
HETATM   14  C   UNL     1      26.109  47.174  50.345  1.00  0.00     0.043 A 
HETATM   15  C   UNL     1      24.777  46.787  50.252  1.00  0.00     0.037 A 
HETATM   16 CL   UNL     1      24.261  45.334  51.016  1.00  0.00    -0.084 Cl
HETATM   17  C   UNL     1      23.862  47.560  49.556  1.00  0.00     0.061 A 
ENDBRANCH   8  11
ENDBRANCH   4   7
BRANCH   1  18
HETATM   18  N   UNL     1      17.407  52.249  47.147  1.00  0.00    -0.328 N 
HETATM   19  C   UNL     1      16.136  51.972  47.619  1.00  0.00     0.218 C 
HETATM   20  C   UNL     1      15.082  52.765  46.887  1.00  0.00     0.117 C 
HETATM   21  O   UNL     1      15.830  51.181  48.504  1.00  0.00    -0.274 OA
HETATM   22  H   UNL     1      17.475  52.931  46.401  1.00  0.00     0.169 HD
ENDBRANCH   1  18
TORSDOF 3
ENDMDL
MODEL 5
REMARK VINA RESULT:      -7.3      5.467      9.933
REMARK  3 active torsions:
REMARK  status: ('A' for Active; 'I' for Inactive)
REMARK       I    between atoms: C_2  and  N_3 
REMARK    1  A    between atoms: N_3  and  C_4 
REMARK    2  A    between atoms: C_7  and  N_8 
REMARK       I    between atoms: N_8  and  C_9 
REMARK    3  A    between atoms: C_9  and  C_10 
ROOT
HETATM    1  C   UNL     1      27.811  46.211  55.504  1.00  0.00     0.034 A 
HETATM    2  C   UNL     1      27.113  47.394  55.243  1.00  0.00     0.032 A 
HETATM    3  C   UNL     1      26.316  47.523  54.099  1.00  0.00     0.032 A 
HETATM    4  C   UNL     1      26.205  46.468  53.195  1.00  0.00     0.035 A 
HETATM    5  C   UNL     1      26.927  45.297  53.439  1.00  0.00     0.032 A 
HETATM    6  C   UNL     1      27.722  45.167  54.585  1.00  0.00     0.032 A 
ENDROOT
BRANCH   4   7
HETATM    7  N   UNL     1      25.385  46.495  52.055  1.00  0.00    -0.322 N 
HETATM    8  C   UNL     1      25.527  47.260  50.915  1.00  0.00     0.274 C 
HETATM    9  O   UNL     1      26.451  48.016  50.635  1.00  0.00    -0.266 OA
HETATM   10  H   UNL     1      24.538  45.930  52.073  1.00  0.00     0.169 HD
BRANCH   8  11
HETATM   11  C   UNL     1      24.371  47.114  49.970  1.00  0.00     0.126 A 
HETATM   12  N   UNL     1      24.000  45.834  49.673  1.00  0.00    -0.255 NA
HETATM   13  C   UNL     1      22.939  45.685  48.852  1.00  0.00     0.119 A 
HETATM   14  C   UNL     1      22.231  46.746  48.317  1.00  0.00     0.043 A 
HETATM   15  C   UNL     1      22.642  48.033  48.644  1.00  0.00     0.037 A 
HETATM   16 CL   UNL     1      21.787  49.384  48.008  1.00  0.00    -0.084 Cl
HETATM   17  C   UNL     1      23.728  48.239  49.479  1.00  0.00     0.061 A 
ENDBRANCH   8  11
ENDBRANCH   4   7
BRANCH   1  18
HETATM   18  N   UNL     1      28.551  46.148  56.702  1.00  0.00    -0.328 N 
HETATM   19  C   UNL     1      29.879  45.793  56.855  1.00  0.00     0.218 C 
HETATM   20  C   UNL     1      30.292  45.779  58.306  1.00  0.00     0.117 C 
HETATM   21  O   UNL     1      30.674  45.498  55.970  1.00  0.00    -0.274 OA
HETATM   22  H   UNL     1      28.036  46.355  57.550  1.00  0.00     0.169 HD
ENDBRANCH   1  18
TORSDOF 3
ENDMDL
MODEL 6
REMARK VINA RESULT:      -7.3      4.375      7.067
REMARK  3 active torsions:
REMARK  status: ('A' for Active; 'I' for Inactive)
REMARK       I    between atoms: C_2  and  N_3 
REMARK    1  A    between atoms: N_3  and  C_4 
REMARK    2  A    between atoms: C_7  and  N_8 
REMARK       I    between atoms: N_8  and  C_9 
REMARK    3  A    between atoms: C_9  and  C_10 
ROOT
HETATM    1  C   UNL     1      24.477  48.389  49.223  1.00  0.00     0.034 A 
HETATM    2  C   UNL     1      25.863  48.540  49.332  1.00  0.00     0.032 A 
HETATM    3  C   UNL     1      26.647  47.562  49.957  1.00  0.00     0.032 A 
HETATM    4  C   UNL     1      26.056  46.416  50.484  1.00  0.00     0.035 A 
HETATM    5  C   UNL     1      24.667  46.279  50.403  1.00  0.00     0.032 A 
HETATM    6  C   UNL     1      23.883  47.256  49.776  1.00  0.00     0.032 A 
ENDROOT
BRANCH   4   7
HETATM    7  N   UNL     1      26.774  45.363  51.075  1.00  0.00    -0.322 N 
HETATM    8  C   UNL     1      27.153  44.161  50.508  1.00  0.00     0.274 C 
HETATM    9  O   UNL     1      27.006  43.807  49.344  1.00  0.00    -0.266 OA
HETATM   10  H   UNL     1      27.005  45.447  52.063  1.00  0.00     0.169 HD
BRANCH   8  11
HETATM   11  C   UNL     1      27.789  43.230  51.497  1.00  0.00     0.126 A 
HETATM   12  N   UNL     1      27.619  41.896  51.258  1.00  0.00    -0.255 NA
HETATM   13  C   UNL     1      28.214  41.045  52.120  1.00  0.00     0.119 A 
HETATM   14  C   UNL     1      28.971  41.456  53.202  1.00  0.00     0.043 A 
HETATM   15  C   UNL     1      29.119  42.822  53.410  1.00  0.00     0.037 A 
HETATM   16 CL   UNL     1      30.059  43.381  54.739  1.00  0.00    -0.084 Cl
HETATM   17  C   UNL     1      28.524  43.738  52.557  1.00  0.00     0.061 A 
ENDBRANCH   8  11
ENDBRANCH   4   7
BRANCH   1  18
HETATM   18  N   UNL     1      23.770  49.397  48.537  1.00  0.00    -0.328 N 
HETATM   19  C   UNL     1      22.970  50.386  49.082  1.00  0.00     0.218 C 
HETATM   20  C   UNL     1      22.327  51.237  48.015  1.00  0.00     0.117 C 
HETATM   21  O   UNL     1      22.752  50.591  50.270  1.00  0.00    -0.274 OA
HETATM   22  H   UNL     1      23.832  49.369  47.526  1.00  0.00     0.169 HD
ENDBRANCH   1  18
TORSDOF 3
ENDMDL
MODEL 7
REMARK VINA RESULT:      -7.2      4.488      7.041
REMARK  3 active torsions:
REMARK  status: ('A' for Active; 'I' for Inactive)
REMARK       I    between atoms: C_2  and  N_3 
REMARK    1  A    between atoms: N_3  and  C_4 
REMARK    2  A    between atoms: C_7  and  N_8 
REMARK       I    between atoms: N_8  and  C_9 
REMARK    3  A    between atoms: C_9  and  C_10 
ROOT
HETATM    1  C   UNL     1      24.238  48.064  49.161  1.00  0.00     0.034 A 
HETATM    2  C   UNL     1      23.763  46.789  49.483  1.00  0.00     0.032 A 
HETATM    3  C   UNL     1      24.571  45.871  50.166  1.00  0.00     0.032 A 
HETATM    4  C   UNL     1      25.869  46.215  50.538  1.00  0.00     0.035 A 
HETATM    5  C   UNL     1      26.354  47.478  50.190  1.00  0.00     0.032 A 
HETATM    6  C   UNL     1      25.546  48.397  49.509  1.00  0.00     0.032 A 
ENDROOT
BRANCH   4   7
HETATM    7  N   UNL     1      26.722  45.375  51.274  1.00  0.00    -0.322 N 
HETATM    8  C   UNL     1      26.700  45.107  52.628  1.00  0.00     0.274 C 
HETATM    9  O   UNL     1      25.875  45.489  53.450  1.00  0.00    -0.266 OA
HETATM   10  H   UNL     1      27.500  44.945  50.778  1.00  0.00     0.169 HD
BRANCH   8  11
HETATM   11  C   UNL     1      27.862  44.267  53.071  1.00  0.00     0.126 A 
HETATM   12  N   UNL     1      28.185  43.217  52.260  1.00  0.00    -0.255 NA
HETATM   13  C   UNL     1      29.249  42.472  52.626  1.00  0.00     0.119 A 
HETATM   14  C   UNL     1      30.006  42.724  53.756  1.00  0.00     0.043 A 
HETATM   15  C   UNL     1      29.644  43.802  54.555  1.00  0.00     0.037 A 
HETATM   16 CL   UNL     1      30.562  44.159  55.966  1.00  0.00    -0.084 Cl
HETATM   17  C   UNL     1      28.556  44.595  54.224  1.00  0.00     0.061 A 
ENDBRANCH   8  11
ENDBRANCH   4   7
BRANCH   1  18
HETATM   18  N   UNL     1      23.344  48.943  48.517  1.00  0.00    -0.328 N 
HETATM   19  C   UNL     1      22.750  50.076  49.043  1.00  0.00     0.218 C 
HETATM   20  C   UNL     1      21.798  50.716  48.062  1.00  0.00     0.117 C 
HETATM   21  O   UNL     1      22.915  50.549  50.161  1.00  0.00    -0.274 OA
HETATM   22  H   UNL     1      23.085  48.693  47.570  1.00  0.00     0.169 HD
ENDBRANCH   1  18
TORSDOF 3
ENDMDL
MODEL 8
REMARK VINA RESULT:      -7.2      6.107     11.096
REMARK  3 active torsions:
REMARK  status: ('A' for Active; 'I' for Inactive)
REMARK       I    between atoms: C_2  and  N_3 
REMARK    1  A    between atoms: N_3  and  C_4 
REMARK    2  A    between atoms: C_7  and  N_8 
REMARK       I    between atoms: N_8  and  C_9 
REMARK    3  A    between atoms: C_9  and  C_10 
ROOT
HETATM    1  C   UNL     1      29.308  43.726  54.478  1.00  0.00     0.034 A 
HETATM    2  C   UNL     1      28.369  44.637  54.969  1.00  0.00     0.032 A 
HETATM    3  C   UNL     1      27.370  45.162  54.138  1.00  0.00     0.032 A 
HETATM    4  C   UNL     1      27.296  44.782  52.800  1.00  0.00     0.035 A 
HETATM    5  C   UNL     1      28.252  43.894  52.301  1.00  0.00     0.032 A 
HETATM    6  C   UNL     1      29.250  43.368  53.132  1.00  0.00     0.032 A 
ENDROOT
BRANCH   4   7
HETATM    7  N   UNL     1      26.294  45.215  51.916  1.00  0.00    -0.322 N 
HETATM    8  C   UNL     1      25.038  44.676  51.714  1.00  0.00     0.274 C 
HETATM    9  O   UNL     1      24.516  43.753  52.329  1.00  0.00    -0.266 OA
HETATM   10  H   UNL     1      26.519  45.986  51.292  1.00  0.00     0.169 HD
BRANCH   8  11
HETATM   11  C   UNL     1      24.302  45.331  50.583  1.00  0.00     0.126 A 
HETATM   12  N   UNL     1      23.461  44.525  49.870  1.00  0.00    -0.255 NA
HETATM   13  C   UNL     1      22.765  45.107  48.871  1.00  0.00     0.119 A 
HETATM   14  C   UNL     1      22.863  46.450  48.552  1.00  0.00     0.043 A 
HETATM   15  C   UNL     1      23.730  47.235  49.302  1.00  0.00     0.037 A 
HETATM   16 CL   UNL     1      23.879  48.912  48.946  1.00  0.00    -0.084 Cl
HETATM   17  C   UNL     1      24.471  46.683  50.335  1.00  0.00     0.061 A 
ENDBRANCH   8  11
ENDBRANCH   4   7
BRANCH   1  18
HETATM   18  N   UNL     1      30.248  43.211  55.392  1.00  0.00    -0.328 N 
HETATM   19  C   UNL     1      31.025  43.920  56.292  1.00  0.00     0.218 C 
HETATM   20  C   UNL     1      31.963  43.017  57.054  1.00  0.00     0.117 C 
HETATM   21  O   UNL     1      31.017  45.130  56.485  1.00  0.00    -0.274 OA
HETATM   22  H   UNL     1      30.392  42.209  55.360  1.00  0.00     0.169 HD
ENDBRANCH   1  18
TORSDOF 3
ENDMDL
MODEL 9
REMARK VINA RESULT:      -7.0      4.293      9.461
REMARK  3 active torsions:
REMARK  status: ('A' for Active; 'I' for Inactive)
REMARK       I    between atoms: C_2  and  N_3 
REMARK    1  A    between atoms: N_3  and  C_4 
REMARK    2  A    between atoms: C_7  and  N_8 
REMARK       I    between atoms: N_8  and  C_9 
REMARK    3  A    between atoms: C_9  and  C_10 
ROOT
HETATM    1  C   UNL     1      27.002  44.130  52.468  1.00  0.00     0.034 A 
HETATM    2  C   UNL     1      27.290  44.432  51.134  1.00  0.00     0.032 A 
HETATM    3  C   UNL     1      26.365  45.117  50.335  1.00  0.00     0.032 A 
HETATM    4  C   UNL     1      25.136  45.511  50.860  1.00  0.00     0.035 A 
HETATM    5  C   UNL     1      24.836  45.183  52.184  1.00  0.00     0.032 A 
HETATM    6  C   UNL     1      25.761  44.500  52.984  1.00  0.00     0.032 A 
ENDROOT
BRANCH   4   7
HETATM    7  N   UNL     1      24.178  46.250  50.145  1.00  0.00    -0.322 N 
HETATM    8  C   UNL     1      24.202  47.592  49.818  1.00  0.00     0.274 C 
HETATM    9  O   UNL     1      25.108  48.392  50.018  1.00  0.00    -0.266 OA
HETATM   10  H   UNL     1      23.322  45.772  49.875  1.00  0.00     0.169 HD
BRANCH   8  11
HETATM   11  C   UNL     1      22.930  48.051  49.167  1.00  0.00     0.126 A 
HETATM   12  N   UNL     1      22.154  47.074  48.614  1.00  0.00    -0.255 NA
HETATM   13  C   UNL     1      20.990  47.467  48.055  1.00  0.00     0.119 A 
HETATM   14  C   UNL     1      20.562  48.782  48.024  1.00  0.00     0.043 A 
HETATM   15  C   UNL     1      21.383  49.746  48.598  1.00  0.00     0.037 A 
HETATM   16 CL   UNL     1      20.888  51.395  48.591  1.00  0.00    -0.084 Cl
HETATM   17  C   UNL     1      22.590  49.394  49.181  1.00  0.00     0.061 A 
ENDBRANCH   8  11
ENDBRANCH   4   7
BRANCH   1  18
HETATM   18  N   UNL     1      28.006  43.482  53.215  1.00  0.00    -0.328 N 
HETATM   19  C   UNL     1      28.852  44.043  54.156  1.00  0.00     0.218 C 
HETATM   20  C   UNL     1      29.841  43.037  54.690  1.00  0.00     0.117 C 
HETATM   21  O   UNL     1      28.864  45.206  54.541  1.00  0.00    -0.274 OA
HETATM   22  H   UNL     1      28.143  42.499  53.011  1.00  0.00     0.169 HD
ENDBRANCH   1  18
TORSDOF 3
ENDMDL
MODEL 10
REMARK VINA RESULT:      -7.0     11.292     12.891
REMARK  3 active torsions:
REMARK  status: ('A' for Active; 'I' for Inactive)
REMARK       I    between atoms: C_2  and  N_3 
REMARK    1  A    between atoms: N_3  and  C_4 
REMARK    2  A    between atoms: C_7  and  N_8 
REMARK       I    between atoms: N_8  and  C_9 
REMARK    3  A    between atoms: C_9  and  C_10 
ROOT
HETATM    1  C   UNL     1      29.585  44.232  54.994  1.00  0.00     0.034 A 
HETATM    2  C   UNL     1      28.412  44.250  54.233  1.00  0.00     0.032 A 
HETATM    3  C   UNL     1      28.252  43.396  53.134  1.00  0.00     0.032 A 
HETATM    4  C   UNL     1      29.267  42.510  52.777  1.00  0.00     0.035 A 
HETATM    5  C   UNL     1      30.451  42.513  53.518  1.00  0.00     0.032 A 
HETATM    6  C   UNL     1      30.610  43.365  54.619  1.00  0.00     0.032 A 
ENDROOT
BRANCH   4   7
HETATM    7  N   UNL     1      29.165  41.583  51.726  1.00  0.00    -0.322 N 
HETATM    8  C   UNL     1      28.025  41.008  51.200  1.00  0.00     0.274 C 
HETATM    9  O   UNL     1      26.861  41.256  51.494  1.00  0.00    -0.266 OA
HETATM   10  H   UNL     1      30.031  41.231  51.325  1.00  0.00     0.169 HD
BRANCH   8  11
HETATM   11  C   UNL     1      28.328  39.956  50.174  1.00  0.00     0.126 A 
HETATM   12  N   UNL     1      29.077  38.899  50.605  1.00  0.00    -0.255 NA
HETATM   13  C   UNL     1      29.330  37.926  49.704  1.00  0.00     0.119 A 
HETATM   14  C   UNL     1      28.870  37.955  48.399  1.00  0.00     0.043 A 
HETATM   15  C   UNL     1      28.111  39.049  48.001  1.00  0.00     0.037 A 
HETATM   16 CL   UNL     1      27.511  39.124  46.389  1.00  0.00    -0.084 Cl
HETATM   17  C   UNL     1      27.829  40.076  48.888  1.00  0.00     0.061 A 
ENDBRANCH   8  11
ENDBRANCH   4   7
BRANCH   1  18
HETATM   18  N   UNL     1      29.644  45.088  56.112  1.00  0.00    -0.328 N 
HETATM   19  C   UNL     1      30.448  44.959  57.230  1.00  0.00     0.218 C 
HETATM   20  C   UNL     1      30.173  46.041  58.245  1.00  0.00     0.117 C 
HETATM   21  O   UNL     1      31.286  44.091  57.445  1.00  0.00    -0.274 OA
HETATM   22  H   UNL     1      28.998  45.867  56.105  1.00  0.00     0.169 HD
ENDBRANCH   1  18
TORSDOF 3
ENDMDL
