MODEL 1
REMARK VINA RESULT:      -9.9      0.000      0.000
REMARK  5 active torsions:
REMARK  status: ('A' for Active; 'I' for Inactive)
REMARK    1  A    between atoms: N_1  and  C_2 
REMARK    2  A    between atoms: C_2  and  C_3 
REMARK    3  A    between atoms: C_2  and  C_12 
REMARK    4  A    between atoms: C_3  and  C_4 
REMARK    5  A    between atoms: C_17  and  C_23 
ROOT
HETATM    1  C   UNL     1      25.770  46.050  52.378  1.00  0.00     0.141 A 
HETATM    2  N   UNL     1      26.655  45.105  52.420  1.00  0.00    -0.232 NA
HETATM    3  C   UNL     1      27.552  45.097  53.503  1.00  0.00     0.074 A 
HETATM    4  C   UNL     1      28.484  44.064  53.595  1.00  0.00     0.033 A 
HETATM    5  C   UNL     1      29.376  44.004  54.673  1.00  0.00     0.014 A 
HETATM    6  C   UNL     1      29.356  44.981  55.681  1.00  0.00    -0.022 A 
HETATM    7  C   UNL     1      28.425  46.022  55.587  1.00  0.00     0.031 A 
HETATM    8  C   UNL     1      27.537  46.069  54.506  1.00  0.00     0.061 A 
HETATM    9  C   UNL     1      26.539  47.146  54.394  1.00  0.00     0.259 A 
HETATM   10  O   UNL     1      26.452  48.044  55.221  1.00  0.00    -0.267 OA
HETATM   11  N   UNL     1      25.714  47.060  53.305  1.00  0.00    -0.309 N 
HETATM   12  H   UNL     1      24.992  47.762  53.186  1.00  0.00     0.170 HD
ENDROOT
BRANCH   1  13
HETATM   13  C   UNL     1      24.742  46.161  51.241  1.00  0.00     0.291 C 
BRANCH  13  14
HETATM   14  N   UNL     1      24.027  44.867  51.095  1.00  0.00     0.090 N 
HETATM   15  H   UNL     1      24.685  44.174  50.729  1.00  0.00     0.313 HD
HETATM   16  H   UNL     1      23.319  44.969  50.366  1.00  0.00     0.313 HD
ENDBRANCH  13  14
BRANCH  13  17
HETATM   17  C   UNL     1      25.339  46.696  49.923  1.00  0.00     0.082 C 
BRANCH  17  18
HETATM   18  C   UNL     1      24.769  48.012  49.431  1.00  0.00    -0.053 A 
HETATM   19  C   UNL     1      25.602  48.973  48.834  1.00  0.00     0.010 A 
HETATM   20  C   UNL     1      25.079  50.181  48.367  1.00  0.00     0.046 A 
HETATM   21  C   UNL     1      23.720  50.437  48.500  1.00  0.00     0.154 A 
HETATM   22  F   UNL     1      23.220  51.596  48.050  1.00  0.00    -0.203 F 
HETATM   23  C   UNL     1      22.887  49.500  49.098  1.00  0.00     0.155 A 
HETATM   24  F   UNL     1      21.576  49.747  49.227  1.00  0.00    -0.203 F 
HETATM   25  C   UNL     1      23.401  48.293  49.566  1.00  0.00     0.052 A 
ENDBRANCH  17  18
ENDBRANCH  13  17
ENDBRANCH   1  13
BRANCH   6  26
HETATM   26  C   UNL     1      30.277  44.893  56.801  1.00  0.00     0.010 A 
HETATM   27  C   UNL     1      31.312  43.968  57.079  1.00  0.00     0.152 A 
HETATM   28  N   UNL     1      31.951  44.232  58.221  1.00  0.00    -0.187 NA
HETATM   29  N   UNL     1      31.328  45.328  58.682  1.00  0.00    -0.289 N 
HETATM   30  H   UNL     1      31.644  45.729  59.559  1.00  0.00     0.188 HD
HETATM   31  C   UNL     1      30.323  45.765  57.868  1.00  0.00     0.123 A 
ENDBRANCH   6  26
TORSDOF 5
ENDMDL
MODEL 2
REMARK VINA RESULT:      -9.9      2.095      2.828
REMARK  5 active torsions:
REMARK  status: ('A' for Active; 'I' for Inactive)
REMARK    1  A    between atoms: N_1  and  C_2 
REMARK    2  A    between atoms: C_2  and  C_3 
REMARK    3  A    between atoms: C_2  and  C_12 
REMARK    4  A    between atoms: C_3  and  C_4 
REMARK    5  A    between atoms: C_17  and  C_23 
ROOT
HETATM    1  C   UNL     1      26.337  44.896  51.657  1.00  0.00     0.141 A 
HETATM    2  N   UNL     1      26.374  45.676  52.691  1.00  0.00    -0.232 NA
HETATM    3  C   UNL     1      27.338  45.408  53.678  1.00  0.00     0.074 A 
HETATM    4  C   UNL     1      27.428  46.261  54.777  1.00  0.00     0.033 A 
HETATM    5  C   UNL     1      28.394  46.045  55.769  1.00  0.00     0.014 A 
HETATM    6  C   UNL     1      29.288  44.967  55.681  1.00  0.00    -0.022 A 
HETATM    7  C   UNL     1      29.196  44.106  54.581  1.00  0.00     0.031 A 
HETATM    8  C   UNL     1      28.228  44.334  53.596  1.00  0.00     0.061 A 
HETATM    9  C   UNL     1      28.122  43.451  52.422  1.00  0.00     0.259 A 
HETATM   10  O   UNL     1      28.854  42.483  52.265  1.00  0.00    -0.267 OA
HETATM   11  N   UNL     1      27.152  43.801  51.521  1.00  0.00    -0.309 N 
HETATM   12  H   UNL     1      27.047  43.242  50.681  1.00  0.00     0.170 HD
ENDROOT
BRANCH   1  13
HETATM   13  C   UNL     1      25.325  45.091  50.517  1.00  0.00     0.291 C 
BRANCH  13  14
HETATM   14  N   UNL     1      26.006  44.886  49.213  1.00  0.00     0.090 N 
HETATM   15  H   UNL     1      27.000  45.094  49.332  1.00  0.00     0.313 HD
HETATM   16  H   UNL     1      25.665  45.589  48.556  1.00  0.00     0.313 HD
ENDBRANCH  13  14
BRANCH  13  17
HETATM   17  C   UNL     1      24.543  46.418  50.611  1.00  0.00     0.082 C 
BRANCH  17  18
HETATM   18  C   UNL     1      25.141  47.585  49.852  1.00  0.00    -0.053 A 
HETATM   19  C   UNL     1      24.325  48.430  49.080  1.00  0.00     0.010 A 
HETATM   20  C   UNL     1      24.870  49.515  48.390  1.00  0.00     0.046 A 
HETATM   21  C   UNL     1      26.235  49.759  48.463  1.00  0.00     0.154 A 
HETATM   22  F   UNL     1      26.755  50.802  47.802  1.00  0.00    -0.203 F 
HETATM   23  C   UNL     1      27.055  48.926  49.213  1.00  0.00     0.155 A 
HETATM   24  F   UNL     1      28.373  49.160  49.284  1.00  0.00    -0.203 F 
HETATM   25  C   UNL     1      26.520  47.842  49.905  1.00  0.00     0.052 A 
ENDBRANCH  17  18
ENDBRANCH  13  17
ENDBRANCH   1  13
BRANCH   6  26
HETATM   26  C   UNL     1      30.295  44.768  56.710  1.00  0.00     0.010 A 
HETATM   27  C   UNL     1      31.349  43.829  56.806  1.00  0.00     0.152 A 
HETATM   28  N   UNL     1      32.075  43.976  57.917  1.00  0.00    -0.187 NA
HETATM   29  N   UNL     1      31.490  45.010  58.540  1.00  0.00    -0.289 N 
HETATM   30  H   UNL     1      31.873  45.319  59.428  1.00  0.00     0.188 HD
HETATM   31  C   UNL     1      30.423  45.522  57.858  1.00  0.00     0.123 A 
ENDBRANCH   6  26
TORSDOF 5
ENDMDL
MODEL 3
REMARK VINA RESULT:      -9.6      4.566      9.313
REMARK  5 active torsions:
REMARK  status: ('A' for Active; 'I' for Inactive)
REMARK    1  A    between atoms: N_1  and  C_2 
REMARK    2  A    between atoms: C_2  and  C_3 
REMARK    3  A    between atoms: C_2  and  C_12 
REMARK    4  A    between atoms: C_3  and  C_4 
REMARK    5  A    between atoms: C_17  and  C_23 
ROOT
HETATM    1  C   UNL     1      26.621  43.692  52.260  1.00  0.00     0.141 A 
HETATM    2  N   UNL     1      26.980  44.884  51.899  1.00  0.00    -0.232 NA
HETATM    3  C   UNL     1      26.078  45.631  51.123  1.00  0.00     0.074 A 
HETATM    4  C   UNL     1      26.422  46.934  50.761  1.00  0.00     0.033 A 
HETATM    5  C   UNL     1      25.539  47.722  50.012  1.00  0.00     0.014 A 
HETATM    6  C   UNL     1      24.293  47.220  49.605  1.00  0.00    -0.022 A 
HETATM    7  C   UNL     1      23.948  45.911  49.961  1.00  0.00     0.031 A 
HETATM    8  C   UNL     1      24.838  45.134  50.712  1.00  0.00     0.061 A 
HETATM    9  C   UNL     1      24.491  43.760  51.112  1.00  0.00     0.259 A 
HETATM   10  O   UNL     1      23.430  43.237  50.798  1.00  0.00    -0.267 OA
HETATM   11  N   UNL     1      25.437  43.121  51.867  1.00  0.00    -0.309 N 
HETATM   12  H   UNL     1      25.244  42.179  52.191  1.00  0.00     0.170 HD
ENDROOT
BRANCH   1  13
HETATM   13  C   UNL     1      27.525  42.783  53.106  1.00  0.00     0.291 C 
BRANCH  13  14
HETATM   14  N   UNL     1      26.952  42.650  54.470  1.00  0.00     0.090 N 
HETATM   15  H   UNL     1      26.936  41.658  54.718  1.00  0.00     0.313 HD
HETATM   16  H   UNL     1      25.970  42.930  54.437  1.00  0.00     0.313 HD
ENDBRANCH  13  14
BRANCH  13  17
HETATM   17  C   UNL     1      29.009  43.209  53.093  1.00  0.00     0.082 C 
BRANCH  17  18
HETATM   18  C   UNL     1      29.523  43.834  54.374  1.00  0.00    -0.053 A 
HETATM   19  C   UNL     1      28.996  45.052  54.837  1.00  0.00     0.010 A 
HETATM   20  C   UNL     1      29.456  45.625  56.025  1.00  0.00     0.046 A 
HETATM   21  C   UNL     1      30.451  44.986  56.754  1.00  0.00     0.154 A 
HETATM   22  F   UNL     1      30.890  45.536  57.894  1.00  0.00    -0.203 F 
HETATM   23  C   UNL     1      30.988  43.787  56.303  1.00  0.00     0.155 A 
HETATM   24  F   UNL     1      31.949  43.170  57.006  1.00  0.00    -0.203 F 
HETATM   25  C   UNL     1      30.534  43.209  55.119  1.00  0.00     0.052 A 
ENDBRANCH  17  18
ENDBRANCH  13  17
ENDBRANCH   1  13
BRANCH   6  26
HETATM   26  C   UNL     1      23.383  48.057  48.843  1.00  0.00     0.010 A 
HETATM   27  C   UNL     1      23.585  49.304  48.204  1.00  0.00     0.152 A 
HETATM   28  N   UNL     1      22.490  49.757  47.589  1.00  0.00    -0.187 NA
HETATM   29  N   UNL     1      21.579  48.802  47.830  1.00  0.00    -0.289 N 
HETATM   30  H   UNL     1      20.644  48.921  47.453  1.00  0.00     0.188 HD
HETATM   31  C   UNL     1      22.063  47.763  48.572  1.00  0.00     0.123 A 
ENDBRANCH   6  26
TORSDOF 5
ENDMDL
MODEL 4
REMARK VINA RESULT:      -9.6      1.357      1.994
REMARK  5 active torsions:
REMARK  status: ('A' for Active; 'I' for Inactive)
REMARK    1  A    between atoms: N_1  and  C_2 
REMARK    2  A    between atoms: C_2  and  C_3 
REMARK    3  A    between atoms: C_2  and  C_12 
REMARK    4  A    between atoms: C_3  and  C_4 
REMARK    5  A    between atoms: C_17  and  C_23 
ROOT
HETATM    1  C   UNL     1      25.795  45.574  52.060  1.00  0.00     0.141 A 
HETATM    2  N   UNL     1      26.246  46.370  52.977  1.00  0.00    -0.232 NA
HETATM    3  C   UNL     1      27.246  45.879  53.835  1.00  0.00     0.074 A 
HETATM    4  C   UNL     1      27.780  46.732  54.800  1.00  0.00     0.033 A 
HETATM    5  C   UNL     1      28.797  46.291  55.656  1.00  0.00     0.014 A 
HETATM    6  C   UNL     1      29.298  44.983  55.566  1.00  0.00    -0.022 A 
HETATM    7  C   UNL     1      28.759  44.123  54.602  1.00  0.00     0.031 A 
HETATM    8  C   UNL     1      27.745  44.577  53.751  1.00  0.00     0.061 A 
HETATM    9  C   UNL     1      27.173  43.695  52.719  1.00  0.00     0.259 A 
HETATM   10  O   UNL     1      27.543  42.539  52.571  1.00  0.00    -0.267 OA
HETATM   11  N   UNL     1      26.208  44.271  51.936  1.00  0.00    -0.309 N 
HETATM   12  H   UNL     1      25.793  43.719  51.193  1.00  0.00     0.170 HD
ENDROOT
BRANCH   1  13
HETATM   13  C   UNL     1      24.702  46.000  51.069  1.00  0.00     0.291 C 
BRANCH  13  14
HETATM   14  N   UNL     1      23.778  44.860  50.835  1.00  0.00     0.090 N 
HETATM   15  H   UNL     1      23.020  44.913  51.521  1.00  0.00     0.313 HD
HETATM   16  H   UNL     1      24.271  43.993  51.053  1.00  0.00     0.313 HD
ENDBRANCH  13  14
BRANCH  13  17
HETATM   17  C   UNL     1      25.258  46.626  49.772  1.00  0.00     0.082 C 
BRANCH  17  18
HETATM   18  C   UNL     1      24.673  47.971  49.391  1.00  0.00    -0.053 A 
HETATM   19  C   UNL     1      25.493  48.984  48.866  1.00  0.00     0.010 A 
HETATM   20  C   UNL     1      24.955  50.221  48.500  1.00  0.00     0.046 A 
HETATM   21  C   UNL     1      23.595  50.453  48.663  1.00  0.00     0.154 A 
HETATM   22  F   UNL     1      23.081  51.639  48.310  1.00  0.00    -0.203 F 
HETATM   23  C   UNL     1      22.775  49.464  49.192  1.00  0.00     0.155 A 
HETATM   24  F   UNL     1      21.463  49.688  49.350  1.00  0.00    -0.203 F 
HETATM   25  C   UNL     1      23.303  48.228  49.559  1.00  0.00     0.052 A 
ENDBRANCH  17  18
ENDBRANCH  13  17
ENDBRANCH   1  13
BRANCH   6  26
HETATM   26  C   UNL     1      30.366  44.548  56.450  1.00  0.00     0.010 A 
HETATM   27  C   UNL     1      30.764  45.020  57.724  1.00  0.00     0.152 A 
HETATM   28  N   UNL     1      31.800  44.344  58.227  1.00  0.00    -0.187 NA
HETATM   29  N   UNL     1      32.072  43.435  57.279  1.00  0.00    -0.289 N 
HETATM   30  H   UNL     1      32.837  42.787  57.436  1.00  0.00     0.188 HD
HETATM   31  C   UNL     1      31.241  43.512  56.198  1.00  0.00     0.123 A 
ENDBRANCH   6  26
TORSDOF 5
ENDMDL
MODEL 5
REMARK VINA RESULT:      -9.4      7.817     10.798
REMARK  5 active torsions:
REMARK  status: ('A' for Active; 'I' for Inactive)
REMARK    1  A    between atoms: N_1  and  C_2 
REMARK    2  A    between atoms: C_2  and  C_3 
REMARK    3  A    between atoms: C_2  and  C_12 
REMARK    4  A    between atoms: C_3  and  C_4 
REMARK    5  A    between atoms: C_17  and  C_23 
ROOT
HETATM    1  C   UNL     1      28.744  40.372  51.548  1.00  0.00     0.141 A 
HETATM    2  N   UNL     1      28.253  40.793  50.425  1.00  0.00    -0.232 NA
HETATM    3  C   UNL     1      28.377  39.954  49.303  1.00  0.00     0.074 A 
HETATM    4  C   UNL     1      27.815  40.364  48.094  1.00  0.00     0.033 A 
HETATM    5  C   UNL     1      27.892  39.546  46.960  1.00  0.00     0.014 A 
HETATM    6  C   UNL     1      28.537  38.301  47.011  1.00  0.00    -0.022 A 
HETATM    7  C   UNL     1      29.106  37.890  48.223  1.00  0.00     0.031 A 
HETATM    8  C   UNL     1      29.021  38.716  49.350  1.00  0.00     0.061 A 
HETATM    9  C   UNL     1      29.599  38.298  50.638  1.00  0.00     0.259 A 
HETATM   10  O   UNL     1      30.184  37.232  50.776  1.00  0.00    -0.267 OA
HETATM   11  N   UNL     1      29.421  39.184  51.666  1.00  0.00    -0.309 N 
HETATM   12  H   UNL     1      29.778  38.941  52.584  1.00  0.00     0.170 HD
ENDROOT
BRANCH   1  13
HETATM   13  C   UNL     1      28.670  41.203  52.838  1.00  0.00     0.291 C 
BRANCH  13  14
HETATM   14  N   UNL     1      27.396  40.907  53.542  1.00  0.00     0.090 N 
HETATM   15  H   UNL     1      27.207  41.667  54.201  1.00  0.00     0.313 HD
HETATM   16  H   UNL     1      27.532  40.080  54.125  1.00  0.00     0.313 HD
ENDBRANCH  13  14
BRANCH  13  17
HETATM   17  C   UNL     1      28.924  42.708  52.615  1.00  0.00     0.082 C 
BRANCH  17  18
HETATM   18  C   UNL     1      29.335  43.493  53.844  1.00  0.00    -0.053 A 
HETATM   19  C   UNL     1      28.628  44.646  54.226  1.00  0.00     0.010 A 
HETATM   20  C   UNL     1      28.995  45.364  55.367  1.00  0.00     0.046 A 
HETATM   21  C   UNL     1      30.075  44.937  56.128  1.00  0.00     0.154 A 
HETATM   22  F   UNL     1      30.423  45.627  57.223  1.00  0.00    -0.203 F 
HETATM   23  C   UNL     1      30.789  43.806  55.757  1.00  0.00     0.155 A 
HETATM   24  F   UNL     1      31.832  43.394  56.492  1.00  0.00    -0.203 F 
HETATM   25  C   UNL     1      30.430  43.083  54.621  1.00  0.00     0.052 A 
ENDBRANCH  17  18
ENDBRANCH  13  17
ENDBRANCH   1  13
BRANCH   6  26
HETATM   26  C   UNL     1      28.592  37.458  45.829  1.00  0.00     0.010 A 
HETATM   27  C   UNL     1      28.687  36.052  45.697  1.00  0.00     0.152 A 
HETATM   28  N   UNL     1      28.702  35.650  44.424  1.00  0.00    -0.187 NA
HETATM   29  N   UNL     1      28.616  36.797  43.732  1.00  0.00    -0.289 N 
HETATM   30  H   UNL     1      28.608  36.750  42.718  1.00  0.00     0.188 HD
HETATM   31  C   UNL     1      28.544  37.906  44.525  1.00  0.00     0.123 A 
ENDBRANCH   6  26
TORSDOF 5
ENDMDL
MODEL 6
REMARK VINA RESULT:      -9.3      2.264      2.998
REMARK  5 active torsions:
REMARK  status: ('A' for Active; 'I' for Inactive)
REMARK    1  A    between atoms: N_1  and  C_2 
REMARK    2  A    between atoms: C_2  and  C_3 
REMARK    3  A    between atoms: C_2  and  C_12 
REMARK    4  A    between atoms: C_3  and  C_4 
REMARK    5  A    between atoms: C_17  and  C_23 
ROOT
HETATM    1  C   UNL     1      26.430  42.926  51.622  1.00  0.00     0.141 A 
HETATM    2  N   UNL     1      27.696  42.660  51.691  1.00  0.00    -0.232 NA
HETATM    3  C   UNL     1      28.384  43.054  52.852  1.00  0.00     0.074 A 
HETATM    4  C   UNL     1      29.737  42.737  52.971  1.00  0.00     0.033 A 
HETATM    5  C   UNL     1      30.452  43.087  54.124  1.00  0.00     0.014 A 
HETATM    6  C   UNL     1      29.827  43.765  55.181  1.00  0.00    -0.022 A 
HETATM    7  C   UNL     1      28.470  44.089  55.062  1.00  0.00     0.031 A 
HETATM    8  C   UNL     1      27.766  43.732  53.906  1.00  0.00     0.061 A 
HETATM    9  C   UNL     1      26.335  44.049  53.765  1.00  0.00     0.259 A 
HETATM   10  O   UNL     1      25.709  44.643  54.632  1.00  0.00    -0.267 OA
HETATM   11  N   UNL     1      25.760  43.620  52.598  1.00  0.00    -0.309 N 
HETATM   12  H   UNL     1      24.771  43.790  52.454  1.00  0.00     0.170 HD
ENDROOT
BRANCH   1  13
HETATM   13  C   UNL     1      25.577  42.547  50.402  1.00  0.00     0.291 C 
BRANCH  13  14
HETATM   14  N   UNL     1      25.761  41.103  50.102  1.00  0.00     0.090 N 
HETATM   15  H   UNL     1      24.850  40.704  49.862  1.00  0.00     0.313 HD
HETATM   16  H   UNL     1      26.040  40.627  50.961  1.00  0.00     0.313 HD
ENDBRANCH  13  14
BRANCH  13  17
HETATM   17  C   UNL     1      25.801  43.469  49.185  1.00  0.00     0.082 C 
BRANCH  17  18
HETATM   18  C   UNL     1      25.283  44.886  49.333  1.00  0.00    -0.053 A 
HETATM   19  C   UNL     1      23.938  45.187  49.061  1.00  0.00     0.010 A 
HETATM   20  C   UNL     1      23.452  46.489  49.210  1.00  0.00     0.046 A 
HETATM   21  C   UNL     1      24.312  47.498  49.626  1.00  0.00     0.154 A 
HETATM   22  F   UNL     1      23.843  48.745  49.769  1.00  0.00    -0.203 F 
HETATM   23  C   UNL     1      25.646  47.216  49.888  1.00  0.00     0.155 A 
HETATM   24  F   UNL     1      26.476  48.190  50.289  1.00  0.00    -0.203 F 
HETATM   25  C   UNL     1      26.138  45.921  49.743  1.00  0.00     0.052 A 
ENDBRANCH  17  18
ENDBRANCH  13  17
ENDBRANCH   1  13
BRANCH   6  26
HETATM   26  C   UNL     1      30.580  44.104  56.377  1.00  0.00     0.010 A 
HETATM   27  C   UNL     1      31.670  43.453  57.001  1.00  0.00     0.152 A 
HETATM   28  N   UNL     1      32.099  44.089  58.094  1.00  0.00    -0.187 NA
HETATM   29  N   UNL     1      31.285  45.153  58.176  1.00  0.00    -0.289 N 
HETATM   30  H   UNL     1      31.418  45.805  58.943  1.00  0.00     0.188 HD
HETATM   31  C   UNL     1      30.362  45.210  57.172  1.00  0.00     0.123 A 
ENDBRANCH   6  26
TORSDOF 5
ENDMDL
MODEL 7
REMARK VINA RESULT:      -9.2      4.691      9.737
REMARK  5 active torsions:
REMARK  status: ('A' for Active; 'I' for Inactive)
REMARK    1  A    between atoms: N_1  and  C_2 
REMARK    2  A    between atoms: C_2  and  C_3 
REMARK    3  A    between atoms: C_2  and  C_12 
REMARK    4  A    between atoms: C_3  and  C_4 
REMARK    5  A    between atoms: C_17  and  C_23 
ROOT
HETATM    1  C   UNL     1      26.102  44.680  52.655  1.00  0.00     0.141 A 
HETATM    2  N   UNL     1      25.224  43.915  52.086  1.00  0.00    -0.232 NA
HETATM    3  C   UNL     1      24.477  44.454  51.025  1.00  0.00     0.074 A 
HETATM    4  C   UNL     1      23.560  43.635  50.367  1.00  0.00     0.033 A 
HETATM    5  C   UNL     1      22.815  44.125  49.286  1.00  0.00     0.014 A 
HETATM    6  C   UNL     1      22.971  45.448  48.844  1.00  0.00    -0.022 A 
HETATM    7  C   UNL     1      23.887  46.273  49.507  1.00  0.00     0.031 A 
HETATM    8  C   UNL     1      24.626  45.771  50.584  1.00  0.00     0.061 A 
HETATM    9  C   UNL     1      25.607  46.616  51.287  1.00  0.00     0.259 A 
HETATM   10  O   UNL     1      25.805  47.782  50.976  1.00  0.00    -0.267 OA
HETATM   11  N   UNL     1      26.282  45.995  52.303  1.00  0.00    -0.309 N 
HETATM   12  H   UNL     1      26.987  46.520  52.809  1.00  0.00     0.170 HD
ENDROOT
BRANCH   1  13
HETATM   13  C   UNL     1      26.974  44.201  53.825  1.00  0.00     0.291 C 
BRANCH  13  14
HETATM   14  N   UNL     1      26.131  43.457  54.796  1.00  0.00     0.090 N 
HETATM   15  H   UNL     1      25.374  43.000  54.282  1.00  0.00     0.313 HD
HETATM   16  H   UNL     1      25.666  44.132  55.405  1.00  0.00     0.313 HD
ENDBRANCH  13  14
BRANCH  13  17
HETATM   17  C   UNL     1      27.815  45.327  54.464  1.00  0.00     0.082 C 
BRANCH  17  18
HETATM   18  C   UNL     1      29.015  44.870  55.270  1.00  0.00    -0.053 A 
HETATM   19  C   UNL     1      29.725  43.715  54.902  1.00  0.00     0.010 A 
HETATM   20  C   UNL     1      30.841  43.299  55.633  1.00  0.00     0.046 A 
HETATM   21  C   UNL     1      31.248  44.032  56.740  1.00  0.00     0.154 A 
HETATM   22  F   UNL     1      32.319  43.632  57.439  1.00  0.00    -0.203 F 
HETATM   23  C   UNL     1      30.549  45.170  57.121  1.00  0.00     0.155 A 
HETATM   24  F   UNL     1      30.941  45.878  58.190  1.00  0.00    -0.203 F 
HETATM   25  C   UNL     1      29.436  45.592  56.397  1.00  0.00     0.052 A 
ENDBRANCH  17  18
ENDBRANCH  13  17
ENDBRANCH   1  13
BRANCH   6  26
HETATM   26  C   UNL     1      22.202  45.934  47.711  1.00  0.00     0.010 A 
HETATM   27  C   UNL     1      22.120  45.465  46.378  1.00  0.00     0.152 A 
HETATM   28  N   UNL     1      21.284  46.185  45.625  1.00  0.00    -0.187 NA
HETATM   29  N   UNL     1      20.825  47.119  46.472  1.00  0.00    -0.289 N 
HETATM   30  H   UNL     1      20.157  47.799  46.124  1.00  0.00     0.188 HD
HETATM   31  C   UNL     1      21.341  47.010  47.732  1.00  0.00     0.123 A 
ENDBRANCH   6  26
TORSDOF 5
ENDMDL
MODEL 8
REMARK VINA RESULT:      -9.1      6.019      9.197
REMARK  5 active torsions:
REMARK  status: ('A' for Active; 'I' for Inactive)
REMARK    1  A    between atoms: N_1  and  C_2 
REMARK    2  A    between atoms: C_2  and  C_3 
REMARK    3  A    between atoms: C_2  and  C_12 
REMARK    4  A    between atoms: C_3  and  C_4 
REMARK    5  A    between atoms: C_17  and  C_23 
ROOT
HETATM    1  C   UNL     1      27.166  43.431  53.376  1.00  0.00     0.141 A 
HETATM    2  N   UNL     1      26.910  43.581  52.115  1.00  0.00    -0.232 NA
HETATM    3  C   UNL     1      27.260  42.532  51.247  1.00  0.00     0.074 A 
HETATM    4  C   UNL     1      26.952  42.650  49.892  1.00  0.00     0.033 A 
HETATM    5  C   UNL     1      27.259  41.616  48.999  1.00  0.00     0.014 A 
HETATM    6  C   UNL     1      27.886  40.442  49.444  1.00  0.00    -0.022 A 
HETATM    7  C   UNL     1      28.202  40.323  50.803  1.00  0.00     0.031 A 
HETATM    8  C   UNL     1      27.888  41.363  51.685  1.00  0.00     0.061 A 
HETATM    9  C   UNL     1      28.196  41.255  53.122  1.00  0.00     0.259 A 
HETATM   10  O   UNL     1      28.747  40.272  53.598  1.00  0.00    -0.267 OA
HETATM   11  N   UNL     1      27.812  42.329  53.878  1.00  0.00    -0.309 N 
HETATM   12  H   UNL     1      27.978  42.302  54.878  1.00  0.00     0.170 HD
ENDROOT
BRANCH   1  13
HETATM   13  C   UNL     1      26.831  44.511  54.416  1.00  0.00     0.291 C 
BRANCH  13  14
HETATM   14  N   UNL     1      25.470  45.044  54.151  1.00  0.00     0.090 N 
HETATM   15  H   UNL     1      25.563  45.964  53.714  1.00  0.00     0.313 HD
HETATM   16  H   UNL     1      25.012  45.222  55.046  1.00  0.00     0.313 HD
ENDBRANCH  13  14
BRANCH  13  17
HETATM   17  C   UNL     1      27.915  45.602  54.539  1.00  0.00     0.082 C 
BRANCH  17  18
HETATM   18  C   UNL     1      28.917  45.407  55.660  1.00  0.00    -0.053 A 
HETATM   19  C   UNL     1      28.800  46.133  56.857  1.00  0.00     0.010 A 
HETATM   20  C   UNL     1      29.713  45.945  57.898  1.00  0.00     0.046 A 
HETATM   21  C   UNL     1      30.752  45.035  57.745  1.00  0.00     0.154 A 
HETATM   22  F   UNL     1      31.625  44.857  58.745  1.00  0.00    -0.203 F 
HETATM   23  C   UNL     1      30.885  44.320  56.562  1.00  0.00     0.155 A 
HETATM   24  F   UNL     1      31.887  43.442  56.413  1.00  0.00    -0.203 F 
HETATM   25  C   UNL     1      29.979  44.500  55.519  1.00  0.00     0.052 A 
ENDBRANCH  17  18
ENDBRANCH  13  17
ENDBRANCH   1  13
BRANCH   6  26
HETATM   26  C   UNL     1      28.181  39.372  48.506  1.00  0.00     0.010 A 
HETATM   27  C   UNL     1      28.017  39.299  47.102  1.00  0.00     0.152 A 
HETATM   28  N   UNL     1      28.420  38.132  46.593  1.00  0.00    -0.187 NA
HETATM   29  N   UNL     1      28.844  37.450  47.668  1.00  0.00    -0.289 N 
HETATM   30  H   UNL     1      29.207  36.512  47.532  1.00  0.00     0.188 HD
HETATM   31  C   UNL     1      28.726  38.148  48.835  1.00  0.00     0.123 A 
ENDBRANCH   6  26
TORSDOF 5
ENDMDL
MODEL 9
REMARK VINA RESULT:      -9.1      4.604      5.917
REMARK  5 active torsions:
REMARK  status: ('A' for Active; 'I' for Inactive)
REMARK    1  A    between atoms: N_1  and  C_2 
REMARK    2  A    between atoms: C_2  and  C_3 
REMARK    3  A    between atoms: C_2  and  C_12 
REMARK    4  A    between atoms: C_3  and  C_4 
REMARK    5  A    between atoms: C_17  and  C_23 
ROOT
HETATM    1  C   UNL     1      26.468  44.028  51.577  1.00  0.00     0.141 A 
HETATM    2  N   UNL     1      27.604  43.434  51.762  1.00  0.00    -0.232 NA
HETATM    3  C   UNL     1      28.310  43.725  52.942  1.00  0.00     0.074 A 
HETATM    4  C   UNL     1      29.513  43.063  53.186  1.00  0.00     0.033 A 
HETATM    5  C   UNL     1      30.233  43.304  54.363  1.00  0.00     0.014 A 
HETATM    6  C   UNL     1      29.764  44.217  55.320  1.00  0.00    -0.022 A 
HETATM    7  C   UNL     1      28.560  44.887  55.075  1.00  0.00     0.031 A 
HETATM    8  C   UNL     1      27.849  44.636  53.896  1.00  0.00     0.061 A 
HETATM    9  C   UNL     1      26.572  45.317  53.623  1.00  0.00     0.259 A 
HETATM   10  O   UNL     1      26.089  46.133  54.397  1.00  0.00    -0.267 OA
HETATM   11  N   UNL     1      25.965  44.961  52.449  1.00  0.00    -0.309 N 
HETATM   12  H   UNL     1      25.071  45.381  52.218  1.00  0.00     0.170 HD
ENDROOT
BRANCH   1  13
HETATM   13  C   UNL     1      25.611  43.790  50.324  1.00  0.00     0.291 C 
BRANCH  13  14
HETATM   14  N   UNL     1      24.527  44.804  50.269  1.00  0.00     0.090 N 
HETATM   15  H   UNL     1      24.939  45.703  50.009  1.00  0.00     0.313 HD
HETATM   16  H   UNL     1      24.164  44.942  51.214  1.00  0.00     0.313 HD
ENDBRANCH  13  14
BRANCH  13  17
HETATM   17  C   UNL     1      25.112  42.335  50.189  1.00  0.00     0.082 C 
BRANCH  17  18
HETATM   18  C   UNL     1      26.121  41.344  49.644  1.00  0.00    -0.053 A 
HETATM   19  C   UNL     1      26.228  40.057  50.197  1.00  0.00     0.010 A 
HETATM   20  C   UNL     1      27.147  39.135  49.688  1.00  0.00     0.046 A 
HETATM   21  C   UNL     1      27.968  39.499  48.629  1.00  0.00     0.154 A 
HETATM   22  F   UNL     1      28.847  38.613  48.142  1.00  0.00    -0.203 F 
HETATM   23  C   UNL     1      27.880  40.772  48.081  1.00  0.00     0.155 A 
HETATM   24  F   UNL     1      28.673  41.123  47.058  1.00  0.00    -0.203 F 
HETATM   25  C   UNL     1      26.966  41.697  48.581  1.00  0.00     0.052 A 
ENDBRANCH  17  18
ENDBRANCH  13  17
ENDBRANCH   1  13
BRANCH   6  26
HETATM   26  C   UNL     1      30.515  44.442  56.543  1.00  0.00     0.010 A 
HETATM   27  C   UNL     1      31.588  43.719  57.118  1.00  0.00     0.152 A 
HETATM   28  N   UNL     1      32.022  44.255  58.262  1.00  0.00    -0.187 NA
HETATM   29  N   UNL     1      31.229  45.325  58.427  1.00  0.00    -0.289 N 
HETATM   30  H   UNL     1      31.369  45.908  59.245  1.00  0.00     0.188 HD
HETATM   31  C   UNL     1      30.314  45.483  57.425  1.00  0.00     0.123 A 
ENDBRANCH   6  26
TORSDOF 5
ENDMDL
MODEL 10
REMARK VINA RESULT:      -8.9      6.278      9.709
REMARK  5 active torsions:
REMARK  status: ('A' for Active; 'I' for Inactive)
REMARK    1  A    between atoms: N_1  and  C_2 
REMARK    2  A    between atoms: C_2  and  C_3 
REMARK    3  A    between atoms: C_2  and  C_12 
REMARK    4  A    between atoms: C_3  and  C_4 
REMARK    5  A    between atoms: C_17  and  C_23 
ROOT
HETATM    1  C   UNL     1      27.495  42.697  52.432  1.00  0.00     0.141 A 
HETATM    2  N   UNL     1      27.943  41.517  52.140  1.00  0.00    -0.232 NA
HETATM    3  C   UNL     1      27.901  41.117  50.793  1.00  0.00     0.074 A 
HETATM    4  C   UNL     1      28.421  39.870  50.447  1.00  0.00     0.033 A 
HETATM    5  C   UNL     1      28.423  39.445  49.112  1.00  0.00     0.014 A 
HETATM    6  C   UNL     1      27.900  40.259  48.096  1.00  0.00    -0.022 A 
HETATM    7  C   UNL     1      27.372  41.509  48.442  1.00  0.00     0.031 A 
HETATM    8  C   UNL     1      27.378  41.923  49.779  1.00  0.00     0.061 A 
HETATM    9  C   UNL     1      26.843  43.240  50.165  1.00  0.00     0.259 A 
HETATM   10  O   UNL     1      26.362  44.013  49.348  1.00  0.00    -0.267 OA
HETATM   11  N   UNL     1      26.934  43.533  51.499  1.00  0.00    -0.309 N 
HETATM   12  H   UNL     1      26.602  44.435  51.821  1.00  0.00     0.170 HD
ENDROOT
BRANCH   1  13
HETATM   13  C   UNL     1      27.489  43.241  53.869  1.00  0.00     0.291 C 
BRANCH  13  14
HETATM   14  N   UNL     1      26.086  43.389  54.333  1.00  0.00     0.090 N 
HETATM   15  H   UNL     1      26.099  43.687  55.312  1.00  0.00     0.313 HD
HETATM   16  H   UNL     1      25.649  42.466  54.344  1.00  0.00     0.313 HD
ENDBRANCH  13  14
BRANCH  13  17
HETATM   17  C   UNL     1      28.342  44.514  54.047  1.00  0.00     0.082 C 
BRANCH  17  18
HETATM   18  C   UNL     1      29.335  44.482  55.192  1.00  0.00    -0.053 A 
HETATM   19  C   UNL     1      30.275  43.442  55.294  1.00  0.00     0.010 A 
HETATM   20  C   UNL     1      31.201  43.417  56.340  1.00  0.00     0.046 A 
HETATM   21  C   UNL     1      31.189  44.427  57.292  1.00  0.00     0.154 A 
HETATM   22  F   UNL     1      32.079  44.401  58.293  1.00  0.00    -0.203 F 
HETATM   23  C   UNL     1      30.258  45.455  57.210  1.00  0.00     0.155 A 
HETATM   24  F   UNL     1      30.245  46.430  58.129  1.00  0.00    -0.203 F 
HETATM   25  C   UNL     1      29.332  45.489  56.170  1.00  0.00     0.052 A 
ENDBRANCH  17  18
ENDBRANCH  13  17
ENDBRANCH   1  13
BRANCH   6  26
HETATM   26  C   UNL     1      27.926  39.809  46.714  1.00  0.00     0.010 A 
HETATM   27  C   UNL     1      27.843  38.509  46.162  1.00  0.00     0.152 A 
HETATM   28  N   UNL     1      27.895  38.508  44.827  1.00  0.00    -0.187 NA
HETATM   29  N   UNL     1      28.012  39.808  44.517  1.00  0.00    -0.289 N 
HETATM   30  H   UNL     1      28.070  40.067  43.538  1.00  0.00     0.188 HD
HETATM   31  C   UNL     1      28.032  40.627  45.609  1.00  0.00     0.123 A 
ENDBRANCH   6  26
TORSDOF 5
ENDMDL
