MODEL 1
REMARK VINA RESULT:      -9.8      0.000      0.000
REMARK  8 active torsions:
REMARK  status: ('A' for Active; 'I' for Inactive)
REMARK    1  A    between atoms: O_2  and  C_3 
REMARK    2  A    between atoms: C_6  and  C_7 
REMARK    3  A    between atoms: C_7  and  C_8 
REMARK    4  A    between atoms: C_8  and  C_9 
REMARK    5  A    between atoms: C_11  and  N_12 
REMARK       I    between atoms: N_12  and  C_13 
REMARK    6  A    between atoms: C_13  and  C_14 
REMARK    7  A    between atoms: C_18  and  C_19 
REMARK    8  A    between atoms: C_20  and  O_21 
ROOT
HETATM    1  N   UNL     1      24.078  46.372  50.248  1.00  0.00    -0.149 N 
HETATM    2  C   UNL     1      24.762  45.211  49.983  1.00  0.00     0.290 C 
HETATM    3  O   UNL     1      24.832  44.620  48.911  1.00  0.00    -0.265 OA
HETATM    4  H   UNL     1      24.096  46.728  51.193  1.00  0.00     0.188 HD
ENDROOT
BRANCH   1   5
HETATM    5  C   UNL     1      23.376  47.089  49.328  1.00  0.00     0.747 A 
HETATM    6  N   UNL     1      23.630  48.432  49.193  1.00  0.00    -0.046 NA
HETATM    7  C   UNL     1      22.809  48.810  48.234  1.00  0.00     0.140 A 
HETATM    8  N   UNL     1      22.106  47.719  47.811  1.00  0.00    -0.248 N 
HETATM    9  N   UNL     1      22.438  46.629  48.501  1.00  0.00     0.020 NA
HETATM   10  H   UNL     1      21.400  47.651  47.088  1.00  0.00     0.191 HD
BRANCH   7  11
HETATM   11  C   UNL     1      22.631  50.157  47.628  1.00  0.00     0.085 C 
BRANCH  11  12
HETATM   12  C   UNL     1      22.328  51.220  48.690  1.00  0.00     0.046 C 
BRANCH  12  13
HETATM   13  C   UNL     1      20.863  51.283  49.048  1.00  0.00    -0.058 A 
HETATM   14  C   UNL     1      20.348  50.465  50.062  1.00  0.00     0.010 A 
HETATM   15  C   UNL     1      18.999  50.534  50.424  1.00  0.00     0.037 A 
HETATM   16  C   UNL     1      18.147  51.428  49.778  1.00  0.00     0.068 A 
HETATM   17  C   UNL     1      18.652  52.228  48.751  1.00  0.00     0.037 A 
HETATM   18  C   UNL     1      19.999  52.160  48.386  1.00  0.00     0.010 A 
BRANCH  16  19
HETATM   19  O   UNL     1      16.817  51.606  50.049  1.00  0.00    -0.356 OA
HETATM   20  C   UNL     1      15.915  51.404  48.969  1.00  0.00     0.210 C 
ENDBRANCH  16  19
ENDBRANCH  12  13
ENDBRANCH  11  12
ENDBRANCH   7  11
ENDBRANCH   1   5
BRANCH   2  21
HETATM   21  C   UNL     1      25.447  44.678  51.174  1.00  0.00     0.147 A 
HETATM   22  N   UNL     1      24.820  43.965  52.129  1.00  0.00    -0.169 NA
HETATM   23  N   UNL     1      25.801  43.694  53.016  1.00  0.00    -0.277 N 
HETATM   24  H   UNL     1      25.576  43.168  53.855  1.00  0.00     0.189 HD
HETATM   25  C   UNL     1      27.041  44.175  52.675  1.00  0.00     0.065 A 
HETATM   26  C   UNL     1      26.824  44.831  51.478  1.00  0.00     0.071 A 
BRANCH  25  27
HETATM   27  C   UNL     1      28.262  43.972  53.478  1.00  0.00     0.025 A 
HETATM   28  C   UNL     1      28.497  44.620  54.715  1.00  0.00     0.080 A 
HETATM   29  C   UNL     1      29.684  44.361  55.420  1.00  0.00     0.037 A 
HETATM   30  C   UNL     1      30.638  43.477  54.914  1.00  0.00     0.003 A 
HETATM   31  C   UNL     1      30.419  42.839  53.702  1.00  0.00     0.001 A 
HETATM   32  C   UNL     1      29.243  43.085  52.993  1.00  0.00     0.016 A 
BRANCH  28  33
HETATM   33  O   UNL     1      27.522  45.481  55.167  1.00  0.00    -0.355 OA
HETATM   34  C   UNL     1      27.816  46.874  55.148  1.00  0.00     0.210 C 
ENDBRANCH  28  33
ENDBRANCH  25  27
ENDBRANCH   2  21
TORSDOF 8
ENDMDL
MODEL 2
REMARK VINA RESULT:      -9.8      1.453      2.120
REMARK  8 active torsions:
REMARK  status: ('A' for Active; 'I' for Inactive)
REMARK    1  A    between atoms: O_2  and  C_3 
REMARK    2  A    between atoms: C_6  and  C_7 
REMARK    3  A    between atoms: C_7  and  C_8 
REMARK    4  A    between atoms: C_8  and  C_9 
REMARK    5  A    between atoms: C_11  and  N_12 
REMARK       I    between atoms: N_12  and  C_13 
REMARK    6  A    between atoms: C_13  and  C_14 
REMARK    7  A    between atoms: C_18  and  C_19 
REMARK    8  A    between atoms: C_20  and  O_21 
ROOT
HETATM    1  N   UNL     1      24.872  46.523  51.162  1.00  0.00    -0.149 N 
HETATM    2  C   UNL     1      24.597  45.250  51.597  1.00  0.00     0.290 C 
HETATM    3  O   UNL     1      23.762  44.475  51.143  1.00  0.00    -0.265 OA
HETATM    4  H   UNL     1      25.578  47.052  51.654  1.00  0.00     0.188 HD
ENDROOT
BRANCH   1   5
HETATM    5  C   UNL     1      24.264  47.133  50.107  1.00  0.00     0.747 A 
HETATM    6  N   UNL     1      24.528  48.458  49.859  1.00  0.00    -0.046 NA
HETATM    7  C   UNL     1      23.807  48.725  48.789  1.00  0.00     0.140 A 
HETATM    8  N   UNL     1      23.152  47.588  48.413  1.00  0.00    -0.248 N 
HETATM    9  N   UNL     1      23.416  46.579  49.242  1.00  0.00     0.020 NA
HETATM   10  H   UNL     1      22.523  47.437  47.634  1.00  0.00     0.191 HD
BRANCH   7  11
HETATM   11  C   UNL     1      23.689  50.000  48.031  1.00  0.00     0.085 C 
BRANCH  11  12
HETATM   12  C   UNL     1      22.993  51.087  48.859  1.00  0.00     0.046 C 
BRANCH  12  13
HETATM   13  C   UNL     1      21.491  50.945  48.860  1.00  0.00    -0.058 A 
HETATM   14  C   UNL     1      20.810  50.636  47.674  1.00  0.00     0.010 A 
HETATM   15  C   UNL     1      19.421  50.472  47.666  1.00  0.00     0.037 A 
HETATM   16  C   UNL     1      18.694  50.611  48.846  1.00  0.00     0.068 A 
HETATM   17  C   UNL     1      19.366  50.942  50.025  1.00  0.00     0.037 A 
HETATM   18  C   UNL     1      20.754  51.107  50.036  1.00  0.00     0.010 A 
BRANCH  16  19
HETATM   19  O   UNL     1      17.340  50.459  48.977  1.00  0.00    -0.356 OA
HETATM   20  C   UNL     1      16.610  51.597  49.415  1.00  0.00     0.210 C 
ENDBRANCH  16  19
ENDBRANCH  12  13
ENDBRANCH  11  12
ENDBRANCH   7  11
ENDBRANCH   1   5
BRANCH   2  21
HETATM   21  C   UNL     1      25.434  44.856  52.744  1.00  0.00     0.147 A 
HETATM   22  N   UNL     1      24.944  44.241  53.838  1.00  0.00    -0.169 NA
HETATM   23  N   UNL     1      26.030  44.079  54.622  1.00  0.00    -0.277 N 
HETATM   24  H   UNL     1      25.921  43.643  55.533  1.00  0.00     0.189 HD
HETATM   25  C   UNL     1      27.209  44.535  54.084  1.00  0.00     0.065 A 
HETATM   26  C   UNL     1      26.833  45.057  52.860  1.00  0.00     0.071 A 
BRANCH  25  27
HETATM   27  C   UNL     1      28.522  44.434  54.749  1.00  0.00     0.025 A 
HETATM   28  C   UNL     1      29.319  43.265  54.723  1.00  0.00     0.080 A 
HETATM   29  C   UNL     1      30.563  43.259  55.375  1.00  0.00     0.037 A 
HETATM   30  C   UNL     1      31.021  44.389  56.053  1.00  0.00     0.003 A 
HETATM   31  C   UNL     1      30.246  45.539  56.086  1.00  0.00     0.001 A 
HETATM   32  C   UNL     1      29.010  45.559  55.440  1.00  0.00     0.016 A 
BRANCH  28  33
HETATM   33  O   UNL     1      28.820  42.179  54.039  1.00  0.00    -0.355 OA
HETATM   34  C   UNL     1      29.320  41.942  52.728  1.00  0.00     0.210 C 
ENDBRANCH  28  33
ENDBRANCH  25  27
ENDBRANCH   2  21
TORSDOF 8
ENDMDL
MODEL 3
REMARK VINA RESULT:      -9.7      1.813     11.079
REMARK  8 active torsions:
REMARK  status: ('A' for Active; 'I' for Inactive)
REMARK    1  A    between atoms: O_2  and  C_3 
REMARK    2  A    between atoms: C_6  and  C_7 
REMARK    3  A    between atoms: C_7  and  C_8 
REMARK    4  A    between atoms: C_8  and  C_9 
REMARK    5  A    between atoms: C_11  and  N_12 
REMARK       I    between atoms: N_12  and  C_13 
REMARK    6  A    between atoms: C_13  and  C_14 
REMARK    7  A    between atoms: C_18  and  C_19 
REMARK    8  A    between atoms: C_20  and  O_21 
ROOT
HETATM    1  N   UNL     1      24.379  46.491  49.608  1.00  0.00    -0.149 N 
HETATM    2  C   UNL     1      24.378  47.854  49.444  1.00  0.00     0.290 C 
HETATM    3  O   UNL     1      25.300  48.629  49.678  1.00  0.00    -0.265 OA
HETATM    4  H   UNL     1      23.531  45.986  49.393  1.00  0.00     0.188 HD
ENDROOT
BRANCH   1   5
HETATM    5  C   UNL     1      25.443  45.759  50.037  1.00  0.00     0.747 A 
HETATM    6  N   UNL     1      25.344  45.066  51.219  1.00  0.00    -0.046 NA
HETATM    7  C   UNL     1      26.514  44.470  51.330  1.00  0.00     0.140 A 
HETATM    8  N   UNL     1      27.270  44.793  50.241  1.00  0.00    -0.248 N 
HETATM    9  N   UNL     1      26.617  45.617  49.423  1.00  0.00     0.020 NA
HETATM   10  H   UNL     1      28.212  44.504  50.004  1.00  0.00     0.191 HD
BRANCH   7  11
HETATM   11  C   UNL     1      27.006  43.560  52.401  1.00  0.00     0.085 C 
BRANCH  11  12
HETATM   12  C   UNL     1      28.535  43.456  52.396  1.00  0.00     0.046 C 
BRANCH  12  13
HETATM   13  C   UNL     1      29.149  43.854  53.716  1.00  0.00    -0.058 A 
HETATM   14  C   UNL     1      28.612  44.919  54.452  1.00  0.00     0.010 A 
HETATM   15  C   UNL     1      29.152  45.280  55.691  1.00  0.00     0.037 A 
HETATM   16  C   UNL     1      30.235  44.576  56.213  1.00  0.00     0.068 A 
HETATM   17  C   UNL     1      30.788  43.529  55.471  1.00  0.00     0.037 A 
HETATM   18  C   UNL     1      30.251  43.167  54.233  1.00  0.00     0.010 A 
BRANCH  16  19
HETATM   19  O   UNL     1      30.842  44.815  57.416  1.00  0.00    -0.356 OA
HETATM   20  C   UNL     1      30.554  46.060  58.039  1.00  0.00     0.210 C 
ENDBRANCH  16  19
ENDBRANCH  12  13
ENDBRANCH  11  12
ENDBRANCH   7  11
ENDBRANCH   1   5
BRANCH   2  21
HETATM   21  C   UNL     1      23.089  48.359  48.942  1.00  0.00     0.147 A 
HETATM   22  N   UNL     1      22.491  47.885  47.832  1.00  0.00    -0.169 NA
HETATM   23  N   UNL     1      21.365  48.622  47.739  1.00  0.00    -0.277 N 
HETATM   24  H   UNL     1      20.734  48.464  46.959  1.00  0.00     0.189 HD
HETATM   25  C   UNL     1      21.185  49.538  48.747  1.00  0.00     0.065 A 
HETATM   26  C   UNL     1      22.311  49.386  49.535  1.00  0.00     0.071 A 
BRANCH  25  27
HETATM   27  C   UNL     1      20.014  50.427  48.865  1.00  0.00     0.025 A 
HETATM   28  C   UNL     1      18.787  50.025  49.446  1.00  0.00     0.080 A 
HETATM   29  C   UNL     1      17.725  50.941  49.526  1.00  0.00     0.037 A 
HETATM   30  C   UNL     1      17.862  52.240  49.037  1.00  0.00     0.003 A 
HETATM   31  C   UNL     1      19.060  52.644  48.465  1.00  0.00     0.001 A 
HETATM   32  C   UNL     1      20.123  51.745  48.381  1.00  0.00     0.016 A 
BRANCH  28  33
HETATM   33  O   UNL     1      18.707  48.733  49.912  1.00  0.00    -0.355 OA
HETATM   34  C   UNL     1      18.567  48.548  51.317  1.00  0.00     0.210 C 
ENDBRANCH  28  33
ENDBRANCH  25  27
ENDBRANCH   2  21
TORSDOF 8
ENDMDL
MODEL 4
REMARK VINA RESULT:      -9.7      1.311      2.023
REMARK  8 active torsions:
REMARK  status: ('A' for Active; 'I' for Inactive)
REMARK    1  A    between atoms: O_2  and  C_3 
REMARK    2  A    between atoms: C_6  and  C_7 
REMARK    3  A    between atoms: C_7  and  C_8 
REMARK    4  A    between atoms: C_8  and  C_9 
REMARK    5  A    between atoms: C_11  and  N_12 
REMARK       I    between atoms: N_12  and  C_13 
REMARK    6  A    between atoms: C_13  and  C_14 
REMARK    7  A    between atoms: C_18  and  C_19 
REMARK    8  A    between atoms: C_20  and  O_21 
ROOT
HETATM    1  N   UNL     1      25.043  47.302  50.613  1.00  0.00    -0.149 N 
HETATM    2  C   UNL     1      24.657  45.986  50.681  1.00  0.00     0.290 C 
HETATM    3  O   UNL     1      23.863  45.407  49.947  1.00  0.00    -0.265 OA
HETATM    4  H   UNL     1      25.694  47.642  51.307  1.00  0.00     0.188 HD
ENDROOT
BRANCH   1   5
HETATM    5  C   UNL     1      24.617  48.190  49.673  1.00  0.00     0.747 A 
HETATM    6  N   UNL     1      23.270  48.331  49.451  1.00  0.00    -0.046 NA
HETATM    7  C   UNL     1      23.203  49.254  48.513  1.00  0.00     0.140 A 
HETATM    8  N   UNL     1      24.472  49.652  48.206  1.00  0.00    -0.248 N 
HETATM    9  N   UNL     1      25.377  48.980  48.916  1.00  0.00     0.020 NA
HETATM   10  H   UNL     1      24.784  50.346  47.537  1.00  0.00     0.191 HD
BRANCH   7  11
HETATM   11  C   UNL     1      22.003  49.849  47.864  1.00  0.00     0.085 C 
BRANCH  11  12
HETATM   12  C   UNL     1      21.695  51.245  48.416  1.00  0.00     0.046 C 
BRANCH  12  13
HETATM   13  C   UNL     1      20.263  51.387  48.873  1.00  0.00    -0.058 A 
HETATM   14  C   UNL     1      19.731  50.495  49.814  1.00  0.00     0.010 A 
HETATM   15  C   UNL     1      18.415  50.632  50.268  1.00  0.00     0.037 A 
HETATM   16  C   UNL     1      17.615  51.668  49.790  1.00  0.00     0.068 A 
HETATM   17  C   UNL     1      18.135  52.544  48.834  1.00  0.00     0.037 A 
HETATM   18  C   UNL     1      19.449  52.409  48.378  1.00  0.00     0.010 A 
BRANCH  16  19
HETATM   19  O   UNL     1      16.324  51.922  50.165  1.00  0.00    -0.356 OA
HETATM   20  C   UNL     1      15.925  53.287  50.193  1.00  0.00     0.210 C 
ENDBRANCH  16  19
ENDBRANCH  12  13
ENDBRANCH  11  12
ENDBRANCH   7  11
ENDBRANCH   1   5
BRANCH   2  21
HETATM   21  C   UNL     1      25.306  45.267  51.792  1.00  0.00     0.147 A 
HETATM   22  N   UNL     1      24.649  44.415  52.603  1.00  0.00    -0.169 NA
HETATM   23  N   UNL     1      25.602  44.002  53.465  1.00  0.00    -0.277 N 
HETATM   24  H   UNL     1      25.351  43.351  54.203  1.00  0.00     0.189 HD
HETATM   25  C   UNL     1      26.853  44.523  53.242  1.00  0.00     0.065 A 
HETATM   26  C   UNL     1      26.672  45.361  52.158  1.00  0.00     0.071 A 
BRANCH  25  27
HETATM   27  C   UNL     1      28.048  44.188  54.039  1.00  0.00     0.025 A 
HETATM   28  C   UNL     1      28.625  42.895  54.072  1.00  0.00     0.080 A 
HETATM   29  C   UNL     1      29.771  42.666  54.851  1.00  0.00     0.037 A 
HETATM   30  C   UNL     1      30.346  43.695  55.597  1.00  0.00     0.003 A 
HETATM   31  C   UNL     1      29.788  44.966  55.573  1.00  0.00     0.001 A 
HETATM   32  C   UNL     1      28.651  45.207  54.801  1.00  0.00     0.016 A 
BRANCH  28  33
HETATM   33  O   UNL     1      28.017  41.918  53.317  1.00  0.00    -0.355 OA
HETATM   34  C   UNL     1      28.860  41.009  52.617  1.00  0.00     0.210 C 
ENDBRANCH  28  33
ENDBRANCH  25  27
ENDBRANCH   2  21
TORSDOF 8
ENDMDL
MODEL 5
REMARK VINA RESULT:      -9.1      1.968     11.461
REMARK  8 active torsions:
REMARK  status: ('A' for Active; 'I' for Inactive)
REMARK    1  A    between atoms: O_2  and  C_3 
REMARK    2  A    between atoms: C_6  and  C_7 
REMARK    3  A    between atoms: C_7  and  C_8 
REMARK    4  A    between atoms: C_8  and  C_9 
REMARK    5  A    between atoms: C_11  and  N_12 
REMARK       I    between atoms: N_12  and  C_13 
REMARK    6  A    between atoms: C_13  and  C_14 
REMARK    7  A    between atoms: C_18  and  C_19 
REMARK    8  A    between atoms: C_20  and  O_21 
ROOT
HETATM    1  N   UNL     1      24.452  47.513  49.593  1.00  0.00    -0.149 N 
HETATM    2  C   UNL     1      23.298  47.234  48.904  1.00  0.00     0.290 C 
HETATM    3  O   UNL     1      22.875  46.129  48.581  1.00  0.00    -0.265 OA
HETATM    4  H   UNL     1      24.680  48.481  49.767  1.00  0.00     0.188 HD
ENDROOT
BRANCH   1   5
HETATM    5  C   UNL     1      25.320  46.577  50.068  1.00  0.00     0.747 A 
HETATM    6  N   UNL     1      25.014  45.912  51.230  1.00  0.00    -0.046 NA
HETATM    7  C   UNL     1      26.030  45.090  51.397  1.00  0.00     0.140 A 
HETATM    8  N   UNL     1      26.898  45.259  50.357  1.00  0.00    -0.248 N 
HETATM    9  N   UNL     1      26.475  46.204  49.518  1.00  0.00     0.020 NA
HETATM   10  H   UNL     1      27.774  44.786  50.167  1.00  0.00     0.191 HD
BRANCH   7  11
HETATM   11  C   UNL     1      26.265  44.093  52.477  1.00  0.00     0.085 C 
BRANCH  11  12
HETATM   12  C   UNL     1      27.625  43.403  52.323  1.00  0.00     0.046 C 
BRANCH  12  13
HETATM   13  C   UNL     1      28.550  43.674  53.484  1.00  0.00    -0.058 A 
HETATM   14  C   UNL     1      29.660  42.849  53.711  1.00  0.00     0.010 A 
HETATM   15  C   UNL     1      30.542  43.107  54.766  1.00  0.00     0.037 A 
HETATM   16  C   UNL     1      30.326  44.197  55.606  1.00  0.00     0.068 A 
HETATM   17  C   UNL     1      29.208  45.007  55.398  1.00  0.00     0.037 A 
HETATM   18  C   UNL     1      28.325  44.752  54.345  1.00  0.00     0.010 A 
BRANCH  16  19
HETATM   19  O   UNL     1      31.120  44.567  56.658  1.00  0.00    -0.356 OA
HETATM   20  C   UNL     1      31.832  43.528  57.316  1.00  0.00     0.210 C 
ENDBRANCH  16  19
ENDBRANCH  12  13
ENDBRANCH  11  12
ENDBRANCH   7  11
ENDBRANCH   1   5
BRANCH   2  21
HETATM   21  C   UNL     1      22.552  48.452  48.542  1.00  0.00     0.147 A 
HETATM   22  N   UNL     1      23.030  49.388  47.700  1.00  0.00    -0.169 NA
HETATM   23  N   UNL     1      22.048  50.312  47.662  1.00  0.00    -0.277 N 
HETATM   24  H   UNL     1      22.174  51.146  47.096  1.00  0.00     0.189 HD
HETATM   25  C   UNL     1      20.941  50.014  48.420  1.00  0.00     0.065 A 
HETATM   26  C   UNL     1      21.261  48.806  49.011  1.00  0.00     0.071 A 
BRANCH  25  27
HETATM   27  C   UNL     1      19.738  50.863  48.505  1.00  0.00     0.025 A 
HETATM   28  C   UNL     1      18.901  51.141  47.396  1.00  0.00     0.080 A 
HETATM   29  C   UNL     1      17.768  51.952  47.568  1.00  0.00     0.037 A 
HETATM   30  C   UNL     1      17.457  52.492  48.817  1.00  0.00     0.003 A 
HETATM   31  C   UNL     1      18.271  52.227  49.909  1.00  0.00     0.001 A 
HETATM   32  C   UNL     1      19.399  51.421  49.752  1.00  0.00     0.016 A 
BRANCH  28  33
HETATM   33  O   UNL     1      19.254  50.582  46.189  1.00  0.00    -0.355 OA
HETATM   34  C   UNL     1      18.303  49.734  45.554  1.00  0.00     0.210 C 
ENDBRANCH  28  33
ENDBRANCH  25  27
ENDBRANCH   2  21
TORSDOF 8
ENDMDL
MODEL 6
REMARK VINA RESULT:      -8.9      1.810      2.718
REMARK  8 active torsions:
REMARK  status: ('A' for Active; 'I' for Inactive)
REMARK    1  A    between atoms: O_2  and  C_3 
REMARK    2  A    between atoms: C_6  and  C_7 
REMARK    3  A    between atoms: C_7  and  C_8 
REMARK    4  A    between atoms: C_8  and  C_9 
REMARK    5  A    between atoms: C_11  and  N_12 
REMARK       I    between atoms: N_12  and  C_13 
REMARK    6  A    between atoms: C_13  and  C_14 
REMARK    7  A    between atoms: C_18  and  C_19 
REMARK    8  A    between atoms: C_20  and  O_21 
ROOT
HETATM    1  N   UNL     1      24.038  47.931  50.168  1.00  0.00    -0.149 N 
HETATM    2  C   UNL     1      24.087  46.571  49.987  1.00  0.00     0.290 C 
HETATM    3  O   UNL     1      23.639  45.932  49.041  1.00  0.00    -0.265 OA
HETATM    4  H   UNL     1      24.433  48.312  51.016  1.00  0.00     0.188 HD
ENDROOT
BRANCH   1   5
HETATM    5  C   UNL     1      23.496  48.814  49.285  1.00  0.00     0.747 A 
HETATM    6  N   UNL     1      22.352  49.490  49.633  1.00  0.00    -0.046 NA
HETATM    7  C   UNL     1      22.110  50.252  48.586  1.00  0.00     0.140 A 
HETATM    8  N   UNL     1      23.088  50.040  47.659  1.00  0.00    -0.248 N 
HETATM    9  N   UNL     1      23.962  49.124  48.076  1.00  0.00     0.020 NA
HETATM   10  H   UNL     1      23.213  50.464  46.747  1.00  0.00     0.191 HD
BRANCH   7  11
HETATM   11  C   UNL     1      21.008  51.230  48.372  1.00  0.00     0.085 C 
BRANCH  11  12
HETATM   12  C   UNL     1      19.993  51.199  49.521  1.00  0.00     0.046 C 
BRANCH  12  13
HETATM   13  C   UNL     1      18.698  50.528  49.134  1.00  0.00    -0.058 A 
HETATM   14  C   UNL     1      17.586  51.298  48.767  1.00  0.00     0.010 A 
HETATM   15  C   UNL     1      16.388  50.689  48.377  1.00  0.00     0.037 A 
HETATM   16  C   UNL     1      16.289  49.300  48.346  1.00  0.00     0.068 A 
HETATM   17  C   UNL     1      17.387  48.529  48.734  1.00  0.00     0.037 A 
HETATM   18  C   UNL     1      18.585  49.135  49.125  1.00  0.00     0.010 A 
BRANCH  16  19
HETATM   19  O   UNL     1      15.186  48.583  47.969  1.00  0.00    -0.356 OA
HETATM   20  C   UNL     1      14.822  48.649  46.596  1.00  0.00     0.210 C 
ENDBRANCH  16  19
ENDBRANCH  12  13
ENDBRANCH  11  12
ENDBRANCH   7  11
ENDBRANCH   1   5
BRANCH   2  21
HETATM   21  C   UNL     1      24.757  45.880  51.103  1.00  0.00     0.147 A 
HETATM   22  N   UNL     1      24.287  44.746  51.658  1.00  0.00    -0.169 NA
HETATM   23  N   UNL     1      25.184  44.473  52.629  1.00  0.00    -0.277 N 
HETATM   24  H   UNL     1      25.043  43.657  53.217  1.00  0.00     0.189 HD
HETATM   25  C   UNL     1      26.229  45.360  52.719  1.00  0.00     0.065 A 
HETATM   26  C   UNL     1      25.957  46.292  51.736  1.00  0.00     0.071 A 
BRANCH  25  27
HETATM   27  C   UNL     1      27.339  45.243  53.684  1.00  0.00     0.025 A 
HETATM   28  C   UNL     1      28.205  44.124  53.742  1.00  0.00     0.080 A 
HETATM   29  C   UNL     1      29.244  44.099  54.687  1.00  0.00     0.037 A 
HETATM   30  C   UNL     1      29.431  45.161  55.573  1.00  0.00     0.003 A 
HETATM   31  C   UNL     1      28.587  46.261  55.525  1.00  0.00     0.001 A 
HETATM   32  C   UNL     1      27.553  46.299  54.590  1.00  0.00     0.016 A 
BRANCH  28  33
HETATM   33  O   UNL     1      27.975  43.106  52.845  1.00  0.00    -0.355 OA
HETATM   34  C   UNL     1      27.898  41.781  53.360  1.00  0.00     0.210 C 
ENDBRANCH  28  33
ENDBRANCH  25  27
ENDBRANCH   2  21
TORSDOF 8
ENDMDL
MODEL 7
REMARK VINA RESULT:      -8.5      7.569     10.518
REMARK  8 active torsions:
REMARK  status: ('A' for Active; 'I' for Inactive)
REMARK    1  A    between atoms: O_2  and  C_3 
REMARK    2  A    between atoms: C_6  and  C_7 
REMARK    3  A    between atoms: C_7  and  C_8 
REMARK    4  A    between atoms: C_8  and  C_9 
REMARK    5  A    between atoms: C_11  and  N_12 
REMARK       I    between atoms: N_12  and  C_13 
REMARK    6  A    between atoms: C_13  and  C_14 
REMARK    7  A    between atoms: C_18  and  C_19 
REMARK    8  A    between atoms: C_20  and  O_21 
ROOT
HETATM    1  N   UNL     1      28.756  40.328  50.573  1.00  0.00    -0.149 N 
HETATM    2  C   UNL     1      27.697  40.953  51.184  1.00  0.00     0.290 C 
HETATM    3  O   UNL     1      26.509  40.660  51.091  1.00  0.00    -0.265 OA
HETATM    4  H   UNL     1      29.681  40.700  50.729  1.00  0.00     0.188 HD
ENDROOT
BRANCH   1   5
HETATM    5  C   UNL     1      28.655  39.233  49.770  1.00  0.00     0.747 A 
HETATM    6  N   UNL     1      28.043  39.357  48.546  1.00  0.00    -0.046 NA
HETATM    7  C   UNL     1      28.124  38.146  48.033  1.00  0.00     0.140 A 
HETATM    8  N   UNL     1      28.776  37.341  48.922  1.00  0.00    -0.248 N 
HETATM    9  N   UNL     1      29.103  38.006  50.030  1.00  0.00     0.020 NA
HETATM   10  H   UNL     1      29.014  36.359  48.846  1.00  0.00     0.191 HD
BRANCH   7  11
HETATM   11  C   UNL     1      27.649  37.653  46.712  1.00  0.00     0.085 C 
BRANCH  11  12
HETATM   12  C   UNL     1      28.801  37.528  45.707  1.00  0.00     0.046 C 
BRANCH  12  13
HETATM   13  C   UNL     1      28.786  38.622  44.667  1.00  0.00    -0.058 A 
HETATM   14  C   UNL     1      28.173  39.851  44.944  1.00  0.00     0.010 A 
HETATM   15  C   UNL     1      28.177  40.884  44.001  1.00  0.00     0.037 A 
HETATM   16  C   UNL     1      28.800  40.702  42.768  1.00  0.00     0.068 A 
HETATM   17  C   UNL     1      29.392  39.470  42.480  1.00  0.00     0.037 A 
HETATM   18  C   UNL     1      29.388  38.436  43.420  1.00  0.00     0.010 A 
BRANCH  16  19
HETATM   19  O   UNL     1      28.891  41.634  41.770  1.00  0.00    -0.356 OA
HETATM   20  C   UNL     1      28.427  41.239  40.486  1.00  0.00     0.210 C 
ENDBRANCH  16  19
ENDBRANCH  12  13
ENDBRANCH  11  12
ENDBRANCH   7  11
ENDBRANCH   1   5
BRANCH   2  21
HETATM   21  C   UNL     1      28.120  42.095  52.012  1.00  0.00     0.147 A 
HETATM   22  N   UNL     1      27.875  43.378  51.682  1.00  0.00    -0.169 NA
HETATM   23  N   UNL     1      28.434  44.077  52.691  1.00  0.00    -0.277 N 
HETATM   24  H   UNL     1      28.398  45.092  52.669  1.00  0.00     0.189 HD
HETATM   25  C   UNL     1      29.011  43.314  53.677  1.00  0.00     0.065 A 
HETATM   26  C   UNL     1      28.824  42.015  53.241  1.00  0.00     0.071 A 
BRANCH  25  27
HETATM   27  C   UNL     1      29.653  43.862  54.886  1.00  0.00     0.025 A 
HETATM   28  C   UNL     1      29.310  45.116  55.449  1.00  0.00     0.080 A 
HETATM   29  C   UNL     1      29.965  45.558  56.610  1.00  0.00     0.037 A 
HETATM   30  C   UNL     1      30.954  44.780  57.214  1.00  0.00     0.003 A 
HETATM   31  C   UNL     1      31.298  43.551  56.670  1.00  0.00     0.001 A 
HETATM   32  C   UNL     1      30.653  43.099  55.518  1.00  0.00     0.016 A 
BRANCH  28  33
HETATM   33  O   UNL     1      28.328  45.841  54.813  1.00  0.00    -0.355 OA
HETATM   34  C   UNL     1      27.741  46.922  55.530  1.00  0.00     0.210 C 
ENDBRANCH  28  33
ENDBRANCH  25  27
ENDBRANCH   2  21
TORSDOF 8
ENDMDL
MODEL 8
REMARK VINA RESULT:      -8.4      2.357     11.271
REMARK  8 active torsions:
REMARK  status: ('A' for Active; 'I' for Inactive)
REMARK    1  A    between atoms: O_2  and  C_3 
REMARK    2  A    between atoms: C_6  and  C_7 
REMARK    3  A    between atoms: C_7  and  C_8 
REMARK    4  A    between atoms: C_8  and  C_9 
REMARK    5  A    between atoms: C_11  and  N_12 
REMARK       I    between atoms: N_12  and  C_13 
REMARK    6  A    between atoms: C_13  and  C_14 
REMARK    7  A    between atoms: C_18  and  C_19 
REMARK    8  A    between atoms: C_20  and  O_21 
ROOT
HETATM    1  N   UNL     1      22.612  45.193  49.695  1.00  0.00    -0.149 N 
HETATM    2  C   UNL     1      21.706  44.809  48.738  1.00  0.00     0.290 C 
HETATM    3  O   UNL     1      21.534  43.681  48.289  1.00  0.00    -0.265 OA
HETATM    4  H   UNL     1      22.652  46.170  49.948  1.00  0.00     0.188 HD
ENDROOT
BRANCH   1   5
HETATM    5  C   UNL     1      23.468  44.351  50.339  1.00  0.00     0.747 A 
HETATM    6  N   UNL     1      24.668  44.839  50.794  1.00  0.00    -0.046 NA
HETATM    7  C   UNL     1      25.233  43.795  51.364  1.00  0.00     0.140 A 
HETATM    8  N   UNL     1      24.385  42.731  51.259  1.00  0.00    -0.248 N 
HETATM    9  N   UNL     1      23.273  43.059  50.601  1.00  0.00     0.020 NA
HETATM   10  H   UNL     1      24.499  41.782  51.593  1.00  0.00     0.191 HD
BRANCH   7  11
HETATM   11  C   UNL     1      26.547  43.700  52.057  1.00  0.00     0.085 C 
BRANCH  11  12
HETATM   12  C   UNL     1      26.411  43.944  53.564  1.00  0.00     0.046 C 
BRANCH  12  13
HETATM   13  C   UNL     1      27.745  43.999  54.267  1.00  0.00    -0.058 A 
HETATM   14  C   UNL     1      28.630  42.915  54.189  1.00  0.00     0.010 A 
HETATM   15  C   UNL     1      29.882  42.964  54.811  1.00  0.00     0.037 A 
HETATM   16  C   UNL     1      30.268  44.102  55.515  1.00  0.00     0.068 A 
HETATM   17  C   UNL     1      29.380  45.176  55.614  1.00  0.00     0.037 A 
HETATM   18  C   UNL     1      28.128  45.129  54.995  1.00  0.00     0.010 A 
BRANCH  16  19
HETATM   19  O   UNL     1      31.467  44.284  56.150  1.00  0.00    -0.356 OA
HETATM   20  C   UNL     1      31.811  43.331  57.147  1.00  0.00     0.210 C 
ENDBRANCH  16  19
ENDBRANCH  12  13
ENDBRANCH  11  12
ENDBRANCH   7  11
ENDBRANCH   1   5
BRANCH   2  21
HETATM   21  C   UNL     1      20.900  45.939  48.242  1.00  0.00     0.147 A 
HETATM   22  N   UNL     1      19.938  45.807  47.310  1.00  0.00    -0.169 NA
HETATM   23  N   UNL     1      19.476  47.065  47.151  1.00  0.00    -0.277 N 
HETATM   24  H   UNL     1      18.738  47.239  46.474  1.00  0.00     0.189 HD
HETATM   25  C   UNL     1      20.074  48.008  47.950  1.00  0.00     0.065 A 
HETATM   26  C   UNL     1      21.016  47.289  48.662  1.00  0.00     0.071 A 
BRANCH  25  27
HETATM   27  C   UNL     1      19.708  49.437  47.967  1.00  0.00     0.025 A 
HETATM   28  C   UNL     1      18.699  49.992  47.143  1.00  0.00     0.080 A 
HETATM   29  C   UNL     1      18.408  51.364  47.231  1.00  0.00     0.037 A 
HETATM   30  C   UNL     1      19.105  52.188  48.116  1.00  0.00     0.003 A 
HETATM   31  C   UNL     1      20.097  51.654  48.926  1.00  0.00     0.001 A 
HETATM   32  C   UNL     1      20.393  50.293  48.850  1.00  0.00     0.016 A 
BRANCH  28  33
HETATM   33  O   UNL     1      18.043  49.134  46.290  1.00  0.00    -0.355 OA
HETATM   34  C   UNL     1      18.167  49.376  44.892  1.00  0.00     0.210 C 
ENDBRANCH  28  33
ENDBRANCH  25  27
ENDBRANCH   2  21
TORSDOF 8
ENDMDL
MODEL 9
REMARK VINA RESULT:      -8.3      2.106      2.386
REMARK  8 active torsions:
REMARK  status: ('A' for Active; 'I' for Inactive)
REMARK    1  A    between atoms: O_2  and  C_3 
REMARK    2  A    between atoms: C_6  and  C_7 
REMARK    3  A    between atoms: C_7  and  C_8 
REMARK    4  A    between atoms: C_8  and  C_9 
REMARK    5  A    between atoms: C_11  and  N_12 
REMARK       I    between atoms: N_12  and  C_13 
REMARK    6  A    between atoms: C_13  and  C_14 
REMARK    7  A    between atoms: C_18  and  C_19 
REMARK    8  A    between atoms: C_20  and  O_21 
ROOT
HETATM    1  N   UNL     1      25.337  45.850  50.597  1.00  0.00    -0.149 N 
HETATM    2  C   UNL     1      25.262  44.835  51.518  1.00  0.00     0.290 C 
HETATM    3  O   UNL     1      24.255  44.236  51.880  1.00  0.00    -0.265 OA
HETATM    4  H   UNL     1      26.241  46.264  50.419  1.00  0.00     0.188 HD
ENDROOT
BRANCH   1   5
HETATM    5  C   UNL     1      24.280  46.345  49.896  1.00  0.00     0.747 A 
HETATM    6  N   UNL     1      24.194  47.700  49.685  1.00  0.00    -0.046 NA
HETATM    7  C   UNL     1      23.088  47.836  48.982  1.00  0.00     0.140 A 
HETATM    8  N   UNL     1      22.550  46.599  48.775  1.00  0.00    -0.248 N 
HETATM    9  N   UNL     1      23.280  45.649  49.358  1.00  0.00     0.020 NA
HETATM   10  H   UNL     1      21.711  46.339  48.271  1.00  0.00     0.191 HD
BRANCH   7  11
HETATM   11  C   UNL     1      22.471  49.075  48.435  1.00  0.00     0.085 C 
BRANCH  11  12
HETATM   12  C   UNL     1      21.355  49.601  49.345  1.00  0.00     0.046 C 
BRANCH  12  13
HETATM   13  C   UNL     1      20.004  49.023  49.002  1.00  0.00    -0.058 A 
HETATM   14  C   UNL     1      19.148  48.576  50.018  1.00  0.00     0.010 A 
HETATM   15  C   UNL     1      17.881  48.066  49.717  1.00  0.00     0.037 A 
HETATM   16  C   UNL     1      17.451  48.000  48.394  1.00  0.00     0.068 A 
HETATM   17  C   UNL     1      18.310  48.422  47.377  1.00  0.00     0.037 A 
HETATM   18  C   UNL     1      19.577  48.932  47.675  1.00  0.00     0.010 A 
BRANCH  16  19
HETATM   19  O   UNL     1      16.234  47.541  47.968  1.00  0.00    -0.356 OA
HETATM   20  C   UNL     1      15.755  48.058  46.733  1.00  0.00     0.210 C 
ENDBRANCH  16  19
ENDBRANCH  12  13
ENDBRANCH  11  12
ENDBRANCH   7  11
ENDBRANCH   1   5
BRANCH   2  21
HETATM   21  C   UNL     1      26.576  44.500  52.094  1.00  0.00     0.147 A 
HETATM   22  N   UNL     1      27.547  43.872  51.403  1.00  0.00    -0.169 NA
HETATM   23  N   UNL     1      28.550  43.760  52.298  1.00  0.00    -0.277 N 
HETATM   24  H   UNL     1      29.411  43.297  52.021  1.00  0.00     0.189 HD
HETATM   25  C   UNL     1      28.291  44.305  53.532  1.00  0.00     0.065 A 
HETATM   26  C   UNL     1      26.999  44.782  53.418  1.00  0.00     0.071 A 
BRANCH  25  27
HETATM   27  C   UNL     1      29.252  44.324  54.652  1.00  0.00     0.025 A 
HETATM   28  C   UNL     1      29.488  45.466  55.455  1.00  0.00     0.080 A 
HETATM   29  C   UNL     1      30.414  45.393  56.509  1.00  0.00     0.037 A 
HETATM   30  C   UNL     1      31.108  44.212  56.771  1.00  0.00     0.003 A 
HETATM   31  C   UNL     1      30.885  43.088  55.989  1.00  0.00     0.001 A 
HETATM   32  C   UNL     1      29.967  43.146  54.941  1.00  0.00     0.016 A 
BRANCH  28  33
HETATM   33  O   UNL     1      28.776  46.604  55.153  1.00  0.00    -0.355 OA
HETATM   34  C   UNL     1      27.824  47.058  56.109  1.00  0.00     0.210 C 
ENDBRANCH  28  33
ENDBRANCH  25  27
ENDBRANCH   2  21
TORSDOF 8
ENDMDL
MODEL 10
REMARK VINA RESULT:      -8.2      1.781      2.683
REMARK  8 active torsions:
REMARK  status: ('A' for Active; 'I' for Inactive)
REMARK    1  A    between atoms: O_2  and  C_3 
REMARK    2  A    between atoms: C_6  and  C_7 
REMARK    3  A    between atoms: C_7  and  C_8 
REMARK    4  A    between atoms: C_8  and  C_9 
REMARK    5  A    between atoms: C_11  and  N_12 
REMARK       I    between atoms: N_12  and  C_13 
REMARK    6  A    between atoms: C_13  and  C_14 
REMARK    7  A    between atoms: C_18  and  C_19 
REMARK    8  A    between atoms: C_20  and  O_21 
ROOT
HETATM    1  N   UNL     1      22.943  46.143  49.449  1.00  0.00    -0.149 N 
HETATM    2  C   UNL     1      23.171  44.790  49.459  1.00  0.00     0.290 C 
HETATM    3  O   UNL     1      22.740  43.959  48.667  1.00  0.00    -0.265 OA
HETATM    4  H   UNL     1      23.352  46.699  50.187  1.00  0.00     0.188 HD
ENDROOT
BRANCH   1   5
HETATM    5  C   UNL     1      22.206  46.801  48.512  1.00  0.00     0.747 A 
HETATM    6  N   UNL     1      21.447  47.879  48.897  1.00  0.00    -0.046 NA
HETATM    7  C   UNL     1      20.885  48.281  47.775  1.00  0.00     0.140 A 
HETATM    8  N   UNL     1      21.312  47.472  46.762  1.00  0.00    -0.248 N 
HETATM    9  N   UNL     1      22.133  46.524  47.211  1.00  0.00     0.020 NA
HETATM   10  H   UNL     1      21.084  47.503  45.776  1.00  0.00     0.191 HD
BRANCH   7  11
HETATM   11  C   UNL     1      19.960  49.425  47.545  1.00  0.00     0.085 C 
BRANCH  11  12
HETATM   12  C   UNL     1      18.524  49.082  47.958  1.00  0.00     0.046 C 
BRANCH  12  13
HETATM   13  C   UNL     1      17.807  50.249  48.591  1.00  0.00    -0.058 A 
HETATM   14  C   UNL     1      18.524  51.205  49.324  1.00  0.00     0.010 A 
HETATM   15  C   UNL     1      17.877  52.308  49.891  1.00  0.00     0.037 A 
HETATM   16  C   UNL     1      16.503  52.472  49.729  1.00  0.00     0.068 A 
HETATM   17  C   UNL     1      15.782  51.509  49.019  1.00  0.00     0.037 A 
HETATM   18  C   UNL     1      16.425  50.405  48.452  1.00  0.00     0.010 A 
BRANCH  16  19
HETATM   19  O   UNL     1      15.756  53.510  50.215  1.00  0.00    -0.356 OA
HETATM   20  C   UNL     1      14.400  53.226  50.533  1.00  0.00     0.210 C 
ENDBRANCH  16  19
ENDBRANCH  12  13
ENDBRANCH  11  12
ENDBRANCH   7  11
ENDBRANCH   1   5
BRANCH   2  21
HETATM   21  C   UNL     1      24.027  44.372  50.584  1.00  0.00     0.147 A 
HETATM   22  N   UNL     1      23.955  43.154  51.154  1.00  0.00    -0.169 NA
HETATM   23  N   UNL     1      24.888  43.205  52.128  1.00  0.00    -0.277 N 
HETATM   24  H   UNL     1      25.022  42.395  52.726  1.00  0.00     0.189 HD
HETATM   25  C   UNL     1      25.582  44.387  52.206  1.00  0.00     0.065 A 
HETATM   26  C   UNL     1      25.022  45.165  51.210  1.00  0.00     0.071 A 
BRANCH  25  27
HETATM   27  C   UNL     1      26.665  44.655  53.171  1.00  0.00     0.025 A 
HETATM   28  C   UNL     1      27.657  43.704  53.511  1.00  0.00     0.080 A 
HETATM   29  C   UNL     1      28.659  44.045  54.434  1.00  0.00     0.037 A 
HETATM   30  C   UNL     1      28.687  45.310  55.024  1.00  0.00     0.003 A 
HETATM   31  C   UNL     1      27.719  46.249  54.699  1.00  0.00     0.001 A 
HETATM   32  C   UNL     1      26.720  45.922  53.782  1.00  0.00     0.016 A 
BRANCH  28  33
HETATM   33  O   UNL     1      27.582  42.473  52.899  1.00  0.00    -0.355 OA
HETATM   34  C   UNL     1      28.454  41.451  53.370  1.00  0.00     0.210 C 
ENDBRANCH  28  33
ENDBRANCH  25  27
ENDBRANCH   2  21
TORSDOF 8
ENDMDL
