MODEL 1
REMARK VINA RESULT:     -10.9      0.000      0.000
REMARK  3 active torsions:
REMARK  status: ('A' for Active; 'I' for Inactive)
REMARK    1  A    between atoms: C_6  and  C_7 
REMARK       I    between atoms: C_7  and  N_8 
REMARK    2  A    between atoms: N_8  and  C_9 
REMARK    3  A    between atoms: C_16  and  C_17 
REMARK       I    between atoms: C_17  and  N_18 
ROOT
HETATM    1  C   UNL     1      28.730  43.429  52.797  1.00  0.00     0.257 C 
HETATM    2  N   UNL     1      27.556  42.765  52.492  1.00  0.00    -0.323 N 
HETATM    3  O   UNL     1      29.813  43.298  52.241  1.00  0.00    -0.267 OA
HETATM    4  H   UNL     1      26.722  43.035  52.997  1.00  0.00     0.169 HD
ENDROOT
BRANCH   2   5
HETATM    5  C   UNL     1      27.388  41.743  51.535  1.00  0.00     0.036 A 
HETATM    6  C   UNL     1      28.327  40.724  51.328  1.00  0.00     0.046 A 
HETATM    7  C   UNL     1      28.049  39.704  50.392  1.00  0.00     0.030 A 
HETATM    8  C   UNL     1      26.867  39.765  49.663  1.00  0.00     0.063 A 
HETATM    9  C   UNL     1      28.683  38.498  49.964  1.00  0.00     0.156 A 
HETATM   10  N   UNL     1      26.895  38.678  48.836  1.00  0.00    -0.277 N 
HETATM   11  C   UNL     1      25.917  40.774  49.834  1.00  0.00     0.034 A 
HETATM   12  H   UNL     1      26.199  38.413  48.148  1.00  0.00     0.189 HD
HETATM   13  N   UNL     1      27.963  37.881  48.999  1.00  0.00    -0.168 NA
HETATM   14  C   UNL     1      26.193  41.747  50.804  1.00  0.00     0.032 A 
BRANCH   9  15
HETATM   15  C   UNL     1      29.930  37.910  50.475  1.00  0.00     0.270 C 
HETATM   16  N   UNL     1      29.794  37.270  51.676  1.00  0.00    -0.365 N 
HETATM   17  H   UNL     1      28.887  37.277  52.127  1.00  0.00     0.159 HD
HETATM   18  H   UNL     1      30.607  36.886  52.131  1.00  0.00     0.159 HD
HETATM   19  O   UNL     1      31.020  37.986  49.917  1.00  0.00    -0.266 OA
ENDBRANCH   9  15
ENDBRANCH   2   5
BRANCH   1  20
HETATM   20  C   UNL     1      28.651  44.358  53.955  1.00  0.00     0.046 A 
HETATM   21  C   UNL     1      29.506  44.300  55.084  1.00  0.00     0.009 A 
HETATM   22  C   UNL     1      29.360  45.347  56.021  1.00  0.00     0.071 A 
HETATM   23  C   UNL     1      30.460  43.281  55.348  1.00  0.00     0.018 A 
HETATM   24  N   UNL     1      28.435  46.313  55.903  1.00  0.00    -0.253 NA
HETATM   25  C   UNL     1      30.197  45.393  57.123  1.00  0.00     0.074 A 
HETATM   26  C   UNL     1      27.582  46.293  54.855  1.00  0.00     0.032 A 
HETATM   27  C   UNL     1      26.527  47.357  54.802  1.00  0.00     0.070 C 
HETATM   28  C   UNL     1      27.665  45.344  53.858  1.00  0.00     0.044 A 
HETATM   29  C   UNL     1      31.156  44.412  57.338  1.00  0.00     0.118 A 
HETATM   30  F   UNL     1      31.953  44.489  58.410  1.00  0.00    -0.206 F 
HETATM   31  C   UNL     1      31.288  43.346  56.466  1.00  0.00     0.043 A 
ENDBRANCH   1  20
TORSDOF 3
ENDMDL
MODEL 2
REMARK VINA RESULT:     -10.1      1.913      3.121
REMARK  3 active torsions:
REMARK  status: ('A' for Active; 'I' for Inactive)
REMARK    1  A    between atoms: C_6  and  C_7 
REMARK       I    between atoms: C_7  and  N_8 
REMARK    2  A    between atoms: N_8  and  C_9 
REMARK    3  A    between atoms: C_16  and  C_17 
REMARK       I    between atoms: C_17  and  N_18 
ROOT
HETATM    1  C   UNL     1      28.230  42.600  53.519  1.00  0.00     0.257 C 
HETATM    2  N   UNL     1      28.495  42.709  52.167  1.00  0.00    -0.323 N 
HETATM    3  O   UNL     1      27.636  41.687  54.080  1.00  0.00    -0.267 OA
HETATM    4  H   UNL     1      29.062  43.491  51.864  1.00  0.00     0.169 HD
ENDROOT
BRANCH   2   5
HETATM    5  C   UNL     1      28.061  41.836  51.148  1.00  0.00     0.036 A 
HETATM    6  C   UNL     1      28.537  40.525  51.006  1.00  0.00     0.046 A 
HETATM    7  C   UNL     1      28.001  39.699  49.995  1.00  0.00     0.030 A 
HETATM    8  C   UNL     1      27.047  40.226  49.132  1.00  0.00     0.063 A 
HETATM    9  C   UNL     1      28.154  38.339  49.588  1.00  0.00     0.156 A 
HETATM   10  N   UNL     1      26.749  39.216  48.261  1.00  0.00    -0.277 N 
HETATM   11  C   UNL     1      26.563  41.531  49.236  1.00  0.00     0.034 A 
HETATM   12  H   UNL     1      26.101  39.248  47.482  1.00  0.00     0.189 HD
HETATM   13  N   UNL     1      27.381  38.058  48.513  1.00  0.00    -0.168 NA
HETATM   14  C   UNL     1      27.073  42.315  50.278  1.00  0.00     0.032 A 
BRANCH   9  15
HETATM   15  C   UNL     1      28.986  37.303  50.216  1.00  0.00     0.270 C 
HETATM   16  N   UNL     1      28.278  36.244  50.716  1.00  0.00    -0.365 N 
HETATM   17  H   UNL     1      27.267  36.265  50.650  1.00  0.00     0.159 HD
HETATM   18  H   UNL     1      28.759  35.513  51.215  1.00  0.00     0.159 HD
HETATM   19  O   UNL     1      30.207  37.356  50.326  1.00  0.00    -0.266 OA
ENDBRANCH   9  15
ENDBRANCH   2   5
BRANCH   1  20
HETATM   20  C   UNL     1      28.685  43.746  54.350  1.00  0.00     0.046 A 
HETATM   21  C   UNL     1      28.002  44.984  54.445  1.00  0.00     0.009 A 
HETATM   22  C   UNL     1      28.520  45.903  55.385  1.00  0.00     0.071 A 
HETATM   23  C   UNL     1      26.875  45.368  53.670  1.00  0.00     0.018 A 
HETATM   24  N   UNL     1      29.626  45.666  56.108  1.00  0.00    -0.253 NA
HETATM   25  C   UNL     1      27.875  47.113  55.577  1.00  0.00     0.074 A 
HETATM   26  C   UNL     1      30.299  44.508  55.935  1.00  0.00     0.032 A 
HETATM   27  C   UNL     1      31.563  44.319  56.720  1.00  0.00     0.070 C 
HETATM   28  C   UNL     1      29.858  43.522  55.078  1.00  0.00     0.044 A 
HETATM   29  C   UNL     1      26.747  47.450  54.842  1.00  0.00     0.118 A 
HETATM   30  F   UNL     1      26.143  48.625  55.057  1.00  0.00    -0.206 F 
HETATM   31  C   UNL     1      26.245  46.593  53.878  1.00  0.00     0.043 A 
ENDBRANCH   1  20
TORSDOF 3
ENDMDL
MODEL 3
REMARK VINA RESULT:      -9.8      2.589      3.832
REMARK  3 active torsions:
REMARK  status: ('A' for Active; 'I' for Inactive)
REMARK    1  A    between atoms: C_6  and  C_7 
REMARK       I    between atoms: C_7  and  N_8 
REMARK    2  A    between atoms: N_8  and  C_9 
REMARK    3  A    between atoms: C_16  and  C_17 
REMARK       I    between atoms: C_17  and  N_18 
ROOT
HETATM    1  C   UNL     1      27.216  44.399  52.334  1.00  0.00     0.257 C 
HETATM    2  N   UNL     1      26.686  43.131  52.478  1.00  0.00    -0.323 N 
HETATM    3  O   UNL     1      27.387  45.010  51.286  1.00  0.00    -0.267 OA
HETATM    4  H   UNL     1      26.541  42.789  53.420  1.00  0.00     0.169 HD
ENDROOT
BRANCH   2   5
HETATM    5  C   UNL     1      26.313  42.249  51.443  1.00  0.00     0.036 A 
HETATM    6  C   UNL     1      25.309  42.542  50.509  1.00  0.00     0.046 A 
HETATM    7  C   UNL     1      25.043  41.627  49.467  1.00  0.00     0.030 A 
HETATM    8  C   UNL     1      25.754  40.434  49.424  1.00  0.00     0.063 A 
HETATM    9  C   UNL     1      24.193  41.591  48.321  1.00  0.00     0.156 A 
HETATM   10  N   UNL     1      25.262  39.759  48.342  1.00  0.00    -0.277 N 
HETATM   11  C   UNL     1      26.749  40.104  50.346  1.00  0.00     0.034 A 
HETATM   12  H   UNL     1      25.538  38.839  48.015  1.00  0.00     0.189 HD
HETATM   13  N   UNL     1      24.334  40.430  47.641  1.00  0.00    -0.168 NA
HETATM   14  C   UNL     1      27.029  41.049  51.341  1.00  0.00     0.032 A 
BRANCH   9  15
HETATM   15  C   UNL     1      23.284  42.644  47.845  1.00  0.00     0.270 C 
HETATM   16  N   UNL     1      23.919  43.725  47.297  1.00  0.00    -0.365 N 
HETATM   17  H   UNL     1      24.932  43.737  47.290  1.00  0.00     0.159 HD
HETATM   18  H   UNL     1      23.379  44.521  46.996  1.00  0.00     0.159 HD
HETATM   19  O   UNL     1      22.061  42.607  47.935  1.00  0.00    -0.266 OA
ENDBRANCH   9  15
ENDBRANCH   2   5
BRANCH   1  20
HETATM   20  C   UNL     1      27.660  45.049  53.597  1.00  0.00     0.046 A 
HETATM   21  C   UNL     1      28.747  44.598  54.386  1.00  0.00     0.009 A 
HETATM   22  C   UNL     1      29.096  45.421  55.479  1.00  0.00     0.071 A 
HETATM   23  C   UNL     1      29.480  43.399  54.177  1.00  0.00     0.018 A 
HETATM   24  N   UNL     1      28.417  46.532  55.807  1.00  0.00    -0.253 NA
HETATM   25  C   UNL     1      30.183  45.079  56.266  1.00  0.00     0.074 A 
HETATM   26  C   UNL     1      27.336  46.890  55.081  1.00  0.00     0.032 A 
HETATM   27  C   UNL     1      26.574  48.102  55.525  1.00  0.00     0.070 C 
HETATM   28  C   UNL     1      26.934  46.184  53.966  1.00  0.00     0.044 A 
HETATM   29  C   UNL     1      30.916  43.927  56.017  1.00  0.00     0.118 A 
HETATM   30  F   UNL     1      31.965  43.628  56.793  1.00  0.00    -0.206 F 
HETATM   31  C   UNL     1      30.568  43.073  54.985  1.00  0.00     0.043 A 
ENDBRANCH   1  20
TORSDOF 3
ENDMDL
MODEL 4
REMARK VINA RESULT:      -9.7      4.607      6.340
REMARK  3 active torsions:
REMARK  status: ('A' for Active; 'I' for Inactive)
REMARK    1  A    between atoms: C_6  and  C_7 
REMARK       I    between atoms: C_7  and  N_8 
REMARK    2  A    between atoms: N_8  and  C_9 
REMARK    3  A    between atoms: C_16  and  C_17 
REMARK       I    between atoms: C_17  and  N_18 
ROOT
HETATM    1  C   UNL     1      25.673  44.917  52.956  1.00  0.00     0.257 C 
HETATM    2  N   UNL     1      25.891  45.353  51.663  1.00  0.00    -0.323 N 
HETATM    3  O   UNL     1      24.783  44.166  53.338  1.00  0.00    -0.267 OA
HETATM    4  H   UNL     1      26.714  45.916  51.492  1.00  0.00     0.169 HD
ENDROOT
BRANCH   2   5
HETATM    5  C   UNL     1      25.084  45.092  50.536  1.00  0.00     0.036 A 
HETATM    6  C   UNL     1      24.135  45.998  50.044  1.00  0.00     0.046 A 
HETATM    7  C   UNL     1      23.415  45.680  48.872  1.00  0.00     0.030 A 
HETATM    8  C   UNL     1      23.632  44.450  48.264  1.00  0.00     0.063 A 
HETATM    9  C   UNL     1      22.458  46.338  48.041  1.00  0.00     0.156 A 
HETATM   10  N   UNL     1      22.784  44.421  47.192  1.00  0.00    -0.277 N 
HETATM   11  C   UNL     1      24.558  43.517  48.737  1.00  0.00     0.034 A 
HETATM   12  H   UNL     1      22.660  43.665  46.528  1.00  0.00     0.189 HD
HETATM   13  N   UNL     1      22.074  45.546  47.013  1.00  0.00    -0.168 NA
HETATM   14  C   UNL     1      25.296  43.877  49.871  1.00  0.00     0.032 A 
BRANCH   9  15
HETATM   15  C   UNL     1      21.936  47.705  48.184  1.00  0.00     0.270 C 
HETATM   16  N   UNL     1      21.135  47.885  49.278  1.00  0.00    -0.365 N 
HETATM   17  H   UNL     1      20.939  47.087  49.870  1.00  0.00     0.159 HD
HETATM   18  H   UNL     1      20.686  48.774  49.426  1.00  0.00     0.159 HD
HETATM   19  O   UNL     1      22.153  48.623  47.400  1.00  0.00    -0.266 OA
ENDBRANCH   9  15
ENDBRANCH   2   5
BRANCH   1  20
HETATM   20  C   UNL     1      26.603  45.468  53.977  1.00  0.00     0.046 A 
HETATM   21  C   UNL     1      27.783  44.819  54.415  1.00  0.00     0.009 A 
HETATM   22  C   UNL     1      28.602  45.559  55.296  1.00  0.00     0.071 A 
HETATM   23  C   UNL     1      28.183  43.502  54.061  1.00  0.00     0.018 A 
HETATM   24  N   UNL     1      28.274  46.778  55.753  1.00  0.00    -0.253 NA
HETATM   25  C   UNL     1      29.802  45.015  55.726  1.00  0.00     0.074 A 
HETATM   26  C   UNL     1      27.103  47.336  55.377  1.00  0.00     0.032 A 
HETATM   27  C   UNL     1      26.752  48.670  55.964  1.00  0.00     0.070 C 
HETATM   28  C   UNL     1      26.248  46.721  54.486  1.00  0.00     0.044 A 
HETATM   29  C   UNL     1      30.197  43.745  55.330  1.00  0.00     0.118 A 
HETATM   30  F   UNL     1      31.365  43.252  55.758  1.00  0.00    -0.206 F 
HETATM   31  C   UNL     1      29.392  42.975  54.509  1.00  0.00     0.043 A 
ENDBRANCH   1  20
TORSDOF 3
ENDMDL
MODEL 5
REMARK VINA RESULT:      -9.5      5.590      8.043
REMARK  3 active torsions:
REMARK  status: ('A' for Active; 'I' for Inactive)
REMARK    1  A    between atoms: C_6  and  C_7 
REMARK       I    between atoms: C_7  and  N_8 
REMARK    2  A    between atoms: N_8  and  C_9 
REMARK    3  A    between atoms: C_16  and  C_17 
REMARK       I    between atoms: C_17  and  N_18 
ROOT
HETATM    1  C   UNL     1      25.947  45.792  51.971  1.00  0.00     0.257 C 
HETATM    2  N   UNL     1      26.559  46.706  51.135  1.00  0.00    -0.323 N 
HETATM    3  O   UNL     1      24.753  45.517  52.011  1.00  0.00    -0.267 OA
HETATM    4  H   UNL     1      27.569  46.770  51.171  1.00  0.00     0.169 HD
ENDROOT
BRANCH   2   5
HETATM    5  C   UNL     1      25.924  47.569  50.217  1.00  0.00     0.036 A 
HETATM    6  C   UNL     1      24.558  47.496  49.913  1.00  0.00     0.046 A 
HETATM    7  C   UNL     1      23.992  48.440  49.030  1.00  0.00     0.030 A 
HETATM    8  C   UNL     1      24.819  49.392  48.445  1.00  0.00     0.063 A 
HETATM    9  C   UNL     1      22.684  48.742  48.545  1.00  0.00     0.156 A 
HETATM   10  N   UNL     1      24.005  50.130  47.633  1.00  0.00    -0.277 N 
HETATM   11  C   UNL     1      26.187  49.483  48.714  1.00  0.00     0.034 A 
HETATM   12  H   UNL     1      24.272  50.904  47.035  1.00  0.00     0.189 HD
HETATM   13  N   UNL     1      22.709  49.781  47.679  1.00  0.00    -0.168 NA
HETATM   14  C   UNL     1      26.714  48.567  49.632  1.00  0.00     0.032 A 
BRANCH   9  15
HETATM   15  C   UNL     1      21.419  48.090  48.913  1.00  0.00     0.270 C 
HETATM   16  N   UNL     1      20.644  48.819  49.774  1.00  0.00    -0.365 N 
HETATM   17  H   UNL     1      21.000  49.706  50.110  1.00  0.00     0.159 HD
HETATM   18  H   UNL     1      19.786  48.426  50.126  1.00  0.00     0.159 HD
HETATM   19  O   UNL     1      21.063  46.982  48.524  1.00  0.00    -0.266 OA
ENDBRANCH   9  15
ENDBRANCH   2   5
BRANCH   1  20
HETATM   20  C   UNL     1      26.848  45.120  52.945  1.00  0.00     0.046 A 
HETATM   21  C   UNL     1      27.376  43.816  52.775  1.00  0.00     0.009 A 
HETATM   22  C   UNL     1      28.315  43.401  53.746  1.00  0.00     0.071 A 
HETATM   23  C   UNL     1      27.023  42.909  51.740  1.00  0.00     0.018 A 
HETATM   24  N   UNL     1      28.654  44.152  54.805  1.00  0.00    -0.253 NA
HETATM   25  C   UNL     1      28.918  42.161  53.619  1.00  0.00     0.074 A 
HETATM   26  C   UNL     1      28.072  45.358  54.980  1.00  0.00     0.032 A 
HETATM   27  C   UNL     1      28.437  46.131  56.212  1.00  0.00     0.070 C 
HETATM   28  C   UNL     1      27.176  45.881  54.071  1.00  0.00     0.044 A 
HETATM   29  C   UNL     1      28.595  41.309  52.573  1.00  0.00     0.118 A 
HETATM   30  F   UNL     1      29.202  40.119  52.476  1.00  0.00    -0.206 F 
HETATM   31  C   UNL     1      27.642  41.665  51.635  1.00  0.00     0.043 A 
ENDBRANCH   1  20
TORSDOF 3
ENDMDL
MODEL 6
REMARK VINA RESULT:      -9.5      5.669      8.214
REMARK  3 active torsions:
REMARK  status: ('A' for Active; 'I' for Inactive)
REMARK    1  A    between atoms: C_6  and  C_7 
REMARK       I    between atoms: C_7  and  N_8 
REMARK    2  A    between atoms: N_8  and  C_9 
REMARK    3  A    between atoms: C_16  and  C_17 
REMARK       I    between atoms: C_17  and  N_18 
ROOT
HETATM    1  C   UNL     1      25.842  45.881  51.493  1.00  0.00     0.257 C 
HETATM    2  N   UNL     1      26.390  46.813  50.632  1.00  0.00    -0.323 N 
HETATM    3  O   UNL     1      24.651  45.648  51.662  1.00  0.00    -0.267 OA
HETATM    4  H   UNL     1      27.399  46.838  50.552  1.00  0.00     0.169 HD
ENDROOT
BRANCH   2   5
HETATM    5  C   UNL     1      25.689  47.743  49.837  1.00  0.00     0.036 A 
HETATM    6  C   UNL     1      24.297  47.722  49.678  1.00  0.00     0.046 A 
HETATM    7  C   UNL     1      23.671  48.730  48.913  1.00  0.00     0.030 A 
HETATM    8  C   UNL     1      24.461  49.692  48.295  1.00  0.00     0.063 A 
HETATM    9  C   UNL     1      22.328  49.092  48.588  1.00  0.00     0.156 A 
HETATM   10  N   UNL     1      23.588  50.496  47.616  1.00  0.00    -0.277 N 
HETATM   11  C   UNL     1      25.851  49.733  48.420  1.00  0.00     0.034 A 
HETATM   12  H   UNL     1      23.815  51.296  47.036  1.00  0.00     0.189 HD
HETATM   13  N   UNL     1      22.294  50.179  47.782  1.00  0.00    -0.168 NA
HETATM   14  C   UNL     1      26.444  48.752  49.224  1.00  0.00     0.032 A 
BRANCH   9  15
HETATM   15  C   UNL     1      21.089  48.453  49.054  1.00  0.00     0.270 C 
HETATM   16  N   UNL     1      20.353  49.221  49.914  1.00  0.00    -0.365 N 
HETATM   17  H   UNL     1      20.717  50.127  50.185  1.00  0.00     0.159 HD
HETATM   18  H   UNL     1      19.517  48.843  50.330  1.00  0.00     0.159 HD
HETATM   19  O   UNL     1      20.725  47.324  48.743  1.00  0.00    -0.266 OA
ENDBRANCH   9  15
ENDBRANCH   2   5
BRANCH   1  20
HETATM   20  C   UNL     1      26.821  45.129  52.322  1.00  0.00     0.046 A 
HETATM   21  C   UNL     1      27.312  45.572  53.575  1.00  0.00     0.009 A 
HETATM   22  C   UNL     1      28.136  44.660  54.271  1.00  0.00     0.071 A 
HETATM   23  C   UNL     1      27.060  46.842  54.160  1.00  0.00     0.018 A 
HETATM   24  N   UNL     1      28.497  43.468  53.769  1.00  0.00    -0.253 NA
HETATM   25  C   UNL     1      28.610  44.996  55.528  1.00  0.00     0.074 A 
HETATM   26  C   UNL     1      28.077  43.110  52.536  1.00  0.00     0.032 A 
HETATM   27  C   UNL     1      28.559  41.798  51.994  1.00  0.00     0.070 C 
HETATM   28  C   UNL     1      27.232  43.904  51.789  1.00  0.00     0.044 A 
HETATM   29  C   UNL     1      28.313  46.224  56.103  1.00  0.00     0.118 A 
HETATM   30  F   UNL     1      28.782  46.515  57.322  1.00  0.00    -0.206 F 
HETATM   31  C   UNL     1      27.551  47.159  55.425  1.00  0.00     0.043 A 
ENDBRANCH   1  20
TORSDOF 3
ENDMDL
MODEL 7
REMARK VINA RESULT:      -9.4      1.948      2.514
REMARK  3 active torsions:
REMARK  status: ('A' for Active; 'I' for Inactive)
REMARK    1  A    between atoms: C_6  and  C_7 
REMARK       I    between atoms: C_7  and  N_8 
REMARK    2  A    between atoms: N_8  and  C_9 
REMARK    3  A    between atoms: C_16  and  C_17 
REMARK       I    between atoms: C_17  and  N_18 
ROOT
HETATM    1  C   UNL     1      26.600  45.073  52.343  1.00  0.00     0.257 C 
HETATM    2  N   UNL     1      26.169  43.761  52.392  1.00  0.00    -0.323 N 
HETATM    3  O   UNL     1      26.595  45.812  51.366  1.00  0.00    -0.267 OA
HETATM    4  H   UNL     1      26.170  43.302  53.294  1.00  0.00     0.169 HD
ENDROOT
BRANCH   2   5
HETATM    5  C   UNL     1      25.716  42.980  51.309  1.00  0.00     0.036 A 
HETATM    6  C   UNL     1      26.502  42.001  50.686  1.00  0.00     0.046 A 
HETATM    7  C   UNL     1      25.946  41.222  49.648  1.00  0.00     0.030 A 
HETATM    8  C   UNL     1      24.644  41.482  49.237  1.00  0.00     0.063 A 
HETATM    9  C   UNL     1      26.372  40.121  48.846  1.00  0.00     0.156 A 
HETATM   10  N   UNL     1      24.403  40.604  48.218  1.00  0.00    -0.277 N 
HETATM   11  C   UNL     1      23.839  42.460  49.826  1.00  0.00     0.034 A 
HETATM   12  H   UNL     1      23.556  40.519  47.667  1.00  0.00     0.189 HD
HETATM   13  N   UNL     1      25.412  39.755  47.964  1.00  0.00    -0.168 NA
HETATM   14  C   UNL     1      24.396  43.185  50.886  1.00  0.00     0.032 A 
BRANCH   9  15
HETATM   15  C   UNL     1      27.647  39.393  48.926  1.00  0.00     0.270 C 
HETATM   16  N   UNL     1      28.681  40.006  48.273  1.00  0.00    -0.365 N 
HETATM   17  H   UNL     1      28.494  40.867  47.772  1.00  0.00     0.159 HD
HETATM   18  H   UNL     1      29.579  39.552  48.225  1.00  0.00     0.159 HD
HETATM   19  O   UNL     1      27.805  38.318  49.495  1.00  0.00    -0.266 OA
ENDBRANCH   9  15
ENDBRANCH   2   5
BRANCH   1  20
HETATM   20  C   UNL     1      27.167  45.603  53.612  1.00  0.00     0.046 A 
HETATM   21  C   UNL     1      28.275  45.036  54.289  1.00  0.00     0.009 A 
HETATM   22  C   UNL     1      28.746  45.756  55.409  1.00  0.00     0.071 A 
HETATM   23  C   UNL     1      28.916  43.815  53.947  1.00  0.00     0.018 A 
HETATM   24  N   UNL     1      28.161  46.876  55.860  1.00  0.00    -0.253 NA
HETATM   25  C   UNL     1      29.860  45.296  56.091  1.00  0.00     0.074 A 
HETATM   26  C   UNL     1      27.057  47.347  55.238  1.00  0.00     0.032 A 
HETATM   27  C   UNL     1      26.403  48.565  55.818  1.00  0.00     0.070 C 
HETATM   28  C   UNL     1      26.538  46.749  54.109  1.00  0.00     0.044 A 
HETATM   29  C   UNL     1      30.502  44.125  55.712  1.00  0.00     0.118 A 
HETATM   30  F   UNL     1      31.581  43.712  56.389  1.00  0.00    -0.206 F 
HETATM   31  C   UNL     1      30.033  43.370  54.651  1.00  0.00     0.043 A 
ENDBRANCH   1  20
TORSDOF 3
ENDMDL
MODEL 8
REMARK VINA RESULT:      -9.3      4.573      8.465
REMARK  3 active torsions:
REMARK  status: ('A' for Active; 'I' for Inactive)
REMARK    1  A    between atoms: C_6  and  C_7 
REMARK       I    between atoms: C_7  and  N_8 
REMARK    2  A    between atoms: N_8  and  C_9 
REMARK    3  A    between atoms: C_16  and  C_17 
REMARK       I    between atoms: C_17  and  N_18 
ROOT
HETATM    1  C   UNL     1      26.597  44.279  50.411  1.00  0.00     0.257 C 
HETATM    2  N   UNL     1      26.638  43.699  51.665  1.00  0.00    -0.323 N 
HETATM    3  O   UNL     1      27.523  44.825  49.823  1.00  0.00    -0.267 OA
HETATM    4  H   UNL     1      25.806  43.222  51.987  1.00  0.00     0.169 HD
ENDROOT
BRANCH   2   5
HETATM    5  C   UNL     1      27.731  43.692  52.557  1.00  0.00     0.036 A 
HETATM    6  C   UNL     1      27.849  44.581  53.634  1.00  0.00     0.046 A 
HETATM    7  C   UNL     1      28.947  44.462  54.514  1.00  0.00     0.030 A 
HETATM    8  C   UNL     1      29.910  43.494  54.259  1.00  0.00     0.063 A 
HETATM    9  C   UNL     1      29.371  45.094  55.722  1.00  0.00     0.156 A 
HETATM   10  N   UNL     1      30.843  43.642  55.247  1.00  0.00    -0.277 N 
HETATM   11  C   UNL     1      29.831  42.603  53.186  1.00  0.00     0.034 A 
HETATM   12  H   UNL     1      31.699  43.112  55.367  1.00  0.00     0.189 HD
HETATM   13  N   UNL     1      30.545  44.583  56.157  1.00  0.00    -0.168 NA
HETATM   14  C   UNL     1      28.708  42.708  52.357  1.00  0.00     0.032 A 
BRANCH   9  15
HETATM   15  C   UNL     1      28.670  46.141  56.480  1.00  0.00     0.270 C 
HETATM   16  N   UNL     1      28.877  46.084  57.832  1.00  0.00    -0.365 N 
HETATM   17  H   UNL     1      29.449  45.334  58.202  1.00  0.00     0.159 HD
HETATM   18  H   UNL     1      28.391  46.726  58.438  1.00  0.00     0.159 HD
HETATM   19  O   UNL     1      27.936  46.991  55.987  1.00  0.00    -0.266 OA
ENDBRANCH   9  15
ENDBRANCH   2   5
BRANCH   1  20
HETATM   20  C   UNL     1      25.265  44.266  49.749  1.00  0.00     0.046 A 
HETATM   21  C   UNL     1      24.472  45.420  49.530  1.00  0.00     0.009 A 
HETATM   22  C   UNL     1      23.297  45.223  48.772  1.00  0.00     0.071 A 
HETATM   23  C   UNL     1      24.752  46.722  50.023  1.00  0.00     0.018 A 
HETATM   24  N   UNL     1      22.903  44.019  48.328  1.00  0.00    -0.253 NA
HETATM   25  C   UNL     1      22.497  46.312  48.467  1.00  0.00     0.074 A 
HETATM   26  C   UNL     1      23.641  42.927  48.623  1.00  0.00     0.032 A 
HETATM   27  C   UNL     1      23.126  41.597  48.161  1.00  0.00     0.070 C 
HETATM   28  C   UNL     1      24.830  43.009  49.319  1.00  0.00     0.044 A 
HETATM   29  C   UNL     1      22.814  47.585  48.918  1.00  0.00     0.118 A 
HETATM   30  F   UNL     1      22.022  48.617  48.600  1.00  0.00    -0.206 F 
HETATM   31  C   UNL     1      23.930  47.802  49.707  1.00  0.00     0.043 A 
ENDBRANCH   1  20
TORSDOF 3
ENDMDL
MODEL 9
REMARK VINA RESULT:      -9.3      1.541      2.459
REMARK  3 active torsions:
REMARK  status: ('A' for Active; 'I' for Inactive)
REMARK    1  A    between atoms: C_6  and  C_7 
REMARK       I    between atoms: C_7  and  N_8 
REMARK    2  A    between atoms: N_8  and  C_9 
REMARK    3  A    between atoms: C_16  and  C_17 
REMARK       I    between atoms: C_17  and  N_18 
ROOT
HETATM    1  C   UNL     1      29.129  42.864  52.886  1.00  0.00     0.257 C 
HETATM    2  N   UNL     1      28.109  42.005  52.522  1.00  0.00    -0.323 N 
HETATM    3  O   UNL     1      30.285  42.845  52.481  1.00  0.00    -0.267 OA
HETATM    4  H   UNL     1      27.185  42.194  52.891  1.00  0.00     0.169 HD
ENDROOT
BRANCH   2   5
HETATM    5  C   UNL     1      28.212  40.881  51.677  1.00  0.00     0.036 A 
HETATM    6  C   UNL     1      27.439  40.717  50.519  1.00  0.00     0.046 A 
HETATM    7  C   UNL     1      27.652  39.589  49.697  1.00  0.00     0.030 A 
HETATM    8  C   UNL     1      28.594  38.644  50.085  1.00  0.00     0.063 A 
HETATM    9  C   UNL     1      27.149  39.116  48.447  1.00  0.00     0.156 A 
HETATM   10  N   UNL     1      28.553  37.675  49.121  1.00  0.00    -0.277 N 
HETATM   11  C   UNL     1      29.370  38.769  51.239  1.00  0.00     0.034 A 
HETATM   12  H   UNL     1      29.096  36.820  49.087  1.00  0.00     0.189 HD
HETATM   13  N   UNL     1      27.709  37.932  48.109  1.00  0.00    -0.168 NA
HETATM   14  C   UNL     1      29.175  39.920  52.012  1.00  0.00     0.032 A 
BRANCH   9  15
HETATM   15  C   UNL     1      26.183  39.780  47.560  1.00  0.00     0.270 C 
HETATM   16  N   UNL     1      24.904  39.805  48.046  1.00  0.00    -0.365 N 
HETATM   17  H   UNL     1      24.715  39.352  48.931  1.00  0.00     0.159 HD
HETATM   18  H   UNL     1      24.164  40.189  47.480  1.00  0.00     0.159 HD
HETATM   19  O   UNL     1      26.454  40.260  46.464  1.00  0.00    -0.266 OA
ENDBRANCH   9  15
ENDBRANCH   2   5
BRANCH   1  20
HETATM   20  C   UNL     1      28.769  43.878  53.913  1.00  0.00     0.046 A 
HETATM   21  C   UNL     1      29.508  44.109  55.099  1.00  0.00     0.009 A 
HETATM   22  C   UNL     1      29.082  45.202  55.886  1.00  0.00     0.071 A 
HETATM   23  C   UNL     1      30.605  43.331  55.555  1.00  0.00     0.018 A 
HETATM   24  N   UNL     1      28.009  45.950  55.584  1.00  0.00    -0.253 NA
HETATM   25  C   UNL     1      29.787  45.528  57.033  1.00  0.00     0.074 A 
HETATM   26  C   UNL     1      27.278  45.652  54.487  1.00  0.00     0.032 A 
HETATM   27  C   UNL     1      26.053  46.476  54.227  1.00  0.00     0.070 C 
HETATM   28  C   UNL     1      27.630  44.636  53.623  1.00  0.00     0.044 A 
HETATM   29  C   UNL     1      30.886  44.782  57.436  1.00  0.00     0.118 A 
HETATM   30  F   UNL     1      31.549  45.128  58.546  1.00  0.00    -0.206 F 
HETATM   31  C   UNL     1      31.297  43.676  56.714  1.00  0.00     0.043 A 
ENDBRANCH   1  20
TORSDOF 3
ENDMDL
MODEL 10
REMARK VINA RESULT:      -9.2      2.572      4.455
REMARK  3 active torsions:
REMARK  status: ('A' for Active; 'I' for Inactive)
REMARK    1  A    between atoms: C_6  and  C_7 
REMARK       I    between atoms: C_7  and  N_8 
REMARK    2  A    between atoms: N_8  and  C_9 
REMARK    3  A    between atoms: C_16  and  C_17 
REMARK       I    between atoms: C_17  and  N_18 
ROOT
HETATM    1  C   UNL     1      28.202  42.271  53.513  1.00  0.00     0.257 C 
HETATM    2  N   UNL     1      28.261  42.460  52.145  1.00  0.00    -0.323 N 
HETATM    3  O   UNL     1      27.649  41.353  54.105  1.00  0.00    -0.267 OA
HETATM    4  H   UNL     1      28.819  43.232  51.803  1.00  0.00     0.169 HD
ENDROOT
BRANCH   2   5
HETATM    5  C   UNL     1      27.624  41.680  51.157  1.00  0.00     0.036 A 
HETATM    6  C   UNL     1      26.475  42.097  50.472  1.00  0.00     0.046 A 
HETATM    7  C   UNL     1      25.940  41.279  49.454  1.00  0.00     0.030 A 
HETATM    8  C   UNL     1      26.541  40.054  49.190  1.00  0.00     0.063 A 
HETATM    9  C   UNL     1      24.873  41.376  48.509  1.00  0.00     0.156 A 
HETATM   10  N   UNL     1      25.795  39.490  48.194  1.00  0.00    -0.277 N 
HETATM   11  C   UNL     1      27.677  39.602  49.864  1.00  0.00     0.034 A 
HETATM   12  H   UNL     1      25.933  38.584  47.761  1.00  0.00     0.189 HD
HETATM   13  N   UNL     1      24.792  40.262  47.744  1.00  0.00    -0.168 NA
HETATM   14  C   UNL     1      28.219  40.453  50.835  1.00  0.00     0.032 A 
BRANCH   9  15
HETATM   15  C   UNL     1      23.963  42.510  48.298  1.00  0.00     0.270 C 
HETATM   16  N   UNL     1      22.709  42.151  47.882  1.00  0.00    -0.365 N 
HETATM   17  H   UNL     1      22.516  41.169  47.723  1.00  0.00     0.159 HD
HETATM   18  H   UNL     1      22.035  42.865  47.657  1.00  0.00     0.159 HD
HETATM   19  O   UNL     1      24.267  43.689  48.445  1.00  0.00    -0.266 OA
ENDBRANCH   9  15
ENDBRANCH   2   5
BRANCH   1  20
HETATM   20  C   UNL     1      28.846  43.335  54.329  1.00  0.00     0.046 A 
HETATM   21  C   UNL     1      28.348  44.655  54.456  1.00  0.00     0.009 A 
HETATM   22  C   UNL     1      29.027  45.484  55.376  1.00  0.00     0.071 A 
HETATM   23  C   UNL     1      27.256  45.201  53.728  1.00  0.00     0.018 A 
HETATM   24  N   UNL     1      30.116  45.088  56.053  1.00  0.00    -0.253 NA
HETATM   25  C   UNL     1      28.566  46.771  55.599  1.00  0.00     0.074 A 
HETATM   26  C   UNL     1      30.613  43.849  55.849  1.00  0.00     0.032 A 
HETATM   27  C   UNL     1      31.868  43.477  56.581  1.00  0.00     0.070 C 
HETATM   28  C   UNL     1      30.004  42.942  55.007  1.00  0.00     0.044 A 
HETATM   29  C   UNL     1      27.468  47.269  54.912  1.00  0.00     0.118 A 
HETATM   30  F   UNL     1      27.045  48.516  55.155  1.00  0.00    -0.206 F 
HETATM   31  C   UNL     1      26.813  46.500  53.966  1.00  0.00     0.043 A 
ENDBRANCH   1  20
TORSDOF 3
ENDMDL
