MODEL 1
REMARK VINA RESULT:      -7.7      0.000      0.000
REMARK  4 active torsions:
REMARK  status: ('A' for Active; 'I' for Inactive)
REMARK    1  A    between atoms: C_4  and  N_5 
REMARK       I    between atoms: N_5  and  C_6 
REMARK    2  A    between atoms: C_6  and  C_7 
REMARK    3  A    between atoms: C_7  and  O_8 
REMARK    4  A    between atoms: O_8  and  C_9 
ROOT
HETATM    1  N   UNL     1      25.858  41.887  50.619  1.00  0.00    -0.309 N 
HETATM    2  C   UNL     1      25.954  43.026  51.362  1.00  0.00     0.252 C 
HETATM    3  O   UNL     1      24.921  43.385  51.943  1.00  0.00    -0.270 OA
HETATM    4  H   UNL     1      24.915  41.522  50.610  1.00  0.00     0.170 HD
ENDROOT
BRANCH   2   5
HETATM    5  C   UNL     1      27.262  43.845  51.448  1.00  0.00     0.217 C 
HETATM    6  C   UNL     1      27.269  44.882  50.323  1.00  0.00     0.050 C 
BRANCH   5   7
HETATM    7  O   UNL     1      27.372  44.609  52.657  1.00  0.00    -0.335 OA
BRANCH   7   8
HETATM    8  C   UNL     1      28.364  44.308  53.551  1.00  0.00     0.091 A 
HETATM    9  C   UNL     1      28.507  45.174  54.650  1.00  0.00     0.069 A 
HETATM   10 CL   UNL     1      27.467  46.541  54.859  1.00  0.00    -0.081 Cl
HETATM   11  C   UNL     1      29.493  44.954  55.615  1.00  0.00     0.050 A 
HETATM   12  C   UNL     1      30.352  43.870  55.478  1.00  0.00     0.035 A 
HETATM   13 CL   UNL     1      31.574  43.592  56.657  1.00  0.00    -0.084 Cl
HETATM   14  C   UNL     1      30.234  43.009  54.388  1.00  0.00     0.026 A 
HETATM   15  C   UNL     1      29.243  43.227  53.425  1.00  0.00     0.040 A 
ENDBRANCH   7   8
ENDBRANCH   5   7
ENDBRANCH   2   5
BRANCH   1  16
HETATM   16  C   UNL     1      26.832  41.169  49.928  1.00  0.00     0.130 A 
HETATM   17  C   UNL     1      26.989  41.453  48.573  1.00  0.00     0.057 A 
HETATM   18  C   UNL     1      27.958  40.769  47.836  1.00  0.00    -0.057 A 
HETATM   19  C   UNL     1      28.182  41.061  46.383  1.00  0.00     0.048 C 
HETATM   20  C   UNL     1      28.732  39.811  48.489  1.00  0.00     0.033 A 
HETATM   21  C   UNL     1      28.509  39.573  49.839  1.00  0.00     0.033 A 
HETATM   22  N   UNL     1      27.572  40.241  50.555  1.00  0.00    -0.236 NA
HETATM   23  C   UNL     1      29.328  38.549  50.568  1.00  0.00     0.070 C 
ENDBRANCH   1  16
TORSDOF 4
ENDMDL
MODEL 2
REMARK VINA RESULT:      -7.7     13.370     15.152
REMARK  4 active torsions:
REMARK  status: ('A' for Active; 'I' for Inactive)
REMARK    1  A    between atoms: C_4  and  N_5 
REMARK       I    between atoms: N_5  and  C_6 
REMARK    2  A    between atoms: C_6  and  C_7 
REMARK    3  A    between atoms: C_7  and  O_8 
REMARK    4  A    between atoms: O_8  and  C_9 
ROOT
HETATM    1  N   UNL     1      32.633  50.972  38.295  1.00  0.00    -0.309 N 
HETATM    2  C   UNL     1      33.635  51.361  39.134  1.00  0.00     0.252 C 
HETATM    3  O   UNL     1      34.540  52.036  38.623  1.00  0.00    -0.270 OA
HETATM    4  H   UNL     1      32.809  51.256  37.341  1.00  0.00     0.170 HD
ENDROOT
BRANCH   2   5
HETATM    5  C   UNL     1      33.665  50.957  40.625  1.00  0.00     0.217 C 
HETATM    6  C   UNL     1      35.122  50.830  41.072  1.00  0.00     0.050 C 
BRANCH   5   7
HETATM    7  O   UNL     1      33.095  51.948  41.491  1.00  0.00    -0.335 OA
BRANCH   7   8
HETATM    8  C   UNL     1      31.745  52.172  41.455  1.00  0.00     0.091 A 
HETATM    9  C   UNL     1      30.926  51.177  42.019  1.00  0.00     0.069 A 
HETATM   10 CL   UNL     1      31.602  49.752  42.731  1.00  0.00    -0.081 Cl
HETATM   11  C   UNL     1      29.535  51.311  42.028  1.00  0.00     0.050 A 
HETATM   12  C   UNL     1      28.954  52.439  41.460  1.00  0.00     0.035 A 
HETATM   13 CL   UNL     1      27.243  52.612  41.460  1.00  0.00    -0.084 Cl
HETATM   14  C   UNL     1      29.750  53.428  40.884  1.00  0.00     0.026 A 
HETATM   15  C   UNL     1      31.143  53.295  40.880  1.00  0.00     0.040 A 
ENDBRANCH   7   8
ENDBRANCH   5   7
ENDBRANCH   2   5
BRANCH   1  16
HETATM   16  C   UNL     1      31.441  50.298  38.556  1.00  0.00     0.130 A 
HETATM   17  C   UNL     1      30.255  50.973  38.278  1.00  0.00     0.057 A 
HETATM   18  C   UNL     1      29.033  50.339  38.512  1.00  0.00    -0.057 A 
HETATM   19  C   UNL     1      27.732  51.016  38.202  1.00  0.00     0.048 C 
HETATM   20  C   UNL     1      29.047  49.045  39.030  1.00  0.00     0.033 A 
HETATM   21  C   UNL     1      30.270  48.441  39.295  1.00  0.00     0.033 A 
HETATM   22  N   UNL     1      31.455  49.055  39.062  1.00  0.00    -0.236 NA
HETATM   23  C   UNL     1      30.316  47.049  39.852  1.00  0.00     0.070 C 
ENDBRANCH   1  16
TORSDOF 4
ENDMDL
MODEL 3
REMARK VINA RESULT:      -7.7      0.601      1.827
REMARK  4 active torsions:
REMARK  status: ('A' for Active; 'I' for Inactive)
REMARK    1  A    between atoms: C_4  and  N_5 
REMARK       I    between atoms: N_5  and  C_6 
REMARK    2  A    between atoms: C_6  and  C_7 
REMARK    3  A    between atoms: C_7  and  O_8 
REMARK    4  A    between atoms: O_8  and  C_9 
ROOT
HETATM    1  N   UNL     1      25.839  41.907  50.491  1.00  0.00    -0.309 N 
HETATM    2  C   UNL     1      25.937  43.034  51.252  1.00  0.00     0.252 C 
HETATM    3  O   UNL     1      24.906  43.381  51.844  1.00  0.00    -0.270 OA
HETATM    4  H   UNL     1      24.897  41.541  50.480  1.00  0.00     0.170 HD
ENDROOT
BRANCH   2   5
HETATM    5  C   UNL     1      27.243  43.854  51.346  1.00  0.00     0.217 C 
HETATM    6  C   UNL     1      27.244  44.908  50.238  1.00  0.00     0.050 C 
BRANCH   5   7
HETATM    7  O   UNL     1      27.357  44.598  52.567  1.00  0.00    -0.335 OA
BRANCH   7   8
HETATM    8  C   UNL     1      28.343  44.273  53.460  1.00  0.00     0.091 A 
HETATM    9  C   UNL     1      28.498  45.128  54.566  1.00  0.00     0.069 A 
HETATM   10 CL   UNL     1      27.481  46.511  54.784  1.00  0.00    -0.081 Cl
HETATM   11  C   UNL     1      29.480  44.884  55.530  1.00  0.00     0.050 A 
HETATM   12  C   UNL     1      30.321  43.787  55.386  1.00  0.00     0.035 A 
HETATM   13 CL   UNL     1      31.536  43.479  56.564  1.00  0.00    -0.084 Cl
HETATM   14  C   UNL     1      30.190  42.937  54.289  1.00  0.00     0.026 A 
HETATM   15  C   UNL     1      29.204  43.180  53.327  1.00  0.00     0.040 A 
ENDBRANCH   7   8
ENDBRANCH   5   7
ENDBRANCH   2   5
BRANCH   1  16
HETATM   16  C   UNL     1      26.811  41.203  49.783  1.00  0.00     0.130 A 
HETATM   17  C   UNL     1      27.566  40.273  50.494  1.00  0.00     0.057 A 
HETATM   18  C   UNL     1      28.547  39.534  49.830  1.00  0.00    -0.057 A 
HETATM   19  C   UNL     1      29.365  38.503  50.548  1.00  0.00     0.048 C 
HETATM   20  C   UNL     1      28.742  39.764  48.469  1.00  0.00     0.033 A 
HETATM   21  C   UNL     1      27.959  40.717  47.830  1.00  0.00     0.033 A 
HETATM   22  N   UNL     1      27.004  41.431  48.474  1.00  0.00    -0.236 NA
HETATM   23  C   UNL     1      28.146  40.985  46.366  1.00  0.00     0.070 C 
ENDBRANCH   1  16
TORSDOF 4
ENDMDL
MODEL 4
REMARK VINA RESULT:      -7.6      3.994      7.150
REMARK  4 active torsions:
REMARK  status: ('A' for Active; 'I' for Inactive)
REMARK    1  A    between atoms: C_4  and  N_5 
REMARK       I    between atoms: N_5  and  C_6 
REMARK    2  A    between atoms: C_6  and  C_7 
REMARK    3  A    between atoms: C_7  and  O_8 
REMARK    4  A    between atoms: O_8  and  C_9 
ROOT
HETATM    1  N   UNL     1      25.622  43.670  53.146  1.00  0.00    -0.309 N 
HETATM    2  C   UNL     1      25.285  43.605  51.826  1.00  0.00     0.252 C 
HETATM    3  O   UNL     1      24.193  43.081  51.569  1.00  0.00    -0.270 OA
HETATM    4  H   UNL     1      24.932  43.221  53.733  1.00  0.00     0.170 HD
ENDROOT
BRANCH   2   5
HETATM    5  C   UNL     1      26.224  44.118  50.710  1.00  0.00     0.217 C 
HETATM    6  C   UNL     1      27.092  42.956  50.223  1.00  0.00     0.050 C 
BRANCH   5   7
HETATM    7  O   UNL     1      25.521  44.570  49.544  1.00  0.00    -0.335 OA
BRANCH   7   8
HETATM    8  C   UNL     1      25.102  45.871  49.478  1.00  0.00     0.091 A 
HETATM    9  C   UNL     1      23.745  46.082  49.172  1.00  0.00     0.069 A 
HETATM   10 CL   UNL     1      22.666  44.756  48.907  1.00  0.00    -0.081 Cl
HETATM   11  C   UNL     1      23.223  47.375  49.077  1.00  0.00     0.050 A 
HETATM   12  C   UNL     1      24.060  48.466  49.277  1.00  0.00     0.035 A 
HETATM   13 CL   UNL     1      23.429  50.062  49.157  1.00  0.00    -0.084 Cl
HETATM   14  C   UNL     1      25.410  48.276  49.567  1.00  0.00     0.026 A 
HETATM   15  C   UNL     1      25.931  46.981  49.667  1.00  0.00     0.040 A 
ENDBRANCH   7   8
ENDBRANCH   5   7
ENDBRANCH   2   5
BRANCH   1  16
HETATM   16  C   UNL     1      26.712  44.267  53.775  1.00  0.00     0.130 A 
HETATM   17  C   UNL     1      27.810  43.454  54.050  1.00  0.00     0.057 A 
HETATM   18  C   UNL     1      28.933  44.005  54.671  1.00  0.00    -0.057 A 
HETATM   19  C   UNL     1      30.148  43.176  54.961  1.00  0.00     0.048 C 
HETATM   20  C   UNL     1      28.909  45.358  55.005  1.00  0.00     0.033 A 
HETATM   21  C   UNL     1      27.773  46.101  54.711  1.00  0.00     0.033 A 
HETATM   22  N   UNL     1      26.685  45.568  54.104  1.00  0.00    -0.236 NA
HETATM   23  C   UNL     1      27.718  47.560  55.059  1.00  0.00     0.070 C 
ENDBRANCH   1  16
TORSDOF 4
ENDMDL
MODEL 5
REMARK VINA RESULT:      -7.6      4.106      5.682
REMARK  4 active torsions:
REMARK  status: ('A' for Active; 'I' for Inactive)
REMARK    1  A    between atoms: C_4  and  N_5 
REMARK       I    between atoms: N_5  and  C_6 
REMARK    2  A    between atoms: C_6  and  C_7 
REMARK    3  A    between atoms: C_7  and  O_8 
REMARK    4  A    between atoms: O_8  and  C_9 
ROOT
HETATM    1  N   UNL     1      24.398  45.940  50.713  1.00  0.00    -0.309 N 
HETATM    2  C   UNL     1      24.852  45.370  51.866  1.00  0.00     0.252 C 
HETATM    3  O   UNL     1      24.367  44.268  52.155  1.00  0.00    -0.270 OA
HETATM    4  H   UNL     1      23.673  45.385  50.279  1.00  0.00     0.170 HD
ENDROOT
BRANCH   2   5
HETATM    5  C   UNL     1      25.882  46.070  52.780  1.00  0.00     0.217 C 
HETATM    6  C   UNL     1      25.386  47.484  53.090  1.00  0.00     0.050 C 
BRANCH   5   7
HETATM    7  O   UNL     1      26.024  45.437  54.060  1.00  0.00    -0.335 OA
BRANCH   7   8
HETATM    8  C   UNL     1      27.227  44.878  54.400  1.00  0.00     0.091 A 
HETATM    9  C   UNL     1      28.078  45.657  55.206  1.00  0.00     0.069 A 
HETATM   10 CL   UNL     1      27.613  47.234  55.744  1.00  0.00    -0.081 Cl
HETATM   11  C   UNL     1      29.328  45.176  55.603  1.00  0.00     0.050 A 
HETATM   12  C   UNL     1      29.739  43.916  55.186  1.00  0.00     0.035 A 
HETATM   13 CL   UNL     1      31.279  43.316  55.665  1.00  0.00    -0.084 Cl
HETATM   14  C   UNL     1      28.915  43.137  54.377  1.00  0.00     0.026 A 
HETATM   15  C   UNL     1      27.661  43.617  53.983  1.00  0.00     0.040 A 
ENDBRANCH   7   8
ENDBRANCH   5   7
ENDBRANCH   2   5
BRANCH   1  16
HETATM   16  C   UNL     1      24.794  47.106  50.060  1.00  0.00     0.130 A 
HETATM   17  C   UNL     1      23.785  47.937  49.577  1.00  0.00     0.057 A 
HETATM   18  C   UNL     1      24.128  49.123  48.924  1.00  0.00    -0.057 A 
HETATM   19  C   UNL     1      23.077  50.062  48.413  1.00  0.00     0.048 C 
HETATM   20  C   UNL     1      25.479  49.427  48.769  1.00  0.00     0.033 A 
HETATM   21  C   UNL     1      26.428  48.543  49.266  1.00  0.00     0.033 A 
HETATM   22  N   UNL     1      26.096  47.395  49.904  1.00  0.00    -0.236 NA
HETATM   23  C   UNL     1      27.889  48.845  49.114  1.00  0.00     0.070 C 
ENDBRANCH   1  16
TORSDOF 4
ENDMDL
MODEL 6
REMARK VINA RESULT:      -7.5      3.073      6.140
REMARK  4 active torsions:
REMARK  status: ('A' for Active; 'I' for Inactive)
REMARK    1  A    between atoms: C_4  and  N_5 
REMARK       I    between atoms: N_5  and  C_6 
REMARK    2  A    between atoms: C_6  and  C_7 
REMARK    3  A    between atoms: C_7  and  O_8 
REMARK    4  A    between atoms: O_8  and  C_9 
ROOT
HETATM    1  N   UNL     1      26.929  41.155  52.346  1.00  0.00    -0.309 N 
HETATM    2  C   UNL     1      26.909  40.794  51.031  1.00  0.00     0.252 C 
HETATM    3  O   UNL     1      26.269  39.769  50.759  1.00  0.00    -0.270 OA
HETATM    4  H   UNL     1      26.450  40.483  52.929  1.00  0.00     0.170 HD
ENDROOT
BRANCH   2   5
HETATM    5  C   UNL     1      27.666  41.591  49.945  1.00  0.00     0.217 C 
HETATM    6  C   UNL     1      28.421  40.609  49.049  1.00  0.00     0.050 C 
BRANCH   5   7
HETATM    7  O   UNL     1      26.795  42.308  49.060  1.00  0.00    -0.335 OA
BRANCH   7   8
HETATM    8  C   UNL     1      26.320  43.536  49.436  1.00  0.00     0.091 A 
HETATM    9  C   UNL     1      24.926  43.657  49.578  1.00  0.00     0.069 A 
HETATM   10 CL   UNL     1      23.874  42.311  49.301  1.00  0.00    -0.081 Cl
HETATM   11  C   UNL     1      24.345  44.870  49.953  1.00  0.00     0.050 A 
HETATM   12  C   UNL     1      25.157  45.975  50.179  1.00  0.00     0.035 A 
HETATM   13 CL   UNL     1      24.452  47.476  50.637  1.00  0.00    -0.084 Cl
HETATM   14  C   UNL     1      26.539  45.878  50.029  1.00  0.00     0.026 A 
HETATM   15  C   UNL     1      27.120  44.661  49.658  1.00  0.00     0.040 A 
ENDBRANCH   7   8
ENDBRANCH   5   7
ENDBRANCH   2   5
BRANCH   1  16
HETATM   16  C   UNL     1      27.466  42.280  52.969  1.00  0.00     0.130 A 
HETATM   17  C   UNL     1      28.724  42.145  53.551  1.00  0.00     0.057 A 
HETATM   18  C   UNL     1      29.311  43.246  54.180  1.00  0.00    -0.057 A 
HETATM   19  C   UNL     1      30.675  43.155  54.794  1.00  0.00     0.048 C 
HETATM   20  C   UNL     1      28.603  44.446  54.211  1.00  0.00     0.033 A 
HETATM   21  C   UNL     1      27.347  44.500  53.621  1.00  0.00     0.033 A 
HETATM   22  N   UNL     1      26.780  43.434  53.006  1.00  0.00    -0.236 NA
HETATM   23  C   UNL     1      26.562  45.779  53.639  1.00  0.00     0.070 C 
ENDBRANCH   1  16
TORSDOF 4
ENDMDL
MODEL 7
REMARK VINA RESULT:      -7.5     12.277     14.635
REMARK  4 active torsions:
REMARK  status: ('A' for Active; 'I' for Inactive)
REMARK    1  A    between atoms: C_4  and  N_5 
REMARK       I    between atoms: N_5  and  C_6 
REMARK    2  A    between atoms: C_6  and  C_7 
REMARK    3  A    between atoms: C_7  and  O_8 
REMARK    4  A    between atoms: O_8  and  C_9 
ROOT
HETATM    1  N   UNL     1      27.962  47.948  42.018  1.00  0.00    -0.309 N 
HETATM    2  C   UNL     1      27.845  46.944  41.103  1.00  0.00     0.252 C 
HETATM    3  O   UNL     1      26.994  46.079  41.350  1.00  0.00    -0.270 OA
HETATM    4  H   UNL     1      27.354  47.805  42.813  1.00  0.00     0.170 HD
ENDROOT
BRANCH   2   5
HETATM    5  C   UNL     1      28.745  46.863  39.848  1.00  0.00     0.217 C 
HETATM    6  C   UNL     1      28.879  45.398  39.432  1.00  0.00     0.050 C 
BRANCH   5   7
HETATM    7  O   UNL     1      28.181  47.524  38.706  1.00  0.00    -0.335 OA
BRANCH   7   8
HETATM    8  C   UNL     1      28.388  48.867  38.541  1.00  0.00     0.091 A 
HETATM    9  C   UNL     1      27.241  49.664  38.371  1.00  0.00     0.069 A 
HETATM   10 CL   UNL     1      25.655  48.974  38.384  1.00  0.00    -0.081 Cl
HETATM   11  C   UNL     1      27.347  51.046  38.190  1.00  0.00     0.050 A 
HETATM   12  C   UNL     1      28.605  51.637  38.167  1.00  0.00     0.035 A 
HETATM   13 CL   UNL     1      28.749  53.336  37.940  1.00  0.00    -0.084 Cl
HETATM   14  C   UNL     1      29.752  50.860  38.320  1.00  0.00     0.026 A 
HETATM   15  C   UNL     1      29.645  49.477  38.506  1.00  0.00     0.040 A 
ENDBRANCH   7   8
ENDBRANCH   5   7
ENDBRANCH   2   5
BRANCH   1  16
HETATM   16  C   UNL     1      28.740  49.104  42.002  1.00  0.00     0.130 A 
HETATM   17  C   UNL     1      30.104  48.956  42.243  1.00  0.00     0.057 A 
HETATM   18  C   UNL     1      30.929  50.082  42.228  1.00  0.00    -0.057 A 
HETATM   19  C   UNL     1      32.407  49.968  42.455  1.00  0.00     0.048 C 
HETATM   20  C   UNL     1      30.350  51.325  41.980  1.00  0.00     0.033 A 
HETATM   21  C   UNL     1      28.979  51.396  41.761  1.00  0.00     0.033 A 
HETATM   22  N   UNL     1      28.180  50.302  41.770  1.00  0.00    -0.236 NA
HETATM   23  C   UNL     1      28.328  52.720  41.491  1.00  0.00     0.070 C 
ENDBRANCH   1  16
TORSDOF 4
ENDMDL
MODEL 8
REMARK VINA RESULT:      -7.4      2.178      4.370
REMARK  4 active torsions:
REMARK  status: ('A' for Active; 'I' for Inactive)
REMARK    1  A    between atoms: C_4  and  N_5 
REMARK       I    between atoms: N_5  and  C_6 
REMARK    2  A    between atoms: C_6  and  C_7 
REMARK    3  A    between atoms: C_7  and  O_8 
REMARK    4  A    between atoms: O_8  and  C_9 
ROOT
HETATM    1  N   UNL     1      27.255  41.709  49.939  1.00  0.00    -0.309 N 
HETATM    2  C   UNL     1      27.964  41.193  50.982  1.00  0.00     0.252 C 
HETATM    3  O   UNL     1      28.643  40.187  50.733  1.00  0.00    -0.270 OA
HETATM    4  H   UNL     1      27.349  41.147  49.104  1.00  0.00     0.170 HD
ENDROOT
BRANCH   2   5
HETATM    5  C   UNL     1      27.900  41.799  52.402  1.00  0.00     0.217 C 
HETATM    6  C   UNL     1      28.356  40.742  53.410  1.00  0.00     0.050 C 
BRANCH   5   7
HETATM    7  O   UNL     1      28.799  42.901  52.587  1.00  0.00    -0.335 OA
BRANCH   7   8
HETATM    8  C   UNL     1      28.385  43.989  53.307  1.00  0.00     0.091 A 
HETATM    9  C   UNL     1      29.149  44.323  54.440  1.00  0.00     0.069 A 
HETATM   10 CL   UNL     1      30.548  43.406  54.884  1.00  0.00    -0.081 Cl
HETATM   11  C   UNL     1      28.805  45.414  55.243  1.00  0.00     0.050 A 
HETATM   12  C   UNL     1      27.685  46.171  54.921  1.00  0.00     0.035 A 
HETATM   13 CL   UNL     1      27.249  47.514  55.905  1.00  0.00    -0.084 Cl
HETATM   14  C   UNL     1      26.909  45.847  53.811  1.00  0.00     0.026 A 
HETATM   15  C   UNL     1      27.257  44.757  53.005  1.00  0.00     0.040 A 
ENDBRANCH   7   8
ENDBRANCH   5   7
ENDBRANCH   2   5
BRANCH   1  16
HETATM   16  C   UNL     1      26.478  42.863  49.852  1.00  0.00     0.130 A 
HETATM   17  C   UNL     1      25.095  42.704  49.897  1.00  0.00     0.057 A 
HETATM   18  C   UNL     1      24.272  43.829  49.824  1.00  0.00    -0.057 A 
HETATM   19  C   UNL     1      22.779  43.709  49.898  1.00  0.00     0.048 C 
HETATM   20  C   UNL     1      24.871  45.081  49.698  1.00  0.00     0.033 A 
HETATM   21  C   UNL     1      26.257  45.160  49.647  1.00  0.00     0.033 A 
HETATM   22  N   UNL     1      27.056  44.069  49.723  1.00  0.00    -0.236 NA
HETATM   23  C   UNL     1      26.930  46.494  49.511  1.00  0.00     0.070 C 
ENDBRANCH   1  16
TORSDOF 4
ENDMDL
MODEL 9
REMARK VINA RESULT:      -7.4     12.826     14.970
REMARK  4 active torsions:
REMARK  status: ('A' for Active; 'I' for Inactive)
REMARK    1  A    between atoms: C_4  and  N_5 
REMARK       I    between atoms: N_5  and  C_6 
REMARK    2  A    between atoms: C_6  and  C_7 
REMARK    3  A    between atoms: C_7  and  O_8 
REMARK    4  A    between atoms: O_8  and  C_9 
ROOT
HETATM    1  N   UNL     1      28.956  47.529  39.122  1.00  0.00    -0.309 N 
HETATM    2  C   UNL     1      27.738  47.749  38.548  1.00  0.00     0.252 C 
HETATM    3  O   UNL     1      26.998  46.761  38.448  1.00  0.00    -0.270 OA
HETATM    4  H   UNL     1      29.098  46.552  39.339  1.00  0.00     0.170 HD
ENDROOT
BRANCH   2   5
HETATM    5  C   UNL     1      27.316  49.139  38.018  1.00  0.00     0.217 C 
HETATM    6  C   UNL     1      26.054  48.979  37.170  1.00  0.00     0.050 C 
BRANCH   5   7
HETATM    7  O   UNL     1      26.951  50.053  39.061  1.00  0.00    -0.335 OA
BRANCH   7   8
HETATM    8  C   UNL     1      27.797  51.083  39.375  1.00  0.00     0.091 A 
HETATM    9  C   UNL     1      28.197  51.182  40.720  1.00  0.00     0.069 A 
HETATM   10 CL   UNL     1      27.652  50.047  41.906  1.00  0.00    -0.081 Cl
HETATM   11  C   UNL     1      29.056  52.201  41.140  1.00  0.00     0.050 A 
HETATM   12  C   UNL     1      29.510  53.135  40.217  1.00  0.00     0.035 A 
HETATM   13 CL   UNL     1      30.564  54.397  40.725  1.00  0.00    -0.084 Cl
HETATM   14  C   UNL     1      29.113  53.060  38.884  1.00  0.00     0.026 A 
HETATM   15  C   UNL     1      28.257  52.037  38.462  1.00  0.00     0.040 A 
ENDBRANCH   7   8
ENDBRANCH   5   7
ENDBRANCH   2   5
BRANCH   1  16
HETATM   16  C   UNL     1      29.971  48.420  39.464  1.00  0.00     0.130 A 
HETATM   17  C   UNL     1      30.401  48.415  40.789  1.00  0.00     0.057 A 
HETATM   18  C   UNL     1      31.424  49.281  41.183  1.00  0.00    -0.057 A 
HETATM   19  C   UNL     1      31.938  49.291  42.591  1.00  0.00     0.048 C 
HETATM   20  C   UNL     1      31.974  50.134  40.227  1.00  0.00     0.033 A 
HETATM   21  C   UNL     1      31.484  50.090  38.927  1.00  0.00     0.033 A 
HETATM   22  N   UNL     1      30.496  49.246  38.545  1.00  0.00    -0.236 NA
HETATM   23  C   UNL     1      32.058  50.995  37.877  1.00  0.00     0.070 C 
ENDBRANCH   1  16
TORSDOF 4
ENDMDL
MODEL 10
REMARK VINA RESULT:      -7.4      7.895     10.466
REMARK  4 active torsions:
REMARK  status: ('A' for Active; 'I' for Inactive)
REMARK    1  A    between atoms: C_4  and  N_5 
REMARK       I    between atoms: N_5  and  C_6 
REMARK    2  A    between atoms: C_6  and  C_7 
REMARK    3  A    between atoms: C_7  and  O_8 
REMARK    4  A    between atoms: O_8  and  C_9 
ROOT
HETATM    1  N   UNL     1      24.580  48.439  48.764  1.00  0.00    -0.309 N 
HETATM    2  C   UNL     1      23.563  49.286  48.434  1.00  0.00     0.252 C 
HETATM    3  O   UNL     1      23.732  49.964  47.411  1.00  0.00    -0.270 OA
HETATM    4  H   UNL     1      25.366  48.531  48.136  1.00  0.00     0.170 HD
ENDROOT
BRANCH   2   5
HETATM    5  C   UNL     1      22.291  49.424  49.299  1.00  0.00     0.217 C 
HETATM    6  C   UNL     1      22.303  50.794  49.979  1.00  0.00     0.050 C 
BRANCH   5   7
HETATM    7  O   UNL     1      21.080  49.401  48.531  1.00  0.00    -0.335 OA
BRANCH   7   8
HETATM    8  C   UNL     1      20.103  50.323  48.794  1.00  0.00     0.091 A 
HETATM    9  C   UNL     1      19.060  49.911  49.644  1.00  0.00     0.069 A 
HETATM   10 CL   UNL     1      19.031  48.322  50.327  1.00  0.00    -0.081 Cl
HETATM   11  C   UNL     1      18.013  50.778  49.969  1.00  0.00     0.050 A 
HETATM   12  C   UNL     1      17.999  52.061  49.435  1.00  0.00     0.035 A 
HETATM   13 CL   UNL     1      16.713  53.136  49.824  1.00  0.00    -0.084 Cl
HETATM   14  C   UNL     1      19.016  52.481  48.580  1.00  0.00     0.026 A 
HETATM   15  C   UNL     1      20.066  51.614  48.259  1.00  0.00     0.040 A 
ENDBRANCH   7   8
ENDBRANCH   5   7
ENDBRANCH   2   5
BRANCH   1  16
HETATM   16  C   UNL     1      24.674  47.488  49.778  1.00  0.00     0.130 A 
HETATM   17  C   UNL     1      24.140  46.227  49.519  1.00  0.00     0.057 A 
HETATM   18  C   UNL     1      24.217  45.234  50.498  1.00  0.00    -0.057 A 
HETATM   19  C   UNL     1      23.682  43.856  50.252  1.00  0.00     0.048 C 
HETATM   20  C   UNL     1      24.822  45.549  51.713  1.00  0.00     0.033 A 
HETATM   21  C   UNL     1      25.320  46.832  51.904  1.00  0.00     0.033 A 
HETATM   22  N   UNL     1      25.250  47.793  50.952  1.00  0.00    -0.236 NA
HETATM   23  C   UNL     1      25.977  47.198  53.202  1.00  0.00     0.070 C 
ENDBRANCH   1  16
TORSDOF 4
ENDMDL
