MODEL 1
REMARK VINA RESULT:     -10.0      0.000      0.000
REMARK  5 active torsions:
REMARK  status: ('A' for Active; 'I' for Inactive)
REMARK    1  A    between atoms: C_9  and  N_10 
REMARK       I    between atoms: N_10  and  C_11 
REMARK    2  A    between atoms: C_11  and  C_12 
REMARK    3  A    between atoms: C_15  and  O_16 
REMARK    4  A    between atoms: O_16  and  C_17 
REMARK    5  A    between atoms: C_17  and  C_18 
ROOT
HETATM    1  C   UNL     1      28.433  44.196  54.580  1.00  0.00    -0.013 A 
HETATM    2  C   UNL     1      28.820  45.311  55.350  1.00  0.00     0.053 A 
HETATM    3  C   UNL     1      27.981  46.471  55.470  1.00  0.00     0.100 C 
HETATM    4  N   UNL     1      27.311  47.415  55.560  1.00  0.00    -0.191 NA
HETATM    5  C   UNL     1      30.053  45.307  56.017  1.00  0.00     0.023 A 
HETATM    6  C   UNL     1      30.905  44.206  55.923  1.00  0.00     0.002 A 
HETATM    7  C   UNL     1      30.531  43.102  55.163  1.00  0.00     0.001 A 
HETATM    8  C   UNL     1      29.304  43.095  54.496  1.00  0.00     0.011 A 
ENDROOT
BRANCH   1   9
HETATM    9  C   UNL     1      27.118  44.158  53.831  1.00  0.00     0.216 C 
BRANCH   9  10
HETATM   10  O   UNL     1      27.390  44.150  52.431  1.00  0.00    -0.347 OA
BRANCH  10  11
HETATM   11  C   UNL     1      26.767  45.110  51.683  1.00  0.00     0.069 A 
HETATM   12  C   UNL     1      26.749  45.168  50.292  1.00  0.00     0.038 A 
HETATM   13  C   UNL     1      26.039  46.185  49.644  1.00  0.00     0.020 A 
HETATM   14  C   UNL     1      25.333  47.144  50.382  1.00  0.00     0.032 A 
HETATM   15  C   UNL     1      25.373  47.101  51.780  1.00  0.00     0.020 A 
HETATM   16  C   UNL     1      26.080  46.078  52.422  1.00  0.00     0.038 A 
BRANCH  14  17
HETATM   17  C   UNL     1      24.553  48.166  49.627  1.00  0.00     0.256 C 
HETATM   18  N   UNL     1      23.179  48.121  49.804  1.00  0.00    -0.323 N 
HETATM   19  H   UNL     1      22.819  47.405  50.422  1.00  0.00     0.169 HD
HETATM   20  O   UNL     1      25.157  48.919  48.871  1.00  0.00    -0.267 OA
BRANCH  18  21
HETATM   21  C   UNL     1      22.210  48.871  49.102  1.00  0.00     0.035 A 
HETATM   22  C   UNL     1      21.305  48.309  48.199  1.00  0.00     0.039 A 
HETATM   23  C   UNL     1      20.342  49.121  47.618  1.00  0.00    -0.022 A 
HETATM   24  C   UNL     1      19.246  48.713  46.696  1.00  0.00     0.274 C 
HETATM   25  C   UNL     1      20.269  50.483  47.907  1.00  0.00    -0.025 A 
HETATM   26  N   UNL     1      18.593  50.021  46.265  1.00  0.00    -0.067 N 
HETATM   27  C   UNL     1      17.112  49.955  46.155  1.00  0.00     0.270 C 
HETATM   28  H   UNL     1      18.985  50.238  45.340  1.00  0.00     0.280 HD
HETATM   29  C   UNL     1      19.109  51.103  47.207  1.00  0.00     0.273 C 
HETATM   30  C   UNL     1      21.171  51.067  48.780  1.00  0.00     0.012 A 
HETATM   31  C   UNL     1      22.144  50.253  49.373  1.00  0.00     0.030 A 
ENDBRANCH  18  21
ENDBRANCH  14  17
ENDBRANCH  10  11
ENDBRANCH   9  10
ENDBRANCH   1   9
TORSDOF 5
ENDMDL
MODEL 2
REMARK VINA RESULT:      -9.7      1.359      1.857
REMARK  5 active torsions:
REMARK  status: ('A' for Active; 'I' for Inactive)
REMARK    1  A    between atoms: C_9  and  N_10 
REMARK       I    between atoms: N_10  and  C_11 
REMARK    2  A    between atoms: C_11  and  C_12 
REMARK    3  A    between atoms: C_15  and  O_16 
REMARK    4  A    between atoms: O_16  and  C_17 
REMARK    5  A    between atoms: C_17  and  C_18 
ROOT
HETATM    1  C   UNL     1      28.351  44.141  54.454  1.00  0.00    -0.013 A 
HETATM    2  C   UNL     1      29.255  43.060  54.446  1.00  0.00     0.053 A 
HETATM    3  C   UNL     1      28.993  41.865  53.692  1.00  0.00     0.100 C 
HETATM    4  N   UNL     1      28.780  40.894  53.092  1.00  0.00    -0.191 NA
HETATM    5  C   UNL     1      30.440  43.133  55.192  1.00  0.00     0.023 A 
HETATM    6  C   UNL     1      30.732  44.269  55.946  1.00  0.00     0.002 A 
HETATM    7  C   UNL     1      29.843  45.340  55.960  1.00  0.00     0.001 A 
HETATM    8  C   UNL     1      28.662  45.279  55.220  1.00  0.00     0.011 A 
ENDROOT
BRANCH   1   9
HETATM    9  C   UNL     1      27.053  44.104  53.674  1.00  0.00     0.216 C 
BRANCH   9  10
HETATM   10  O   UNL     1      27.355  44.164  52.281  1.00  0.00    -0.347 OA
BRANCH  10  11
HETATM   11  C   UNL     1      26.716  45.134  51.560  1.00  0.00     0.069 A 
HETATM   12  C   UNL     1      26.653  45.201  50.170  1.00  0.00     0.038 A 
HETATM   13  C   UNL     1      25.930  46.227  49.553  1.00  0.00     0.020 A 
HETATM   14  C   UNL     1      25.257  47.188  50.318  1.00  0.00     0.032 A 
HETATM   15  C   UNL     1      25.342  47.136  51.714  1.00  0.00     0.020 A 
HETATM   16  C   UNL     1      26.062  46.103  52.327  1.00  0.00     0.038 A 
BRANCH  14  17
HETATM   17  C   UNL     1      24.462  48.221  49.596  1.00  0.00     0.256 C 
HETATM   18  N   UNL     1      23.087  48.137  49.757  1.00  0.00    -0.323 N 
HETATM   19  H   UNL     1      22.737  47.390  50.343  1.00  0.00     0.169 HD
HETATM   20  O   UNL     1      25.055  49.016  48.876  1.00  0.00    -0.267 OA
BRANCH  18  21
HETATM   21  C   UNL     1      22.108  48.893  49.074  1.00  0.00     0.035 A 
HETATM   22  C   UNL     1      21.186  48.336  48.185  1.00  0.00     0.039 A 
HETATM   23  C   UNL     1      20.215  49.153  47.624  1.00  0.00    -0.022 A 
HETATM   24  C   UNL     1      19.102  48.750  46.720  1.00  0.00     0.274 C 
HETATM   25  C   UNL     1      20.151  50.514  47.919  1.00  0.00    -0.025 A 
HETATM   26  N   UNL     1      18.445  50.062  46.304  1.00  0.00    -0.067 N 
HETATM   27  C   UNL     1      16.963  50.000  46.220  1.00  0.00     0.270 C 
HETATM   28  H   UNL     1      18.822  50.281  45.374  1.00  0.00     0.280 HD
HETATM   29  C   UNL     1      18.981  51.139  47.241  1.00  0.00     0.273 C 
HETATM   30  C   UNL     1      21.069  51.093  48.778  1.00  0.00     0.012 A 
HETATM   31  C   UNL     1      22.050  50.274  49.352  1.00  0.00     0.030 A 
ENDBRANCH  18  21
ENDBRANCH  14  17
ENDBRANCH  10  11
ENDBRANCH   9  10
ENDBRANCH   1   9
TORSDOF 5
ENDMDL
MODEL 3
REMARK VINA RESULT:      -9.0      1.798      2.547
REMARK  5 active torsions:
REMARK  status: ('A' for Active; 'I' for Inactive)
REMARK    1  A    between atoms: C_9  and  N_10 
REMARK       I    between atoms: N_10  and  C_11 
REMARK    2  A    between atoms: C_11  and  C_12 
REMARK    3  A    between atoms: C_15  and  O_16 
REMARK    4  A    between atoms: O_16  and  C_17 
REMARK    5  A    between atoms: C_17  and  C_18 
ROOT
HETATM    1  C   UNL     1      27.877  43.902  52.541  1.00  0.00    -0.013 A 
HETATM    2  C   UNL     1      27.732  44.491  53.813  1.00  0.00     0.053 A 
HETATM    3  C   UNL     1      26.597  45.309  54.139  1.00  0.00     0.100 C 
HETATM    4  N   UNL     1      25.685  45.979  54.402  1.00  0.00    -0.191 NA
HETATM    5  C   UNL     1      28.714  44.290  54.794  1.00  0.00     0.023 A 
HETATM    6  C   UNL     1      29.838  43.511  54.520  1.00  0.00     0.002 A 
HETATM    7  C   UNL     1      29.990  42.928  53.266  1.00  0.00     0.001 A 
HETATM    8  C   UNL     1      29.017  43.120  52.283  1.00  0.00     0.011 A 
ENDROOT
BRANCH   1   9
HETATM    9  C   UNL     1      26.851  44.100  51.446  1.00  0.00     0.216 C 
BRANCH   9  10
HETATM   10  O   UNL     1      27.097  45.354  50.811  1.00  0.00    -0.347 OA
BRANCH  10  11
HETATM   11  C   UNL     1      26.004  46.023  50.339  1.00  0.00     0.069 A 
HETATM   12  C   UNL     1      25.913  47.401  50.155  1.00  0.00     0.038 A 
HETATM   13  C   UNL     1      24.746  47.960  49.625  1.00  0.00     0.020 A 
HETATM   14  C   UNL     1      23.664  47.147  49.265  1.00  0.00     0.032 A 
HETATM   15  C   UNL     1      23.744  45.765  49.473  1.00  0.00     0.020 A 
HETATM   16  C   UNL     1      24.917  45.211  49.999  1.00  0.00     0.038 A 
BRANCH  14  17
HETATM   17  C   UNL     1      22.472  47.804  48.655  1.00  0.00     0.256 C 
HETATM   18  N   UNL     1      21.541  48.302  49.553  1.00  0.00    -0.323 N 
HETATM   19  H   UNL     1      21.739  48.179  50.538  1.00  0.00     0.169 HD
HETATM   20  O   UNL     1      22.368  47.805  47.434  1.00  0.00    -0.267 OA
BRANCH  18  21
HETATM   21  C   UNL     1      20.269  48.833  49.245  1.00  0.00     0.035 A 
HETATM   22  C   UNL     1      20.076  50.093  48.673  1.00  0.00     0.039 A 
HETATM   23  C   UNL     1      18.791  50.491  48.338  1.00  0.00    -0.022 A 
HETATM   24  C   UNL     1      18.379  51.750  47.657  1.00  0.00     0.274 C 
HETATM   25  C   UNL     1      17.691  49.667  48.572  1.00  0.00    -0.025 A 
HETATM   26  N   UNL     1      16.854  51.721  47.678  1.00  0.00    -0.067 N 
HETATM   27  C   UNL     1      16.220  52.233  46.435  1.00  0.00     0.270 C 
HETATM   28  H   UNL     1      16.574  52.320  48.464  1.00  0.00     0.280 HD
HETATM   29  C   UNL     1      16.445  50.303  48.059  1.00  0.00     0.273 C 
HETATM   30  C   UNL     1      17.853  48.425  49.160  1.00  0.00     0.012 A 
HETATM   31  C   UNL     1      19.149  48.014  49.497  1.00  0.00     0.030 A 
ENDBRANCH  18  21
ENDBRANCH  14  17
ENDBRANCH  10  11
ENDBRANCH   9  10
ENDBRANCH   1   9
TORSDOF 5
ENDMDL
MODEL 4
REMARK VINA RESULT:      -8.9      2.809      3.784
REMARK  5 active torsions:
REMARK  status: ('A' for Active; 'I' for Inactive)
REMARK    1  A    between atoms: C_9  and  N_10 
REMARK       I    between atoms: N_10  and  C_11 
REMARK    2  A    between atoms: C_11  and  C_12 
REMARK    3  A    between atoms: C_15  and  O_16 
REMARK    4  A    between atoms: O_16  and  C_17 
REMARK    5  A    between atoms: C_17  and  C_18 
ROOT
HETATM    1  C   UNL     1      29.813  45.218  55.960  1.00  0.00    -0.013 A 
HETATM    2  C   UNL     1      30.345  44.007  55.475  1.00  0.00     0.053 A 
HETATM    3  C   UNL     1      30.046  43.527  54.154  1.00  0.00     0.100 C 
HETATM    4  N   UNL     1      29.797  43.132  53.091  1.00  0.00    -0.191 NA
HETATM    5  C   UNL     1      31.184  43.234  56.291  1.00  0.00     0.023 A 
HETATM    6  C   UNL     1      31.496  43.655  57.584  1.00  0.00     0.002 A 
HETATM    7  C   UNL     1      30.972  44.850  58.071  1.00  0.00     0.001 A 
HETATM    8  C   UNL     1      30.138  45.627  57.266  1.00  0.00     0.011 A 
ENDROOT
BRANCH   1   9
HETATM    9  C   UNL     1      28.893  46.080  55.121  1.00  0.00     0.216 C 
BRANCH   9  10
HETATM   10  O   UNL     1      27.593  45.492  55.119  1.00  0.00    -0.347 OA
BRANCH  10  11
HETATM   11  C   UNL     1      26.806  45.758  54.035  1.00  0.00     0.069 A 
HETATM   12  C   UNL     1      26.334  47.016  53.664  1.00  0.00     0.038 A 
HETATM   13  C   UNL     1      25.566  47.161  52.504  1.00  0.00     0.020 A 
HETATM   14  C   UNL     1      25.271  46.052  51.700  1.00  0.00     0.032 A 
HETATM   15  C   UNL     1      25.723  44.785  52.085  1.00  0.00     0.020 A 
HETATM   16  C   UNL     1      26.495  44.647  53.244  1.00  0.00     0.038 A 
BRANCH  14  17
HETATM   17  C   UNL     1      24.494  46.287  50.450  1.00  0.00     0.256 C 
HETATM   18  N   UNL     1      23.688  45.236  50.041  1.00  0.00    -0.323 N 
HETATM   19  H   UNL     1      23.692  44.403  50.615  1.00  0.00     0.169 HD
HETATM   20  O   UNL     1      24.663  47.342  49.848  1.00  0.00    -0.267 OA
BRANCH  18  21
HETATM   21  C   UNL     1      22.969  45.143  48.829  1.00  0.00     0.035 A 
HETATM   22  C   UNL     1      21.792  45.850  48.572  1.00  0.00     0.039 A 
HETATM   23  C   UNL     1      21.205  45.748  47.320  1.00  0.00    -0.022 A 
HETATM   24  C   UNL     1      20.002  46.469  46.821  1.00  0.00     0.274 C 
HETATM   25  C   UNL     1      21.756  44.946  46.322  1.00  0.00    -0.025 A 
HETATM   26  N   UNL     1      19.729  45.866  45.447  1.00  0.00    -0.067 N 
HETATM   27  C   UNL     1      19.289  46.852  44.426  1.00  0.00     0.270 C 
HETATM   28  H   UNL     1      18.980  45.177  45.587  1.00  0.00     0.280 HD
HETATM   29  C   UNL     1      20.971  45.068  45.062  1.00  0.00     0.273 C 
HETATM   30  C   UNL     1      22.907  44.216  46.560  1.00  0.00     0.012 A 
HETATM   31  C   UNL     1      23.509  44.317  47.821  1.00  0.00     0.030 A 
ENDBRANCH  18  21
ENDBRANCH  14  17
ENDBRANCH  10  11
ENDBRANCH   9  10
ENDBRANCH   1   9
TORSDOF 5
ENDMDL
MODEL 5
REMARK VINA RESULT:      -8.6     18.714     22.944
REMARK  5 active torsions:
REMARK  status: ('A' for Active; 'I' for Inactive)
REMARK    1  A    between atoms: C_9  and  N_10 
REMARK       I    between atoms: N_10  and  C_11 
REMARK    2  A    between atoms: C_11  and  C_12 
REMARK    3  A    between atoms: C_15  and  O_16 
REMARK    4  A    between atoms: O_16  and  C_17 
REMARK    5  A    between atoms: C_17  and  C_18 
ROOT
HETATM    1  C   UNL     1      36.502  46.913  65.113  1.00  0.00    -0.013 A 
HETATM    2  C   UNL     1      36.468  47.191  66.494  1.00  0.00     0.053 A 
HETATM    3  C   UNL     1      35.936  46.247  67.439  1.00  0.00     0.100 C 
HETATM    4  N   UNL     1      35.498  45.492  68.204  1.00  0.00    -0.191 NA
HETATM    5  C   UNL     1      36.954  48.415  66.975  1.00  0.00     0.023 A 
HETATM    6  C   UNL     1      37.472  49.365  66.094  1.00  0.00     0.002 A 
HETATM    7  C   UNL     1      37.507  49.099  64.728  1.00  0.00     0.001 A 
HETATM    8  C   UNL     1      37.027  47.883  64.240  1.00  0.00     0.011 A 
ENDROOT
BRANCH   1   9
HETATM    9  C   UNL     1      35.977  45.611  64.545  1.00  0.00     0.216 C 
BRANCH   9  10
HETATM   10  O   UNL     1      36.814  45.216  63.460  1.00  0.00    -0.347 OA
BRANCH  10  11
HETATM   11  C   UNL     1      37.402  43.987  63.560  1.00  0.00     0.069 A 
HETATM   12  C   UNL     1      36.971  42.947  64.380  1.00  0.00     0.038 A 
HETATM   13  C   UNL     1      37.640  41.719  64.362  1.00  0.00     0.020 A 
HETATM   14  C   UNL     1      38.739  41.517  63.516  1.00  0.00     0.032 A 
HETATM   15  C   UNL     1      39.188  42.570  62.711  1.00  0.00     0.020 A 
HETATM   16  C   UNL     1      38.511  43.795  62.731  1.00  0.00     0.038 A 
BRANCH  14  17
HETATM   17  C   UNL     1      39.371  40.167  63.507  1.00  0.00     0.256 C 
HETATM   18  N   UNL     1      39.789  39.695  64.743  1.00  0.00    -0.323 N 
HETATM   19  H   UNL     1      39.636  40.297  65.541  1.00  0.00     0.169 HD
HETATM   20  O   UNL     1      39.532  39.605  62.430  1.00  0.00    -0.267 OA
BRANCH  18  21
HETATM   21  C   UNL     1      40.540  38.525  64.991  1.00  0.00     0.035 A 
HETATM   22  C   UNL     1      41.828  38.314  64.492  1.00  0.00     0.039 A 
HETATM   23  C   UNL     1      42.511  37.164  64.857  1.00  0.00    -0.022 A 
HETATM   24  C   UNL     1      43.907  36.786  64.502  1.00  0.00     0.274 C 
HETATM   25  C   UNL     1      41.935  36.212  65.697  1.00  0.00    -0.025 A 
HETATM   26  N   UNL     1      44.077  35.371  65.045  1.00  0.00    -0.067 N 
HETATM   27  C   UNL     1      45.412  35.105  65.643  1.00  0.00     0.270 C 
HETATM   28  H   UNL     1      43.942  34.745  64.242  1.00  0.00     0.280 HD
HETATM   29  C   UNL     1      42.902  35.115  65.983  1.00  0.00     0.273 C 
HETATM   30  C   UNL     1      40.651  36.386  66.183  1.00  0.00     0.012 A 
HETATM   31  C   UNL     1      39.956  37.548  65.822  1.00  0.00     0.030 A 
ENDBRANCH  18  21
ENDBRANCH  14  17
ENDBRANCH  10  11
ENDBRANCH   9  10
ENDBRANCH   1   9
TORSDOF 5
ENDMDL
MODEL 6
REMARK VINA RESULT:      -8.6      2.392     11.113
REMARK  5 active torsions:
REMARK  status: ('A' for Active; 'I' for Inactive)
REMARK    1  A    between atoms: C_9  and  N_10 
REMARK       I    between atoms: N_10  and  C_11 
REMARK    2  A    between atoms: C_11  and  C_12 
REMARK    3  A    between atoms: C_15  and  O_16 
REMARK    4  A    between atoms: O_16  and  C_17 
REMARK    5  A    between atoms: C_17  and  C_18 
ROOT
HETATM    1  C   UNL     1      18.067  51.313  48.106  1.00  0.00    -0.013 A 
HETATM    2  C   UNL     1      16.740  50.942  47.809  1.00  0.00     0.053 A 
HETATM    3  C   UNL     1      16.434  50.030  46.742  1.00  0.00     0.100 C 
HETATM    4  N   UNL     1      16.182  49.301  45.873  1.00  0.00    -0.191 NA
HETATM    5  C   UNL     1      15.681  51.472  48.559  1.00  0.00     0.023 A 
HETATM    6  C   UNL     1      15.929  52.368  49.599  1.00  0.00     0.002 A 
HETATM    7  C   UNL     1      17.236  52.740  49.897  1.00  0.00     0.001 A 
HETATM    8  C   UNL     1      18.299  52.217  49.158  1.00  0.00     0.011 A 
ENDROOT
BRANCH   1   9
HETATM    9  C   UNL     1      19.243  50.777  47.316  1.00  0.00     0.216 C 
BRANCH   9  10
HETATM   10  O   UNL     1      20.441  51.346  47.841  1.00  0.00    -0.347 OA
BRANCH  10  11
HETATM   11  C   UNL     1      21.359  50.471  48.349  1.00  0.00     0.069 A 
HETATM   12  C   UNL     1      21.107  49.148  48.707  1.00  0.00     0.038 A 
HETATM   13  C   UNL     1      22.147  48.342  49.180  1.00  0.00     0.020 A 
HETATM   14  C   UNL     1      23.449  48.846  49.290  1.00  0.00     0.032 A 
HETATM   15  C   UNL     1      23.698  50.182  48.956  1.00  0.00     0.020 A 
HETATM   16  C   UNL     1      22.654  50.983  48.478  1.00  0.00     0.038 A 
BRANCH  14  17
HETATM   17  C   UNL     1      24.519  47.916  49.750  1.00  0.00     0.256 C 
HETATM   18  N   UNL     1      24.125  46.966  50.681  1.00  0.00    -0.323 N 
HETATM   19  H   UNL     1      23.156  46.982  50.972  1.00  0.00     0.169 HD
HETATM   20  O   UNL     1      25.659  48.087  49.334  1.00  0.00    -0.267 OA
BRANCH  18  21
HETATM   21  C   UNL     1      24.963  46.070  51.381  1.00  0.00     0.035 A 
HETATM   22  C   UNL     1      25.175  44.746  50.989  1.00  0.00     0.039 A 
HETATM   23  C   UNL     1      26.077  43.970  51.702  1.00  0.00    -0.022 A 
HETATM   24  C   UNL     1      26.501  42.572  51.409  1.00  0.00     0.274 C 
HETATM   25  C   UNL     1      26.763  44.479  52.803  1.00  0.00    -0.025 A 
HETATM   26  N   UNL     1      27.385  42.180  52.588  1.00  0.00    -0.067 N 
HETATM   27  C   UNL     1      28.570  41.364  52.214  1.00  0.00     0.270 C 
HETATM   28  H   UNL     1      26.786  41.628  53.215  1.00  0.00     0.280 HD
HETATM   29  C   UNL     1      27.713  43.465  53.340  1.00  0.00     0.273 C 
HETATM   30  C   UNL     1      26.551  45.780  53.225  1.00  0.00     0.012 A 
HETATM   31  C   UNL     1      25.645  46.571  52.508  1.00  0.00     0.030 A 
ENDBRANCH  18  21
ENDBRANCH  14  17
ENDBRANCH  10  11
ENDBRANCH   9  10
ENDBRANCH   1   9
TORSDOF 5
ENDMDL
MODEL 7
REMARK VINA RESULT:      -8.5      2.046      2.623
REMARK  5 active torsions:
REMARK  status: ('A' for Active; 'I' for Inactive)
REMARK    1  A    between atoms: C_9  and  N_10 
REMARK       I    between atoms: N_10  and  C_11 
REMARK    2  A    between atoms: C_11  and  C_12 
REMARK    3  A    between atoms: C_15  and  O_16 
REMARK    4  A    between atoms: O_16  and  C_17 
REMARK    5  A    between atoms: C_17  and  C_18 
ROOT
HETATM    1  C   UNL     1      28.489  44.507  54.815  1.00  0.00    -0.013 A 
HETATM    2  C   UNL     1      29.243  43.343  54.569  1.00  0.00     0.053 A 
HETATM    3  C   UNL     1      28.748  42.290  53.724  1.00  0.00     0.100 C 
HETATM    4  N   UNL     1      28.347  41.433  53.051  1.00  0.00    -0.191 NA
HETATM    5  C   UNL     1      30.506  43.188  55.158  1.00  0.00     0.023 A 
HETATM    6  C   UNL     1      31.024  44.180  55.992  1.00  0.00     0.002 A 
HETATM    7  C   UNL     1      30.284  45.332  56.242  1.00  0.00     0.001 A 
HETATM    8  C   UNL     1      29.027  45.497  55.658  1.00  0.00     0.011 A 
ENDROOT
BRANCH   1   9
HETATM    9  C   UNL     1      27.116  44.714  54.212  1.00  0.00     0.216 C 
BRANCH   9  10
HETATM   10  O   UNL     1      27.181  45.803  53.292  1.00  0.00    -0.347 OA
BRANCH  10  11
HETATM   11  C   UNL     1      26.231  45.828  52.310  1.00  0.00     0.069 A 
HETATM   12  C   UNL     1      25.436  44.752  51.923  1.00  0.00     0.038 A 
HETATM   13  C   UNL     1      24.469  44.919  50.927  1.00  0.00     0.020 A 
HETATM   14  C   UNL     1      24.281  46.166  50.316  1.00  0.00     0.032 A 
HETATM   15  C   UNL     1      25.097  47.241  50.686  1.00  0.00     0.020 A 
HETATM   16  C   UNL     1      26.060  47.069  51.687  1.00  0.00     0.038 A 
BRANCH  14  17
HETATM   17  C   UNL     1      23.197  46.287  49.301  1.00  0.00     0.256 C 
HETATM   18  N   UNL     1      22.409  47.424  49.400  1.00  0.00    -0.323 N 
HETATM   19  H   UNL     1      22.629  48.072  50.146  1.00  0.00     0.169 HD
HETATM   20  O   UNL     1      23.037  45.367  48.506  1.00  0.00    -0.267 OA
BRANCH  18  21
HETATM   21  C   UNL     1      21.238  47.708  48.665  1.00  0.00     0.035 A 
HETATM   22  C   UNL     1      20.116  48.336  49.212  1.00  0.00     0.039 A 
HETATM   23  C   UNL     1      19.045  48.639  48.386  1.00  0.00    -0.022 A 
HETATM   24  C   UNL     1      17.797  49.367  48.748  1.00  0.00     0.274 C 
HETATM   25  C   UNL     1      19.060  48.319  47.029  1.00  0.00    -0.025 A 
HETATM   26  N   UNL     1      16.923  49.284  47.501  1.00  0.00    -0.067 N 
HETATM   27  C   UNL     1      16.158  50.525  47.210  1.00  0.00     0.270 C 
HETATM   28  H   UNL     1      16.260  48.519  47.675  1.00  0.00     0.280 HD
HETATM   29  C   UNL     1      17.822  48.814  46.363  1.00  0.00     0.273 C 
HETATM   30  C   UNL     1      20.149  47.674  46.469  1.00  0.00     0.012 A 
HETATM   31  C   UNL     1      21.237  47.368  47.297  1.00  0.00     0.030 A 
ENDBRANCH  18  21
ENDBRANCH  14  17
ENDBRANCH  10  11
ENDBRANCH   9  10
ENDBRANCH   1   9
TORSDOF 5
ENDMDL
MODEL 8
REMARK VINA RESULT:      -8.5      2.119     10.759
REMARK  5 active torsions:
REMARK  status: ('A' for Active; 'I' for Inactive)
REMARK    1  A    between atoms: C_9  and  N_10 
REMARK       I    between atoms: N_10  and  C_11 
REMARK    2  A    between atoms: C_11  and  C_12 
REMARK    3  A    between atoms: C_15  and  O_16 
REMARK    4  A    between atoms: O_16  and  C_17 
REMARK    5  A    between atoms: C_17  and  C_18 
ROOT
HETATM    1  C   UNL     1      19.066  50.672  48.082  1.00  0.00    -0.013 A 
HETATM    2  C   UNL     1      18.004  50.021  48.741  1.00  0.00     0.053 A 
HETATM    3  C   UNL     1      17.798  48.604  48.619  1.00  0.00     0.100 C 
HETATM    4  N   UNL     1      17.623  47.461  48.514  1.00  0.00    -0.191 NA
HETATM    5  C   UNL     1      17.114  50.759  49.533  1.00  0.00     0.023 A 
HETATM    6  C   UNL     1      17.269  52.138  49.674  1.00  0.00     0.002 A 
HETATM    7  C   UNL     1      18.314  52.789  49.025  1.00  0.00     0.001 A 
HETATM    8  C   UNL     1      19.207  52.063  48.235  1.00  0.00     0.011 A 
ENDROOT
BRANCH   1   9
HETATM    9  C   UNL     1      20.045  49.920  47.205  1.00  0.00     0.216 C 
BRANCH   9  10
HETATM   10  O   UNL     1      21.352  50.451  47.421  1.00  0.00    -0.347 OA
BRANCH  10  11
HETATM   11  C   UNL     1      22.251  49.625  48.034  1.00  0.00     0.069 A 
HETATM   12  C   UNL     1      23.578  49.941  48.320  1.00  0.00     0.038 A 
HETATM   13  C   UNL     1      24.387  49.017  48.989  1.00  0.00     0.020 A 
HETATM   14  C   UNL     1      23.875  47.776  49.388  1.00  0.00     0.032 A 
HETATM   15  C   UNL     1      22.550  47.448  49.078  1.00  0.00     0.020 A 
HETATM   16  C   UNL     1      21.743  48.378  48.413  1.00  0.00     0.038 A 
BRANCH  14  17
HETATM   17  C   UNL     1      24.777  46.862  50.145  1.00  0.00     0.256 C 
HETATM   18  N   UNL     1      24.928  47.153  51.493  1.00  0.00    -0.323 N 
HETATM   19  H   UNL     1      24.423  47.954  51.850  1.00  0.00     0.169 HD
HETATM   20  O   UNL     1      25.358  45.975  49.531  1.00  0.00    -0.267 OA
BRANCH  18  21
HETATM   21  C   UNL     1      25.828  46.543  52.394  1.00  0.00     0.035 A 
HETATM   22  C   UNL     1      26.497  45.346  52.126  1.00  0.00     0.039 A 
HETATM   23  C   UNL     1      27.418  44.869  53.045  1.00  0.00    -0.022 A 
HETATM   24  C   UNL     1      28.286  43.665  52.920  1.00  0.00     0.274 C 
HETATM   25  C   UNL     1      27.679  45.550  54.233  1.00  0.00    -0.025 A 
HETATM   26  N   UNL     1      28.981  43.544  54.272  1.00  0.00    -0.067 N 
HETATM   27  C   UNL     1      30.404  43.123  54.189  1.00  0.00     0.270 C 
HETATM   28  H   UNL     1      28.454  42.833  54.795  1.00  0.00     0.280 HD
HETATM   29  C   UNL     1      28.752  44.862  55.004  1.00  0.00     0.273 C 
HETATM   30  C   UNL     1      27.011  46.725  54.533  1.00  0.00     0.012 A 
HETATM   31  C   UNL     1      26.081  47.215  53.607  1.00  0.00     0.030 A 
ENDBRANCH  18  21
ENDBRANCH  14  17
ENDBRANCH  10  11
ENDBRANCH   9  10
ENDBRANCH   1   9
TORSDOF 5
ENDMDL
MODEL 9
REMARK VINA RESULT:      -8.4      2.189      2.850
REMARK  5 active torsions:
REMARK  status: ('A' for Active; 'I' for Inactive)
REMARK    1  A    between atoms: C_9  and  N_10 
REMARK       I    between atoms: N_10  and  C_11 
REMARK    2  A    between atoms: C_11  and  C_12 
REMARK    3  A    between atoms: C_15  and  O_16 
REMARK    4  A    between atoms: O_16  and  C_17 
REMARK    5  A    between atoms: C_17  and  C_18 
ROOT
HETATM    1  C   UNL     1      28.552  44.398  54.713  1.00  0.00    -0.013 A 
HETATM    2  C   UNL     1      29.416  43.300  54.530  1.00  0.00     0.053 A 
HETATM    3  C   UNL     1      29.071  42.207  53.663  1.00  0.00     0.100 C 
HETATM    4  N   UNL     1      28.790  41.316  52.973  1.00  0.00    -0.191 NA
HETATM    5  C   UNL     1      30.644  43.255  55.205  1.00  0.00     0.023 A 
HETATM    6  C   UNL     1      31.017  44.290  56.063  1.00  0.00     0.002 A 
HETATM    7  C   UNL     1      30.168  45.376  56.251  1.00  0.00     0.001 A 
HETATM    8  C   UNL     1      28.945  45.432  55.582  1.00  0.00     0.011 A 
ENDROOT
BRANCH   1   9
HETATM    9  C   UNL     1      27.211  44.486  54.015  1.00  0.00     0.216 C 
BRANCH   9  10
HETATM   10  O   UNL     1      27.047  45.809  53.507  1.00  0.00    -0.347 OA
BRANCH  10  11
HETATM   11  C   UNL     1      26.144  45.964  52.493  1.00  0.00     0.069 A 
HETATM   12  C   UNL     1      25.943  47.131  51.758  1.00  0.00     0.038 A 
HETATM   13  C   UNL     1      25.012  47.148  50.715  1.00  0.00     0.020 A 
HETATM   14  C   UNL     1      24.282  45.997  50.390  1.00  0.00     0.032 A 
HETATM   15  C   UNL     1      24.465  44.832  51.144  1.00  0.00     0.020 A 
HETATM   16  C   UNL     1      25.402  44.820  52.184  1.00  0.00     0.038 A 
BRANCH  14  17
HETATM   17  C   UNL     1      23.346  46.070  49.232  1.00  0.00     0.256 C 
HETATM   18  N   UNL     1      22.524  47.186  49.198  1.00  0.00    -0.323 N 
HETATM   19  H   UNL     1      22.621  47.852  49.954  1.00  0.00     0.169 HD
HETATM   20  O   UNL     1      23.322  45.134  48.441  1.00  0.00    -0.267 OA
BRANCH  18  21
HETATM   21  C   UNL     1      21.459  47.425  48.302  1.00  0.00     0.035 A 
HETATM   22  C   UNL     1      21.322  46.773  47.074  1.00  0.00     0.039 A 
HETATM   23  C   UNL     1      20.198  47.023  46.301  1.00  0.00    -0.022 A 
HETATM   24  C   UNL     1      19.825  46.384  45.009  1.00  0.00     0.274 C 
HETATM   25  C   UNL     1      19.214  47.919  46.717  1.00  0.00    -0.025 A 
HETATM   26  N   UNL     1      18.584  47.139  44.546  1.00  0.00    -0.067 N 
HETATM   27  C   UNL     1      17.549  46.278  43.915  1.00  0.00     0.270 C 
HETATM   28  H   UNL     1      18.914  47.822  43.854  1.00  0.00     0.280 HD
HETATM   29  C   UNL     1      18.090  47.950  45.740  1.00  0.00     0.273 C 
HETATM   30  C   UNL     1      19.339  48.596  47.918  1.00  0.00     0.012 A 
HETATM   31  C   UNL     1      20.470  48.345  48.706  1.00  0.00     0.030 A 
ENDBRANCH  18  21
ENDBRANCH  14  17
ENDBRANCH  10  11
ENDBRANCH   9  10
ENDBRANCH   1   9
TORSDOF 5
ENDMDL
MODEL 10
REMARK VINA RESULT:      -8.3      3.853      4.916
REMARK  5 active torsions:
REMARK  status: ('A' for Active; 'I' for Inactive)
REMARK    1  A    between atoms: C_9  and  N_10 
REMARK       I    between atoms: N_10  and  C_11 
REMARK    2  A    between atoms: C_11  and  C_12 
REMARK    3  A    between atoms: C_15  and  O_16 
REMARK    4  A    between atoms: O_16  and  C_17 
REMARK    5  A    between atoms: C_17  and  C_18 
ROOT
HETATM    1  C   UNL     1      29.767  45.020  55.894  1.00  0.00    -0.013 A 
HETATM    2  C   UNL     1      30.513  43.857  55.612  1.00  0.00     0.053 A 
HETATM    3  C   UNL     1      30.395  43.173  54.354  1.00  0.00     0.100 C 
HETATM    4  N   UNL     1      30.293  42.612  53.343  1.00  0.00    -0.191 NA
HETATM    5  C   UNL     1      31.392  43.339  56.574  1.00  0.00     0.023 A 
HETATM    6  C   UNL     1      31.533  43.965  57.813  1.00  0.00     0.002 A 
HETATM    7  C   UNL     1      30.799  45.112  58.099  1.00  0.00     0.001 A 
HETATM    8  C   UNL     1      29.923  45.637  57.148  1.00  0.00     0.011 A 
ENDROOT
BRANCH   1   9
HETATM    9  C   UNL     1      28.797  45.609  54.893  1.00  0.00     0.216 C 
BRANCH   9  10
HETATM   10  O   UNL     1      27.583  44.860  54.938  1.00  0.00    -0.347 OA
BRANCH  10  11
HETATM   11  C   UNL     1      26.858  44.806  53.781  1.00  0.00     0.069 A 
HETATM   12  C   UNL     1      25.468  44.756  53.697  1.00  0.00     0.038 A 
HETATM   13  C   UNL     1      24.844  44.743  52.446  1.00  0.00     0.020 A 
HETATM   14  C   UNL     1      25.602  44.789  51.268  1.00  0.00     0.032 A 
HETATM   15  C   UNL     1      26.998  44.813  51.352  1.00  0.00     0.020 A 
HETATM   16  C   UNL     1      27.618  44.831  52.607  1.00  0.00     0.038 A 
BRANCH  14  17
HETATM   17  C   UNL     1      24.869  44.827  49.971  1.00  0.00     0.256 C 
HETATM   18  N   UNL     1      23.602  44.264  49.983  1.00  0.00    -0.323 N 
HETATM   19  H   UNL     1      23.280  43.875  50.860  1.00  0.00     0.169 HD
HETATM   20  O   UNL     1      25.444  45.285  48.990  1.00  0.00    -0.267 OA
BRANCH  18  21
HETATM   21  C   UNL     1      22.765  44.040  48.868  1.00  0.00     0.035 A 
HETATM   22  C   UNL     1      22.885  42.935  48.022  1.00  0.00     0.039 A 
HETATM   23  C   UNL     1      21.965  42.767  46.999  1.00  0.00    -0.022 A 
HETATM   24  C   UNL     1      21.869  41.631  46.041  1.00  0.00     0.274 C 
HETATM   25  C   UNL     1      20.934  43.683  46.791  1.00  0.00    -0.025 A 
HETATM   26  N   UNL     1      20.777  42.041  45.059  1.00  0.00    -0.067 N 
HETATM   27  C   UNL     1      19.885  40.928  44.640  1.00  0.00     0.270 C 
HETATM   28  H   UNL     1      21.267  42.403  44.231  1.00  0.00     0.280 HD
HETATM   29  C   UNL     1      20.053  43.233  45.677  1.00  0.00     0.273 C 
HETATM   30  C   UNL     1      20.810  44.799  47.599  1.00  0.00     0.012 A 
HETATM   31  C   UNL     1      21.734  44.973  48.638  1.00  0.00     0.030 A 
ENDBRANCH  18  21
ENDBRANCH  14  17
ENDBRANCH  10  11
ENDBRANCH   9  10
ENDBRANCH   1   9
TORSDOF 5
ENDMDL
