MODEL 1
REMARK VINA RESULT:      -8.8      0.000      0.000
REMARK  5 active torsions:
REMARK  status: ('A' for Active; 'I' for Inactive)
REMARK    1  A    between atoms: O_2  and  C_3 
REMARK    2  A    between atoms: C_16  and  C_17 
REMARK    3  A    between atoms: C_19  and  O_20 
REMARK    4  A    between atoms: C_22  and  O_23 
REMARK    5  A    between atoms: O_23  and  C_24 
ROOT
HETATM    1  C   UNL     1      18.742  51.198  49.976  1.00  0.00     0.069 A 
HETATM    2  C   UNL     1      20.082  51.294  49.579  1.00  0.00     0.051 A 
HETATM    3  C   UNL     1      20.839  50.126  49.367  1.00  0.00     0.002 A 
HETATM    4  C   UNL     1      20.223  48.888  49.553  1.00  0.00     0.043 A 
HETATM    5  N   UNL     1      21.161  47.910  49.296  1.00  0.00    -0.356 N 
HETATM    6  H   UNL     1      20.975  46.918  49.382  1.00  0.00     0.166 HD
HETATM    7  C   UNL     1      22.356  48.497  48.968  1.00  0.00     0.052 A 
HETATM    8  C   UNL     1      22.182  49.868  48.992  1.00  0.00    -0.019 A 
HETATM    9  C   UNL     1      23.289  50.815  48.673  1.00  0.00     0.069 C 
HETATM   10  C   UNL     1      24.651  50.106  48.771  1.00  0.00     0.238 C 
HETATM   11  N   UNL     1      24.614  48.754  48.097  1.00  0.00    -0.061 N 
HETATM   12  H   UNL     1      24.363  48.890  47.112  1.00  0.00     0.278 HD
HETATM   13  H   UNL     1      25.547  48.330  48.118  1.00  0.00     0.278 HD
HETATM   14  C   UNL     1      23.625  47.773  48.679  1.00  0.00     0.269 C 
HETATM   15  C   UNL     1      18.884  48.768  49.939  1.00  0.00     0.033 A 
HETATM   16  C   UNL     1      18.155  49.946  50.149  1.00  0.00     0.039 A 
ENDROOT
BRANCH  14  17
HETATM   17  C   UNL     1      24.223  47.035  49.864  1.00  0.00    -0.019 A 
HETATM   18  C   UNL     1      23.940  45.680  50.127  1.00  0.00     0.049 A 
HETATM   19  C   UNL     1      24.472  45.033  51.248  1.00  0.00     0.102 A 
HETATM   20  C   UNL     1      25.281  45.750  52.146  1.00  0.00     0.102 A 
HETATM   21  C   UNL     1      25.575  47.090  51.891  1.00  0.00     0.040 A 
HETATM   22  C   UNL     1      25.046  47.729  50.765  1.00  0.00     0.012 A 
BRANCH  19  23
HETATM   23  O   UNL     1      24.224  43.723  51.569  1.00  0.00    -0.353 OA
HETATM   24  C   UNL     1      24.814  42.712  50.763  1.00  0.00     0.210 C 
ENDBRANCH  19  23
BRANCH  20  25
HETATM   25  O   UNL     1      25.777  45.042  53.209  1.00  0.00    -0.343 OA
BRANCH  25  26
HETATM   26  C   UNL     1      27.176  45.080  53.469  1.00  0.00     0.129 C 
HETATM   27  C   UNL     1      27.523  44.655  54.895  1.00  0.00     0.032 C 
HETATM   28  C   UNL     1      28.932  44.111  54.766  1.00  0.00     0.002 C 
HETATM   29  C   UNL     1      28.875  43.305  53.478  1.00  0.00     0.002 C 
HETATM   30  C   UNL     1      27.872  44.033  52.584  1.00  0.00     0.032 C 
ENDBRANCH  25  26
ENDBRANCH  20  25
ENDBRANCH  14  17
BRANCH   1  31
HETATM   31  O   UNL     1      18.125  52.407  50.161  1.00  0.00    -0.356 OA
HETATM   32  C   UNL     1      16.737  52.477  49.858  1.00  0.00     0.210 C 
ENDBRANCH   1  31
TORSDOF 5
ENDMDL
MODEL 2
REMARK VINA RESULT:      -8.6      1.586      9.188
REMARK  5 active torsions:
REMARK  status: ('A' for Active; 'I' for Inactive)
REMARK    1  A    between atoms: O_2  and  C_3 
REMARK    2  A    between atoms: C_16  and  C_17 
REMARK    3  A    between atoms: C_19  and  O_20 
REMARK    4  A    between atoms: C_22  and  O_23 
REMARK    5  A    between atoms: O_23  and  C_24 
ROOT
HETATM    1  C   UNL     1      25.319  44.930  51.701  1.00  0.00     0.069 A 
HETATM    2  C   UNL     1      24.275  44.837  50.770  1.00  0.00     0.051 A 
HETATM    3  C   UNL     1      23.887  45.971  50.032  1.00  0.00     0.002 A 
HETATM    4  C   UNL     1      24.565  47.172  50.245  1.00  0.00     0.043 A 
HETATM    5  N   UNL     1      24.002  48.124  49.421  1.00  0.00    -0.356 N 
HETATM    6  H   UNL     1      24.299  49.092  49.399  1.00  0.00     0.166 HD
HETATM    7  C   UNL     1      22.977  47.561  48.705  1.00  0.00     0.052 A 
HETATM    8  C   UNL     1      22.891  46.226  49.054  1.00  0.00    -0.019 A 
HETATM    9  C   UNL     1      21.880  45.311  48.452  1.00  0.00     0.069 C 
HETATM   10  C   UNL     1      20.744  46.117  47.798  1.00  0.00     0.238 C 
HETATM   11  N   UNL     1      21.290  47.263  46.978  1.00  0.00    -0.061 N 
HETATM   12  H   UNL     1      21.905  46.880  46.253  1.00  0.00     0.278 HD
HETATM   13  H   UNL     1      20.520  47.745  46.501  1.00  0.00     0.278 HD
HETATM   14  C   UNL     1      22.090  48.283  47.751  1.00  0.00     0.269 C 
HETATM   15  C   UNL     1      25.616  47.286  51.162  1.00  0.00     0.033 A 
HETATM   16  C   UNL     1      25.979  46.143  51.887  1.00  0.00     0.039 A 
ENDROOT
BRANCH  14  17
HETATM   17  C   UNL     1      21.182  49.322  48.386  1.00  0.00    -0.019 A 
HETATM   18  C   UNL     1      20.291  49.003  49.431  1.00  0.00     0.049 A 
HETATM   19  C   UNL     1      19.436  49.969  49.974  1.00  0.00     0.102 A 
HETATM   20  C   UNL     1      19.443  51.275  49.453  1.00  0.00     0.102 A 
HETATM   21  C   UNL     1      20.326  51.603  48.425  1.00  0.00     0.040 A 
HETATM   22  C   UNL     1      21.184  50.635  47.892  1.00  0.00     0.012 A 
BRANCH  19  23
HETATM   23  O   UNL     1      18.537  49.722  50.978  1.00  0.00    -0.353 OA
HETATM   24  C   UNL     1      18.512  48.421  51.550  1.00  0.00     0.210 C 
ENDBRANCH  19  23
BRANCH  20  25
HETATM   25  O   UNL     1      18.589  52.166  50.049  1.00  0.00    -0.343 OA
BRANCH  25  26
HETATM   26  C   UNL     1      17.543  52.740  49.273  1.00  0.00     0.129 C 
HETATM   27  C   UNL     1      16.901  51.738  48.315  1.00  0.00     0.032 C 
HETATM   28  C   UNL     1      15.494  52.274  48.138  1.00  0.00     0.002 C 
HETATM   29  C   UNL     1      15.102  52.687  49.547  1.00  0.00     0.002 C 
HETATM   30  C   UNL     1      16.398  53.148  50.213  1.00  0.00     0.032 C 
ENDBRANCH  25  26
ENDBRANCH  20  25
ENDBRANCH  14  17
BRANCH   1  31
HETATM   31  O   UNL     1      25.587  43.760  52.359  1.00  0.00    -0.356 OA
HETATM   32  C   UNL     1      26.954  43.387  52.482  1.00  0.00     0.210 C 
ENDBRANCH   1  31
TORSDOF 5
ENDMDL
MODEL 3
REMARK VINA RESULT:      -8.2      1.911      2.375
REMARK  5 active torsions:
REMARK  status: ('A' for Active; 'I' for Inactive)
REMARK    1  A    between atoms: O_2  and  C_3 
REMARK    2  A    between atoms: C_16  and  C_17 
REMARK    3  A    between atoms: C_19  and  O_20 
REMARK    4  A    between atoms: C_22  and  O_23 
REMARK    5  A    between atoms: O_23  and  C_24 
ROOT
HETATM    1  C   UNL     1      17.198  47.108  48.477  1.00  0.00     0.069 A 
HETATM    2  C   UNL     1      18.242  48.026  48.656  1.00  0.00     0.051 A 
HETATM    3  C   UNL     1      19.579  47.602  48.535  1.00  0.00     0.002 A 
HETATM    4  C   UNL     1      19.832  46.265  48.228  1.00  0.00     0.043 A 
HETATM    5  N   UNL     1      21.200  46.098  48.173  1.00  0.00    -0.356 N 
HETATM    6  H   UNL     1      21.649  45.209  47.989  1.00  0.00     0.166 HD
HETATM    7  C   UNL     1      21.818  47.290  48.451  1.00  0.00     0.052 A 
HETATM    8  C   UNL     1      20.839  48.242  48.667  1.00  0.00    -0.019 A 
HETATM    9  C   UNL     1      21.167  49.660  48.989  1.00  0.00     0.069 C 
HETATM   10  C   UNL     1      22.623  49.781  49.470  1.00  0.00     0.238 C 
HETATM   11  N   UNL     1      23.558  48.985  48.589  1.00  0.00    -0.061 N 
HETATM   12  H   UNL     1      23.478  49.338  47.629  1.00  0.00     0.278 HD
HETATM   13  H   UNL     1      24.527  49.133  48.889  1.00  0.00     0.278 HD
HETATM   14  C   UNL     1      23.290  47.500  48.544  1.00  0.00     0.269 C 
HETATM   15  C   UNL     1      18.806  45.334  48.035  1.00  0.00     0.033 A 
HETATM   16  C   UNL     1      17.484  45.780  48.166  1.00  0.00     0.039 A 
ENDROOT
BRANCH  14  17
HETATM   17  C   UNL     1      23.964  46.789  49.704  1.00  0.00    -0.019 A 
HETATM   18  C   UNL     1      23.745  45.424  49.978  1.00  0.00     0.049 A 
HETATM   19  C   UNL     1      24.348  44.800  51.076  1.00  0.00     0.102 A 
HETATM   20  C   UNL     1      25.164  45.550  51.940  1.00  0.00     0.102 A 
HETATM   21  C   UNL     1      25.394  46.899  51.674  1.00  0.00     0.040 A 
HETATM   22  C   UNL     1      24.796  47.516  50.570  1.00  0.00     0.012 A 
BRANCH  19  23
HETATM   23  O   UNL     1      24.164  43.482  51.408  1.00  0.00    -0.353 OA
HETATM   24  C   UNL     1      24.276  42.511  50.376  1.00  0.00     0.210 C 
ENDBRANCH  19  23
BRANCH  20  25
HETATM   25  O   UNL     1      25.731  44.863  52.982  1.00  0.00    -0.343 OA
BRANCH  25  26
HETATM   26  C   UNL     1      27.125  45.010  53.226  1.00  0.00     0.129 C 
HETATM   27  C   UNL     1      27.500  44.748  54.684  1.00  0.00     0.032 C 
HETATM   28  C   UNL     1      28.940  44.279  54.596  1.00  0.00     0.002 C 
HETATM   29  C   UNL     1      28.928  43.349  53.393  1.00  0.00     0.002 C 
HETATM   30  C   UNL     1      27.881  43.926  52.441  1.00  0.00     0.032 C 
ENDBRANCH  25  26
ENDBRANCH  20  25
ENDBRANCH  14  17
BRANCH   1  31
HETATM   31  O   UNL     1      15.949  47.645  48.635  1.00  0.00    -0.356 OA
HETATM   32  C   UNL     1      15.672  48.855  47.939  1.00  0.00     0.210 C 
ENDBRANCH   1  31
TORSDOF 5
ENDMDL
MODEL 4
REMARK VINA RESULT:      -8.1      5.247      7.172
REMARK  5 active torsions:
REMARK  status: ('A' for Active; 'I' for Inactive)
REMARK    1  A    between atoms: O_2  and  C_3 
REMARK    2  A    between atoms: C_16  and  C_17 
REMARK    3  A    between atoms: C_19  and  O_20 
REMARK    4  A    between atoms: C_22  and  O_23 
REMARK    5  A    between atoms: O_23  and  C_24 
ROOT
HETATM    1  C   UNL     1      22.868  43.960  47.770  1.00  0.00     0.069 A 
HETATM    2  C   UNL     1      24.063  43.228  47.746  1.00  0.00     0.051 A 
HETATM    3  C   UNL     1      24.607  42.728  48.944  1.00  0.00     0.002 A 
HETATM    4  C   UNL     1      23.929  42.972  50.139  1.00  0.00     0.043 A 
HETATM    5  N   UNL     1      24.656  42.396  51.160  1.00  0.00    -0.356 N 
HETATM    6  H   UNL     1      24.390  42.449  52.136  1.00  0.00     0.166 HD
HETATM    7  C   UNL     1      25.783  41.809  50.644  1.00  0.00     0.052 A 
HETATM    8  C   UNL     1      25.772  41.988  49.273  1.00  0.00    -0.019 A 
HETATM    9  C   UNL     1      26.856  41.463  48.395  1.00  0.00     0.069 C 
HETATM   10  C   UNL     1      28.111  41.137  49.223  1.00  0.00     0.238 C 
HETATM   11  N   UNL     1      27.753  40.390  50.487  1.00  0.00    -0.061 N 
HETATM   12  H   UNL     1      27.273  39.522  50.227  1.00  0.00     0.278 HD
HETATM   13  H   UNL     1      28.608  40.128  50.989  1.00  0.00     0.278 HD
HETATM   14  C   UNL     1      26.847  41.134  51.439  1.00  0.00     0.269 C 
HETATM   15  C   UNL     1      22.730  43.691  50.186  1.00  0.00     0.033 A 
HETATM   16  C   UNL     1      22.212  44.182  48.979  1.00  0.00     0.039 A 
ENDROOT
BRANCH  14  17
HETATM   17  C   UNL     1      27.645  42.054  52.346  1.00  0.00    -0.019 A 
HETATM   18  C   UNL     1      27.225  43.365  52.644  1.00  0.00     0.049 A 
HETATM   19  C   UNL     1      27.997  44.208  53.452  1.00  0.00     0.102 A 
HETATM   20  C   UNL     1      29.229  43.752  53.954  1.00  0.00     0.102 A 
HETATM   21  C   UNL     1      29.650  42.453  53.671  1.00  0.00     0.040 A 
HETATM   22  C   UNL     1      28.870  41.613  52.870  1.00  0.00     0.012 A 
BRANCH  19  23
HETATM   23  O   UNL     1      27.655  45.497  53.767  1.00  0.00    -0.353 OA
HETATM   24  C   UNL     1      26.384  45.726  54.361  1.00  0.00     0.210 C 
ENDBRANCH  19  23
BRANCH  20  25
HETATM   25  O   UNL     1      29.918  44.629  54.749  1.00  0.00    -0.343 OA
BRANCH  25  26
HETATM   26  C   UNL     1      29.888  44.448  56.161  1.00  0.00     0.129 C 
HETATM   27  C   UNL     1      31.252  44.070  56.736  1.00  0.00     0.032 C 
HETATM   28  C   UNL     1      31.188  44.588  58.160  1.00  0.00     0.002 C 
HETATM   29  C   UNL     1      30.519  45.944  58.005  1.00  0.00     0.002 C 
HETATM   30  C   UNL     1      29.558  45.794  56.826  1.00  0.00     0.032 C 
ENDBRANCH  25  26
ENDBRANCH  20  25
ENDBRANCH  14  17
BRANCH   1  31
HETATM   31  O   UNL     1      22.457  44.398  46.540  1.00  0.00    -0.356 OA
HETATM   32  C   UNL     1      23.114  43.848  45.404  1.00  0.00     0.210 C 
ENDBRANCH   1  31
TORSDOF 5
ENDMDL
MODEL 5
REMARK VINA RESULT:      -7.9     19.569     21.122
REMARK  5 active torsions:
REMARK  status: ('A' for Active; 'I' for Inactive)
REMARK    1  A    between atoms: O_2  and  C_3 
REMARK    2  A    between atoms: C_16  and  C_17 
REMARK    3  A    between atoms: C_19  and  O_20 
REMARK    4  A    between atoms: C_22  and  O_23 
REMARK    5  A    between atoms: O_23  and  C_24 
ROOT
HETATM    1  C   UNL     1      36.183  49.444  70.300  1.00  0.00     0.069 A 
HETATM    2  C   UNL     1      36.930  49.495  69.115  1.00  0.00     0.051 A 
HETATM    3  C   UNL     1      36.487  48.801  67.974  1.00  0.00     0.002 A 
HETATM    4  C   UNL     1      35.297  48.079  68.051  1.00  0.00     0.043 A 
HETATM    5  N   UNL     1      35.083  47.488  66.823  1.00  0.00    -0.356 N 
HETATM    6  H   UNL     1      34.294  46.886  66.620  1.00  0.00     0.166 HD
HETATM    7  C   UNL     1      36.115  47.806  65.977  1.00  0.00     0.052 A 
HETATM    8  C   UNL     1      36.992  48.628  66.659  1.00  0.00    -0.019 A 
HETATM    9  C   UNL     1      38.229  49.168  66.027  1.00  0.00     0.069 C 
HETATM   10  C   UNL     1      38.590  48.359  64.769  1.00  0.00     0.238 C 
HETATM   11  N   UNL     1      37.370  48.104  63.914  1.00  0.00    -0.061 N 
HETATM   12  H   UNL     1      36.970  49.008  63.643  1.00  0.00     0.278 HD
HETATM   13  H   UNL     1      37.645  47.621  63.053  1.00  0.00     0.278 HD
HETATM   14  C   UNL     1      36.273  47.310  64.581  1.00  0.00     0.269 C 
HETATM   15  C   UNL     1      34.529  48.022  69.219  1.00  0.00     0.033 A 
HETATM   16  C   UNL     1      34.995  48.717  70.343  1.00  0.00     0.039 A 
ENDROOT
BRANCH  14  17
HETATM   17  C   UNL     1      36.527  45.818  64.459  1.00  0.00    -0.019 A 
HETATM   18  C   UNL     1      35.938  44.882  65.331  1.00  0.00     0.049 A 
HETATM   19  C   UNL     1      36.218  43.515  65.223  1.00  0.00     0.102 A 
HETATM   20  C   UNL     1      37.124  43.066  64.246  1.00  0.00     0.102 A 
HETATM   21  C   UNL     1      37.706  43.984  63.372  1.00  0.00     0.040 A 
HETATM   22  C   UNL     1      37.416  45.348  63.480  1.00  0.00     0.012 A 
BRANCH  19  23
HETATM   23  O   UNL     1      35.693  42.555  66.048  1.00  0.00    -0.353 OA
HETATM   24  C   UNL     1      34.357  42.129  65.814  1.00  0.00     0.210 C 
ENDBRANCH  19  23
BRANCH  20  25
HETATM   25  O   UNL     1      37.333  41.713  64.193  1.00  0.00    -0.343 OA
BRANCH  25  26
HETATM   26  C   UNL     1      38.668  41.226  64.110  1.00  0.00     0.129 C 
HETATM   27  C   UNL     1      38.869  39.922  64.883  1.00  0.00     0.032 C 
HETATM   28  C   UNL     1      40.016  39.254  64.149  1.00  0.00     0.002 C 
HETATM   29  C   UNL     1      39.680  39.498  62.687  1.00  0.00     0.002 C 
HETATM   30  C   UNL     1      38.967  40.849  62.651  1.00  0.00     0.032 C 
ENDBRANCH  25  26
ENDBRANCH  20  25
ENDBRANCH  14  17
BRANCH   1  31
HETATM   31  O   UNL     1      36.731  50.150  71.337  1.00  0.00    -0.356 OA
HETATM   32  C   UNL     1      36.542  51.560  71.331  1.00  0.00     0.210 C 
ENDBRANCH   1  31
TORSDOF 5
ENDMDL
MODEL 6
REMARK VINA RESULT:      -7.7      6.369     10.365
REMARK  5 active torsions:
REMARK  status: ('A' for Active; 'I' for Inactive)
REMARK    1  A    between atoms: O_2  and  C_3 
REMARK    2  A    between atoms: C_16  and  C_17 
REMARK    3  A    between atoms: C_19  and  O_20 
REMARK    4  A    between atoms: C_22  and  O_23 
REMARK    5  A    between atoms: O_23  and  C_24 
ROOT
HETATM    1  C   UNL     1      28.582  39.293  43.966  1.00  0.00     0.069 A 
HETATM    2  C   UNL     1      28.416  38.607  45.177  1.00  0.00     0.051 A 
HETATM    3  C   UNL     1      27.700  39.205  46.231  1.00  0.00     0.002 A 
HETATM    4  C   UNL     1      27.160  40.477  46.037  1.00  0.00     0.043 A 
HETATM    5  N   UNL     1      26.521  40.844  47.202  1.00  0.00    -0.356 N 
HETATM    6  H   UNL     1      26.063  41.739  47.333  1.00  0.00     0.166 HD
HETATM    7  C   UNL     1      26.655  39.845  48.133  1.00  0.00     0.052 A 
HETATM    8  C   UNL     1      27.369  38.813  47.554  1.00  0.00    -0.019 A 
HETATM    9  C   UNL     1      27.690  37.558  48.292  1.00  0.00     0.069 C 
HETATM   10  C   UNL     1      27.530  37.767  49.808  1.00  0.00     0.238 C 
HETATM   11  N   UNL     1      26.253  38.510  50.126  1.00  0.00    -0.061 N 
HETATM   12  H   UNL     1      25.463  37.964  49.766  1.00  0.00     0.278 HD
HETATM   13  H   UNL     1      26.137  38.580  51.142  1.00  0.00     0.278 HD
HETATM   14  C   UNL     1      26.150  39.894  49.533  1.00  0.00     0.269 C 
HETATM   15  C   UNL     1      27.304  41.176  44.834  1.00  0.00     0.033 A 
HETATM   16  C   UNL     1      28.026  40.561  43.802  1.00  0.00     0.039 A 
ENDROOT
BRANCH  14  17
HETATM   17  C   UNL     1      26.831  40.921  50.421  1.00  0.00    -0.019 A 
HETATM   18  C   UNL     1      26.275  42.192  50.662  1.00  0.00     0.049 A 
HETATM   19  C   UNL     1      26.940  43.136  51.454  1.00  0.00     0.102 A 
HETATM   20  C   UNL     1      28.198  42.824  51.997  1.00  0.00     0.102 A 
HETATM   21  C   UNL     1      28.754  41.564  51.772  1.00  0.00     0.040 A 
HETATM   22  C   UNL     1      28.080  40.623  50.987  1.00  0.00     0.012 A 
BRANCH  19  23
HETATM   23  O   UNL     1      26.463  44.394  51.714  1.00  0.00    -0.353 OA
HETATM   24  C   UNL     1      25.364  44.523  52.606  1.00  0.00     0.210 C 
ENDBRANCH  19  23
BRANCH  20  25
HETATM   25  O   UNL     1      28.777  43.793  52.773  1.00  0.00    -0.343 OA
BRANCH  25  26
HETATM   26  C   UNL     1      29.043  43.510  54.143  1.00  0.00     0.129 C 
HETATM   27  C   UNL     1      30.489  43.083  54.387  1.00  0.00     0.032 C 
HETATM   28  C   UNL     1      30.739  43.497  55.824  1.00  0.00     0.002 C 
HETATM   29  C   UNL     1      30.083  44.866  55.909  1.00  0.00     0.002 C 
HETATM   30  C   UNL     1      28.891  44.807  54.954  1.00  0.00     0.032 C 
ENDBRANCH  25  26
ENDBRANCH  20  25
ENDBRANCH  14  17
BRANCH   1  31
HETATM   31  O   UNL     1      29.308  38.607  43.030  1.00  0.00    -0.356 OA
HETATM   32  C   UNL     1      30.500  39.224  42.557  1.00  0.00     0.210 C 
ENDBRANCH   1  31
TORSDOF 5
ENDMDL
MODEL 7
REMARK VINA RESULT:      -7.7     13.236     15.257
REMARK  5 active torsions:
REMARK  status: ('A' for Active; 'I' for Inactive)
REMARK    1  A    between atoms: O_2  and  C_3 
REMARK    2  A    between atoms: C_16  and  C_17 
REMARK    3  A    between atoms: C_19  and  O_20 
REMARK    4  A    between atoms: C_22  and  O_23 
REMARK    5  A    between atoms: O_23  and  C_24 
ROOT
HETATM    1  C   UNL     1      29.535  50.137  41.189  1.00  0.00     0.069 A 
HETATM    2  C   UNL     1      30.592  50.773  40.524  1.00  0.00     0.051 A 
HETATM    3  C   UNL     1      31.922  50.428  40.826  1.00  0.00     0.002 A 
HETATM    4  C   UNL     1      32.157  49.444  41.787  1.00  0.00     0.043 A 
HETATM    5  N   UNL     1      33.522  49.293  41.909  1.00  0.00    -0.356 N 
HETATM    6  H   UNL     1      33.959  48.653  42.561  1.00  0.00     0.166 HD
HETATM    7  C   UNL     1      34.157  50.166  41.063  1.00  0.00     0.052 A 
HETATM    8  C   UNL     1      33.191  50.872  40.371  1.00  0.00    -0.019 A 
HETATM    9  C   UNL     1      33.538  51.907  39.355  1.00  0.00     0.069 C 
HETATM   10  C   UNL     1      34.998  52.362  39.525  1.00  0.00     0.238 C 
HETATM   11  N   UNL     1      35.919  51.180  39.727  1.00  0.00    -0.061 N 
HETATM   12  H   UNL     1      35.840  50.565  38.910  1.00  0.00     0.278 HD
HETATM   13  H   UNL     1      36.891  51.502  39.773  1.00  0.00     0.278 HD
HETATM   14  C   UNL     1      35.631  50.342  40.949  1.00  0.00     0.269 C 
HETATM   15  C   UNL     1      31.118  48.789  42.457  1.00  0.00     0.033 A 
HETATM   16  C   UNL     1      29.802  49.155  42.141  1.00  0.00     0.039 A 
ENDROOT
BRANCH  14  17
HETATM   17  C   UNL     1      36.301  50.926  42.181  1.00  0.00    -0.019 A 
HETATM   18  C   UNL     1      37.504  50.407  42.699  1.00  0.00     0.049 A 
HETATM   19  C   UNL     1      38.082  50.937  43.858  1.00  0.00     0.102 A 
HETATM   20  C   UNL     1      37.440  51.988  44.536  1.00  0.00     0.102 A 
HETATM   21  C   UNL     1      36.253  52.515  44.027  1.00  0.00     0.040 A 
HETATM   22  C   UNL     1      35.685  51.986  42.864  1.00  0.00     0.012 A 
BRANCH  19  23
HETATM   23  O   UNL     1      39.240  50.470  44.423  1.00  0.00    -0.353 OA
HETATM   24  C   UNL     1      39.525  49.081  44.315  1.00  0.00     0.210 C 
ENDBRANCH  19  23
BRANCH  20  25
HETATM   25  O   UNL     1      38.077  52.463  45.653  1.00  0.00    -0.343 OA
BRANCH  25  26
HETATM   26  C   UNL     1      38.922  53.602  45.531  1.00  0.00     0.129 C 
HETATM   27  C   UNL     1      38.276  54.876  46.073  1.00  0.00     0.032 C 
HETATM   28  C   UNL     1      39.464  55.723  46.487  1.00  0.00     0.002 C 
HETATM   29  C   UNL     1      40.388  54.718  47.156  1.00  0.00     0.002 C 
HETATM   30  C   UNL     1      40.158  53.398  46.420  1.00  0.00     0.032 C 
ENDBRANCH  25  26
ENDBRANCH  20  25
ENDBRANCH  14  17
BRANCH   1  31
HETATM   31  O   UNL     1      28.293  50.574  40.813  1.00  0.00    -0.356 OA
HETATM   32  C   UNL     1      27.911  51.878  41.235  1.00  0.00     0.210 C 
ENDBRANCH   1  31
TORSDOF 5
ENDMDL
MODEL 8
REMARK VINA RESULT:      -7.6      2.467      3.463
REMARK  5 active torsions:
REMARK  status: ('A' for Active; 'I' for Inactive)
REMARK    1  A    between atoms: O_2  and  C_3 
REMARK    2  A    between atoms: C_16  and  C_17 
REMARK    3  A    between atoms: C_19  and  O_20 
REMARK    4  A    between atoms: C_22  and  O_23 
REMARK    5  A    between atoms: O_23  and  C_24 
ROOT
HETATM    1  C   UNL     1      18.485  49.057  47.266  1.00  0.00     0.069 A 
HETATM    2  C   UNL     1      19.387  48.145  46.701  1.00  0.00     0.051 A 
HETATM    3  C   UNL     1      19.924  47.108  47.487  1.00  0.00     0.002 A 
HETATM    4  C   UNL     1      19.531  47.008  48.822  1.00  0.00     0.043 A 
HETATM    5  N   UNL     1      20.191  45.931  49.375  1.00  0.00    -0.356 N 
HETATM    6  H   UNL     1      20.098  45.654  50.345  1.00  0.00     0.166 HD
HETATM    7  C   UNL     1      21.002  45.357  48.429  1.00  0.00     0.052 A 
HETATM    8  C   UNL     1      20.847  46.057  47.248  1.00  0.00    -0.019 A 
HETATM    9  C   UNL     1      21.583  45.690  46.004  1.00  0.00     0.069 C 
HETATM   10  C   UNL     1      22.788  44.793  46.335  1.00  0.00     0.238 C 
HETATM   11  N   UNL     1      22.410  43.711  47.321  1.00  0.00    -0.061 N 
HETATM   12  H   UNL     1      21.659  43.146  46.909  1.00  0.00     0.278 HD
HETATM   13  H   UNL     1      23.209  43.088  47.476  1.00  0.00     0.278 HD
HETATM   14  C   UNL     1      21.917  44.205  48.660  1.00  0.00     0.269 C 
HETATM   15  C   UNL     1      18.624  47.900  49.404  1.00  0.00     0.033 A 
HETATM   16  C   UNL     1      18.109  48.927  48.601  1.00  0.00     0.039 A 
ENDROOT
BRANCH  14  17
HETATM   17  C   UNL     1      23.078  44.490  49.596  1.00  0.00    -0.019 A 
HETATM   18  C   UNL     1      23.621  45.781  49.749  1.00  0.00     0.049 A 
HETATM   19  C   UNL     1      24.716  46.013  50.589  1.00  0.00     0.102 A 
HETATM   20  C   UNL     1      25.306  44.936  51.274  1.00  0.00     0.102 A 
HETATM   21  C   UNL     1      24.772  43.655  51.136  1.00  0.00     0.040 A 
HETATM   22  C   UNL     1      23.673  43.432  50.301  1.00  0.00     0.012 A 
BRANCH  19  23
HETATM   23  O   UNL     1      25.300  47.239  50.770  1.00  0.00    -0.353 OA
HETATM   24  C   UNL     1      25.961  47.836  49.662  1.00  0.00     0.210 C 
ENDBRANCH  19  23
BRANCH  20  25
HETATM   25  O   UNL     1      26.363  45.247  52.089  1.00  0.00    -0.343 OA
BRANCH  25  26
HETATM   26  C   UNL     1      26.962  44.213  52.863  1.00  0.00     0.129 C 
HETATM   27  C   UNL     1      28.306  43.756  52.297  1.00  0.00     0.032 C 
HETATM   28  C   UNL     1      29.044  43.243  53.518  1.00  0.00     0.002 C 
HETATM   29  C   UNL     1      28.717  44.279  54.581  1.00  0.00     0.002 C 
HETATM   30  C   UNL     1      27.308  44.772  54.251  1.00  0.00     0.032 C 
ENDBRANCH  25  26
ENDBRANCH  20  25
ENDBRANCH  14  17
BRANCH   1  31
HETATM   31  O   UNL     1      18.050  50.023  46.399  1.00  0.00    -0.356 OA
HETATM   32  C   UNL     1      17.937  51.346  46.910  1.00  0.00     0.210 C 
ENDBRANCH   1  31
TORSDOF 5
ENDMDL
MODEL 9
REMARK VINA RESULT:      -7.5      2.252      9.208
REMARK  5 active torsions:
REMARK  status: ('A' for Active; 'I' for Inactive)
REMARK    1  A    between atoms: O_2  and  C_3 
REMARK    2  A    between atoms: C_16  and  C_17 
REMARK    3  A    between atoms: C_19  and  O_20 
REMARK    4  A    between atoms: C_22  and  O_23 
REMARK    5  A    between atoms: O_23  and  C_24 
ROOT
HETATM    1  C   UNL     1      26.086  44.932  53.746  1.00  0.00     0.069 A 
HETATM    2  C   UNL     1      25.405  44.298  52.698  1.00  0.00     0.051 A 
HETATM    3  C   UNL     1      24.912  45.056  51.620  1.00  0.00     0.002 A 
HETATM    4  C   UNL     1      25.123  46.435  51.619  1.00  0.00     0.043 A 
HETATM    5  N   UNL     1      24.546  46.948  50.477  1.00  0.00    -0.356 N 
HETATM    6  H   UNL     1      24.539  47.935  50.247  1.00  0.00     0.166 HD
HETATM    7  C   UNL     1      23.962  45.933  49.763  1.00  0.00     0.052 A 
HETATM    8  C   UNL     1      24.184  44.749  50.441  1.00  0.00    -0.019 A 
HETATM    9  C   UNL     1      23.687  43.438  49.934  1.00  0.00     0.069 C 
HETATM   10  C   UNL     1      22.581  43.649  48.885  1.00  0.00     0.238 C 
HETATM   11  N   UNL     1      22.963  44.730  47.900  1.00  0.00    -0.061 N 
HETATM   12  H   UNL     1      23.834  44.452  47.435  1.00  0.00     0.278 HD
HETATM   13  H   UNL     1      22.242  44.807  47.174  1.00  0.00     0.278 HD
HETATM   14  C   UNL     1      23.190  46.096  48.500  1.00  0.00     0.269 C 
HETATM   15  C   UNL     1      25.809  47.088  52.649  1.00  0.00     0.033 A 
HETATM   16  C   UNL     1      26.286  46.311  53.714  1.00  0.00     0.039 A 
ENDROOT
BRANCH  14  17
HETATM   17  C   UNL     1      21.881  46.852  48.646  1.00  0.00    -0.019 A 
HETATM   18  C   UNL     1      21.836  48.216  48.994  1.00  0.00     0.049 A 
HETATM   19  C   UNL     1      20.616  48.882  49.161  1.00  0.00     0.102 A 
HETATM   20  C   UNL     1      19.411  48.175  49.006  1.00  0.00     0.102 A 
HETATM   21  C   UNL     1      19.444  46.826  48.653  1.00  0.00     0.040 A 
HETATM   22  C   UNL     1      20.667  46.168  48.480  1.00  0.00     0.012 A 
BRANCH  19  23
HETATM   23  O   UNL     1      20.503  50.202  49.514  1.00  0.00    -0.353 OA
HETATM   24  C   UNL     1      20.821  51.186  48.539  1.00  0.00     0.210 C 
ENDBRANCH  19  23
BRANCH  20  25
HETATM   25  O   UNL     1      18.261  48.900  49.169  1.00  0.00    -0.343 OA
BRANCH  25  26
HETATM   26  C   UNL     1      17.446  49.162  48.032  1.00  0.00     0.129 C 
HETATM   27  C   UNL     1      16.104  48.433  48.087  1.00  0.00     0.032 C 
HETATM   28  C   UNL     1      15.191  49.317  47.259  1.00  0.00     0.002 C 
HETATM   29  C   UNL     1      15.575  50.720  47.699  1.00  0.00     0.002 C 
HETATM   30  C   UNL     1      17.066  50.652  48.029  1.00  0.00     0.032 C 
ENDBRANCH  25  26
ENDBRANCH  20  25
ENDBRANCH  14  17
BRANCH   1  31
HETATM   31  O   UNL     1      26.502  44.084  54.737  1.00  0.00    -0.356 OA
HETATM   32  C   UNL     1      27.378  43.028  54.359  1.00  0.00     0.210 C 
ENDBRANCH   1  31
TORSDOF 5
ENDMDL
MODEL 10
REMARK VINA RESULT:      -7.4      8.048     11.087
REMARK  5 active torsions:
REMARK  status: ('A' for Active; 'I' for Inactive)
REMARK    1  A    between atoms: O_2  and  C_3 
REMARK    2  A    between atoms: C_16  and  C_17 
REMARK    3  A    between atoms: C_19  and  O_20 
REMARK    4  A    between atoms: C_22  and  O_23 
REMARK    5  A    between atoms: O_23  and  C_24 
ROOT
HETATM    1  C   UNL     1      29.460  38.960  42.671  1.00  0.00     0.069 A 
HETATM    2  C   UNL     1      28.473  38.386  43.485  1.00  0.00     0.051 A 
HETATM    3  C   UNL     1      27.832  39.163  44.467  1.00  0.00     0.002 A 
HETATM    4  C   UNL     1      28.193  40.504  44.600  1.00  0.00     0.043 A 
HETATM    5  N   UNL     1      27.439  41.043  45.622  1.00  0.00    -0.356 N 
HETATM    6  H   UNL     1      27.526  42.002  45.937  1.00  0.00     0.166 HD
HETATM    7  C   UNL     1      26.622  40.075  46.147  1.00  0.00     0.052 A 
HETATM    8  C   UNL     1      26.835  38.904  45.443  1.00  0.00    -0.019 A 
HETATM    9  C   UNL     1      26.098  37.646  45.752  1.00  0.00     0.069 C 
HETATM   10  C   UNL     1      25.470  37.719  47.155  1.00  0.00     0.238 C 
HETATM   11  N   UNL     1      24.793  39.052  47.382  1.00  0.00    -0.061 N 
HETATM   12  H   UNL     1      24.065  39.171  46.670  1.00  0.00     0.278 HD
HETATM   13  H   UNL     1      24.328  39.053  48.296  1.00  0.00     0.278 HD
HETATM   14  C   UNL     1      25.700  40.255  47.303  1.00  0.00     0.269 C 
HETATM   15  C   UNL     1      29.167  41.101  43.793  1.00  0.00     0.033 A 
HETATM   16  C   UNL     1      29.795  40.303  42.826  1.00  0.00     0.039 A 
ENDROOT
BRANCH  14  17
HETATM   17  C   UNL     1      26.388  40.509  48.633  1.00  0.00    -0.019 A 
HETATM   18  C   UNL     1      27.486  39.742  49.070  1.00  0.00     0.049 A 
HETATM   19  C   UNL     1      28.079  39.969  50.317  1.00  0.00     0.102 A 
HETATM   20  C   UNL     1      27.556  40.961  51.165  1.00  0.00     0.102 A 
HETATM   21  C   UNL     1      26.473  41.731  50.739  1.00  0.00     0.040 A 
HETATM   22  C   UNL     1      25.891  41.504  49.488  1.00  0.00     0.012 A 
BRANCH  19  23
HETATM   23  O   UNL     1      29.138  39.250  50.807  1.00  0.00    -0.353 OA
HETATM   24  C   UNL     1      29.406  37.978  50.234  1.00  0.00     0.210 C 
ENDBRANCH  19  23
BRANCH  20  25
HETATM   25  O   UNL     1      28.201  41.134  52.361  1.00  0.00    -0.343 OA
BRANCH  25  26
HETATM   26  C   UNL     1      28.573  42.449  52.759  1.00  0.00     0.129 C 
HETATM   27  C   UNL     1      27.895  42.886  54.057  1.00  0.00     0.032 C 
HETATM   28  C   UNL     1      28.869  43.893  54.638  1.00  0.00     0.002 C 
HETATM   29  C   UNL     1      30.222  43.245  54.396  1.00  0.00     0.002 C 
HETATM   30  C   UNL     1      30.072  42.458  53.095  1.00  0.00     0.032 C 
ENDBRANCH  25  26
ENDBRANCH  20  25
ENDBRANCH  14  17
BRANCH   1  31
HETATM   31  O   UNL     1      30.013  38.093  41.768  1.00  0.00    -0.356 OA
HETATM   32  C   UNL     1      31.424  37.917  41.821  1.00  0.00     0.210 C 
ENDBRANCH   1  31
TORSDOF 5
ENDMDL
