MODEL 1
REMARK VINA RESULT:      -9.9      0.000      0.000
REMARK  6 active torsions:
REMARK  status: ('A' for Active; 'I' for Inactive)
REMARK    1  A    between atoms: O_2  and  C_3 
REMARK    2  A    between atoms: C_6  and  C_7 
REMARK    3  A    between atoms: C_7  and  N_8 
REMARK       I    between atoms: N_8  and  C_9 
REMARK    4  A    between atoms: C_9  and  C_10 
REMARK    5  A    between atoms: C_13  and  C_14 
REMARK    6  A    between atoms: C_19  and  C_20 
ROOT
HETATM    1  C   UNL     1      25.513  45.934  52.357  1.00  0.00     0.096 A 
HETATM    2  C   UNL     1      24.768  46.231  51.230  1.00  0.00     0.138 A 
HETATM    3  N   UNL     1      24.616  45.042  50.552  1.00  0.00    -0.240 N 
HETATM    4  C   UNL     1      23.955  44.909  49.266  1.00  0.00     0.221 C 
HETATM    5  C   UNL     1      23.106  46.156  48.958  1.00  0.00     0.066 C 
HETATM    6  C   UNL     1      23.883  47.428  49.313  1.00  0.00     0.118 C 
HETATM    7  N   UNL     1      24.251  47.388  50.733  1.00  0.00    -0.365 N 
HETATM    8  N   UNL     1      25.338  44.037  51.072  1.00  0.00    -0.181 NA
HETATM    9  C   UNL     1      25.853  44.569  52.184  1.00  0.00     0.160 A 
HETATM   10  H   UNL     1      24.671  48.268  51.038  1.00  0.00     0.161 HD
ENDROOT
BRANCH   1  11
HETATM   11  C   UNL     1      25.935  46.790  53.447  1.00  0.00     0.257 C 
HETATM   12  N   UNL     1      26.917  46.260  54.252  1.00  0.00    -0.352 N 
HETATM   13  H   UNL     1      27.397  45.430  53.927  1.00  0.00     0.163 HD
HETATM   14  O   UNL     1      25.457  47.906  53.615  1.00  0.00    -0.267 OA
BRANCH  12  15
HETATM   15  C   UNL     1      27.450  46.974  55.387  1.00  0.00     0.161 C 
BRANCH  15  16
HETATM   16  C   UNL     1      28.520  46.196  56.109  1.00  0.00    -0.040 A 
HETATM   17  C   UNL     1      29.376  45.333  55.413  1.00  0.00     0.011 A 
HETATM   18  C   UNL     1      30.404  44.662  56.080  1.00  0.00     0.037 A 
HETATM   19  C   UNL     1      30.610  44.855  57.447  1.00  0.00     0.068 A 
HETATM   20  C   UNL     1      29.755  45.700  58.152  1.00  0.00     0.037 A 
HETATM   21  C   UNL     1      28.719  46.368  57.486  1.00  0.00     0.011 A 
BRANCH  19  22
HETATM   22  O   UNL     1      31.665  44.162  57.976  1.00  0.00    -0.356 OA
HETATM   23  C   UNL     1      32.114  43.032  57.239  1.00  0.00     0.210 C 
ENDBRANCH  19  22
ENDBRANCH  15  16
ENDBRANCH  12  15
ENDBRANCH   1  11
BRANCH   4  24
HETATM   24  C   UNL     1      23.083  43.673  49.203  1.00  0.00     0.409 C 
HETATM   25  F   UNL     1      22.420  43.450  50.360  1.00  0.00    -0.169 F 
HETATM   26  F   UNL     1      22.135  43.837  48.240  1.00  0.00    -0.169 F 
HETATM   27  F   UNL     1      23.756  42.552  48.874  1.00  0.00    -0.169 F 
ENDBRANCH   4  24
BRANCH   6  28
HETATM   28  C   UNL     1      23.081  48.683  49.036  1.00  0.00    -0.035 A 
HETATM   29  C   UNL     1      21.679  48.652  48.949  1.00  0.00     0.009 A 
HETATM   30  C   UNL     1      20.954  49.814  48.681  1.00  0.00     0.001 A 
HETATM   31  C   UNL     1      21.620  51.023  48.499  1.00  0.00     0.000 A 
HETATM   32  C   UNL     1      23.009  51.073  48.588  1.00  0.00     0.001 A 
HETATM   33  C   UNL     1      23.736  49.911  48.855  1.00  0.00     0.009 A 
ENDBRANCH   6  28
TORSDOF 6
ENDMDL
MODEL 2
REMARK VINA RESULT:      -9.9      2.817      9.148
REMARK  6 active torsions:
REMARK  status: ('A' for Active; 'I' for Inactive)
REMARK    1  A    between atoms: O_2  and  C_3 
REMARK    2  A    between atoms: C_6  and  C_7 
REMARK    3  A    between atoms: C_7  and  N_8 
REMARK       I    between atoms: N_8  and  C_9 
REMARK    4  A    between atoms: C_9  and  C_10 
REMARK    5  A    between atoms: C_13  and  C_14 
REMARK    6  A    between atoms: C_19  and  C_20 
ROOT
HETATM    1  C   UNL     1      26.219  45.206  50.883  1.00  0.00     0.096 A 
HETATM    2  C   UNL     1      26.921  44.380  51.741  1.00  0.00     0.138 A 
HETATM    3  N   UNL     1      26.682  43.094  51.308  1.00  0.00    -0.240 N 
HETATM    4  C   UNL     1      27.171  41.899  51.973  1.00  0.00     0.221 C 
HETATM    5  C   UNL     1      28.303  42.249  52.957  1.00  0.00     0.066 C 
HETATM    6  C   UNL     1      27.940  43.501  53.761  1.00  0.00     0.118 C 
HETATM    7  N   UNL     1      27.694  44.614  52.836  1.00  0.00    -0.365 N 
HETATM    8  N   UNL     1      25.757  43.023  50.339  1.00  0.00    -0.181 NA
HETATM    9  C   UNL     1      25.503  44.304  50.058  1.00  0.00     0.160 A 
HETATM   10  H   UNL     1      27.560  45.496  53.335  1.00  0.00     0.161 HD
ENDROOT
BRANCH   1  11
HETATM   11  C   UNL     1      26.141  46.653  50.838  1.00  0.00     0.257 C 
HETATM   12  N   UNL     1      26.057  47.189  49.574  1.00  0.00    -0.352 N 
HETATM   13  H   UNL     1      25.862  46.559  48.806  1.00  0.00     0.163 HD
HETATM   14  O   UNL     1      26.134  47.332  51.859  1.00  0.00    -0.267 OA
BRANCH  12  15
HETATM   15  C   UNL     1      25.978  48.612  49.346  1.00  0.00     0.161 C 
BRANCH  15  16
HETATM   16  C   UNL     1      24.601  49.052  48.916  1.00  0.00    -0.040 A 
HETATM   17  C   UNL     1      23.457  48.386  49.373  1.00  0.00     0.011 A 
HETATM   18  C   UNL     1      22.184  48.839  49.019  1.00  0.00     0.037 A 
HETATM   19  C   UNL     1      22.027  49.973  48.222  1.00  0.00     0.068 A 
HETATM   20  C   UNL     1      23.160  50.636  47.751  1.00  0.00     0.037 A 
HETATM   21  C   UNL     1      24.438  50.179  48.098  1.00  0.00     0.011 A 
BRANCH  19  22
HETATM   22  O   UNL     1      20.731  50.329  47.970  1.00  0.00    -0.356 OA
HETATM   23  C   UNL     1      20.286  51.552  48.542  1.00  0.00     0.210 C 
ENDBRANCH  19  22
ENDBRANCH  15  16
ENDBRANCH  12  15
ENDBRANCH   1  11
BRANCH   4  24
HETATM   24  C   UNL     1      27.660  40.862  50.985  1.00  0.00     0.409 C 
HETATM   25  F   UNL     1      28.179  41.418  49.867  1.00  0.00    -0.169 F 
HETATM   26  F   UNL     1      28.659  40.132  51.552  1.00  0.00    -0.169 F 
HETATM   27  F   UNL     1      26.714  39.974  50.619  1.00  0.00    -0.169 F 
ENDBRANCH   4  24
BRANCH   6  28
HETATM   28  C   UNL     1      29.031  43.890  54.737  1.00  0.00    -0.035 A 
HETATM   29  C   UNL     1      29.044  45.151  55.356  1.00  0.00     0.009 A 
HETATM   30  C   UNL     1      30.063  45.500  56.243  1.00  0.00     0.001 A 
HETATM   31  C   UNL     1      31.080  44.593  56.528  1.00  0.00     0.000 A 
HETATM   32  C   UNL     1      31.079  43.336  55.928  1.00  0.00     0.001 A 
HETATM   33  C   UNL     1      30.061  42.985  55.038  1.00  0.00     0.009 A 
ENDBRANCH   6  28
TORSDOF 6
ENDMDL
MODEL 3
REMARK VINA RESULT:      -9.5      5.340      9.797
REMARK  6 active torsions:
REMARK  status: ('A' for Active; 'I' for Inactive)
REMARK    1  A    between atoms: O_2  and  C_3 
REMARK    2  A    between atoms: C_6  and  C_7 
REMARK    3  A    between atoms: C_7  and  N_8 
REMARK       I    between atoms: N_8  and  C_9 
REMARK    4  A    between atoms: C_9  and  C_10 
REMARK    5  A    between atoms: C_13  and  C_14 
REMARK    6  A    between atoms: C_19  and  C_20 
ROOT
HETATM    1  C   UNL     1      27.799  42.511  52.099  1.00  0.00     0.096 A 
HETATM    2  C   UNL     1      28.068  43.470  53.058  1.00  0.00     0.138 A 
HETATM    3  N   UNL     1      27.184  44.499  52.822  1.00  0.00    -0.240 N 
HETATM    4  C   UNL     1      27.167  45.752  53.557  1.00  0.00     0.221 C 
HETATM    5  C   UNL     1      27.963  45.625  54.869  1.00  0.00     0.066 C 
HETATM    6  C   UNL     1      29.278  44.878  54.620  1.00  0.00     0.118 C 
HETATM    7  N   UNL     1      28.984  43.554  54.061  1.00  0.00    -0.365 N 
HETATM    8  N   UNL     1      26.478  44.346  51.691  1.00  0.00    -0.181 NA
HETATM    9  C   UNL     1      26.826  43.125  51.272  1.00  0.00     0.160 A 
HETATM   10  H   UNL     1      29.826  42.981  53.987  1.00  0.00     0.161 HD
ENDROOT
BRANCH   1  11
HETATM   11  C   UNL     1      28.392  41.203  51.897  1.00  0.00     0.257 C 
HETATM   12  N   UNL     1      28.347  40.742  50.602  1.00  0.00    -0.352 N 
HETATM   13  H   UNL     1      28.094  41.399  49.874  1.00  0.00     0.163 HD
HETATM   14  O   UNL     1      28.906  40.578  52.817  1.00  0.00    -0.267 OA
BRANCH  12  15
HETATM   15  C   UNL     1      28.885  39.457  50.224  1.00  0.00     0.161 C 
BRANCH  15  16
HETATM   16  C   UNL     1      28.597  39.110  48.786  1.00  0.00    -0.040 A 
HETATM   17  C   UNL     1      28.123  40.079  47.893  1.00  0.00     0.011 A 
HETATM   18  C   UNL     1      27.917  39.765  46.548  1.00  0.00     0.037 A 
HETATM   19  C   UNL     1      28.199  38.487  46.064  1.00  0.00     0.068 A 
HETATM   20  C   UNL     1      28.658  37.511  46.947  1.00  0.00     0.037 A 
HETATM   21  C   UNL     1      28.858  37.822  48.298  1.00  0.00     0.011 A 
BRANCH  19  22
HETATM   22  O   UNL     1      27.980  38.313  44.725  1.00  0.00    -0.356 OA
HETATM   23  C   UNL     1      29.047  37.741  43.978  1.00  0.00     0.210 C 
ENDBRANCH  19  22
ENDBRANCH  15  16
ENDBRANCH  12  15
ENDBRANCH   1  11
BRANCH   4  24
HETATM   24  C   UNL     1      25.756  46.209  53.862  1.00  0.00     0.409 C 
HETATM   25  F   UNL     1      24.971  45.200  54.303  1.00  0.00    -0.169 F 
HETATM   26  F   UNL     1      25.786  47.139  54.856  1.00  0.00    -0.169 F 
HETATM   27  F   UNL     1      25.141  46.802  52.819  1.00  0.00    -0.169 F 
ENDBRANCH   4  24
BRANCH   6  28
HETATM   28  C   UNL     1      30.092  44.720  55.888  1.00  0.00    -0.035 A 
HETATM   29  C   UNL     1      30.997  43.657  56.049  1.00  0.00     0.009 A 
HETATM   30  C   UNL     1      31.731  43.516  57.227  1.00  0.00     0.001 A 
HETATM   31  C   UNL     1      31.575  44.437  58.259  1.00  0.00     0.000 A 
HETATM   32  C   UNL     1      30.687  45.501  58.114  1.00  0.00     0.001 A 
HETATM   33  C   UNL     1      29.950  45.642  56.937  1.00  0.00     0.009 A 
ENDBRANCH   6  28
TORSDOF 6
ENDMDL
MODEL 4
REMARK VINA RESULT:      -9.5      2.915      9.108
REMARK  6 active torsions:
REMARK  status: ('A' for Active; 'I' for Inactive)
REMARK    1  A    between atoms: O_2  and  C_3 
REMARK    2  A    between atoms: C_6  and  C_7 
REMARK    3  A    between atoms: C_7  and  N_8 
REMARK       I    between atoms: N_8  and  C_9 
REMARK    4  A    between atoms: C_9  and  C_10 
REMARK    5  A    between atoms: C_13  and  C_14 
REMARK    6  A    between atoms: C_19  and  C_20 
ROOT
HETATM    1  C   UNL     1      23.833  46.429  49.578  1.00  0.00     0.096 A 
HETATM    2  C   UNL     1      24.523  45.717  50.542  1.00  0.00     0.138 A 
HETATM    3  N   UNL     1      24.353  44.387  50.224  1.00  0.00    -0.240 N 
HETATM    4  C   UNL     1      24.854  43.282  51.023  1.00  0.00     0.221 C 
HETATM    5  C   UNL     1      25.924  43.769  52.017  1.00  0.00     0.066 C 
HETATM    6  C   UNL     1      25.475  45.075  52.680  1.00  0.00     0.118 C 
HETATM    7  N   UNL     1      25.233  46.085  51.643  1.00  0.00    -0.365 N 
HETATM    8  N   UNL     1      23.479  44.186  49.227  1.00  0.00    -0.181 NA
HETATM    9  C   UNL     1      23.191  45.424  48.813  1.00  0.00     0.160 A 
HETATM   10  H   UNL     1      25.043  47.003  52.049  1.00  0.00     0.161 HD
ENDROOT
BRANCH   1  11
HETATM   11  C   UNL     1      23.704  47.861  49.392  1.00  0.00     0.257 C 
HETATM   12  N   UNL     1      22.718  48.242  48.512  1.00  0.00    -0.352 N 
HETATM   13  H   UNL     1      22.048  47.542  48.219  1.00  0.00     0.163 HD
HETATM   14  O   UNL     1      24.415  48.657  49.994  1.00  0.00    -0.267 OA
BRANCH  12  15
HETATM   15  C   UNL     1      22.456  49.628  48.204  1.00  0.00     0.161 C 
BRANCH  15  16
HETATM   16  C   UNL     1      21.146  50.109  48.776  1.00  0.00    -0.040 A 
HETATM   17  C   UNL     1      20.674  51.399  48.507  1.00  0.00     0.011 A 
HETATM   18  C   UNL     1      19.431  51.815  48.989  1.00  0.00     0.037 A 
HETATM   19  C   UNL     1      18.628  50.948  49.731  1.00  0.00     0.068 A 
HETATM   20  C   UNL     1      19.095  49.665  50.016  1.00  0.00     0.037 A 
HETATM   21  C   UNL     1      20.344  49.249  49.540  1.00  0.00     0.011 A 
BRANCH  19  22
HETATM   22  O   UNL     1      17.424  51.465  50.122  1.00  0.00    -0.356 OA
HETATM   23  C   UNL     1      17.196  52.837  49.822  1.00  0.00     0.210 C 
ENDBRANCH  19  22
ENDBRANCH  15  16
ENDBRANCH  12  15
ENDBRANCH   1  11
BRANCH   4  24
HETATM   24  C   UNL     1      25.427  42.177  50.161  1.00  0.00     0.409 C 
HETATM   25  F   UNL     1      26.224  42.651  49.176  1.00  0.00    -0.169 F 
HETATM   26  F   UNL     1      26.205  41.363  50.928  1.00  0.00    -0.169 F 
HETATM   27  F   UNL     1      24.492  41.381  49.606  1.00  0.00    -0.169 F 
ENDBRANCH   4  24
BRANCH   6  28
HETATM   28  C   UNL     1      26.503  45.599  53.662  1.00  0.00    -0.035 A 
HETATM   29  C   UNL     1      26.560  46.960  54.007  1.00  0.00     0.009 A 
HETATM   30  C   UNL     1      27.520  47.431  54.903  1.00  0.00     0.001 A 
HETATM   31  C   UNL     1      28.435  46.548  55.470  1.00  0.00     0.000 A 
HETATM   32  C   UNL     1      28.390  45.194  55.144  1.00  0.00     0.001 A 
HETATM   33  C   UNL     1      27.430  44.722  54.246  1.00  0.00     0.009 A 
ENDBRANCH   6  28
TORSDOF 6
ENDMDL
MODEL 5
REMARK VINA RESULT:      -9.3      1.320      1.922
REMARK  6 active torsions:
REMARK  status: ('A' for Active; 'I' for Inactive)
REMARK    1  A    between atoms: O_2  and  C_3 
REMARK    2  A    between atoms: C_6  and  C_7 
REMARK    3  A    between atoms: C_7  and  N_8 
REMARK       I    between atoms: N_8  and  C_9 
REMARK    4  A    between atoms: C_9  and  C_10 
REMARK    5  A    between atoms: C_13  and  C_14 
REMARK    6  A    between atoms: C_19  and  C_20 
ROOT
HETATM    1  C   UNL     1      25.106  45.774  51.053  1.00  0.00     0.096 A 
HETATM    2  C   UNL     1      24.188  46.216  50.117  1.00  0.00     0.138 A 
HETATM    3  N   UNL     1      24.013  45.171  49.237  1.00  0.00    -0.240 N 
HETATM    4  C   UNL     1      23.182  45.231  48.047  1.00  0.00     0.221 C 
HETATM    5  C   UNL     1      22.222  46.433  48.112  1.00  0.00     0.066 C 
HETATM    6  C   UNL     1      22.963  47.676  48.616  1.00  0.00     0.118 C 
HETATM    7  N   UNL     1      23.534  47.396  49.937  1.00  0.00    -0.365 N 
HETATM    8  N   UNL     1      24.863  44.154  49.443  1.00  0.00    -0.181 NA
HETATM    9  C   UNL     1      25.500  44.505  50.564  1.00  0.00     0.160 A 
HETATM   10  H   UNL     1      23.939  48.235  50.358  1.00  0.00     0.161 HD
ENDROOT
BRANCH   1  11
HETATM   11  C   UNL     1      25.628  46.438  52.231  1.00  0.00     0.257 C 
HETATM   12  N   UNL     1      26.384  45.639  53.057  1.00  0.00    -0.352 N 
HETATM   13  H   UNL     1      26.678  44.738  52.703  1.00  0.00     0.163 HD
HETATM   14  O   UNL     1      25.417  47.625  52.450  1.00  0.00    -0.267 OA
BRANCH  12  15
HETATM   15  C   UNL     1      26.976  46.136  54.276  1.00  0.00     0.161 C 
BRANCH  15  16
HETATM   16  C   UNL     1      28.198  45.353  54.685  1.00  0.00    -0.040 A 
HETATM   17  C   UNL     1      29.085  45.854  55.647  1.00  0.00     0.011 A 
HETATM   18  C   UNL     1      30.180  45.095  56.065  1.00  0.00     0.037 A 
HETATM   19  C   UNL     1      30.400  43.817  55.550  1.00  0.00     0.068 A 
HETATM   20  C   UNL     1      29.531  43.315  54.582  1.00  0.00     0.037 A 
HETATM   21  C   UNL     1      28.436  44.077  54.156  1.00  0.00     0.011 A 
BRANCH  19  22
HETATM   22  O   UNL     1      31.490  43.167  56.060  1.00  0.00    -0.356 OA
HETATM   23  C   UNL     1      31.871  43.512  57.386  1.00  0.00     0.210 C 
ENDBRANCH  19  22
ENDBRANCH  15  16
ENDBRANCH  12  15
ENDBRANCH   1  11
BRANCH   4  24
HETATM   24  C   UNL     1      22.389  43.958  47.847  1.00  0.00     0.409 C 
HETATM   25  F   UNL     1      22.043  43.376  49.018  1.00  0.00    -0.169 F 
HETATM   26  F   UNL     1      21.226  44.246  47.200  1.00  0.00    -0.169 F 
HETATM   27  F   UNL     1      23.019  43.040  47.086  1.00  0.00    -0.169 F 
ENDBRANCH   4  24
BRANCH   6  28
HETATM   28  C   UNL     1      22.053  48.885  48.707  1.00  0.00    -0.035 A 
HETATM   29  C   UNL     1      22.495  50.163  48.327  1.00  0.00     0.009 A 
HETATM   30  C   UNL     1      21.650  51.269  48.429  1.00  0.00     0.001 A 
HETATM   31  C   UNL     1      20.351  51.113  48.907  1.00  0.00     0.000 A 
HETATM   32  C   UNL     1      19.896  49.851  49.282  1.00  0.00     0.001 A 
HETATM   33  C   UNL     1      20.740  48.743  49.183  1.00  0.00     0.009 A 
ENDBRANCH   6  28
TORSDOF 6
ENDMDL
MODEL 6
REMARK VINA RESULT:      -9.2      1.856      2.554
REMARK  6 active torsions:
REMARK  status: ('A' for Active; 'I' for Inactive)
REMARK    1  A    between atoms: O_2  and  C_3 
REMARK    2  A    between atoms: C_6  and  C_7 
REMARK    3  A    between atoms: C_7  and  N_8 
REMARK       I    between atoms: N_8  and  C_9 
REMARK    4  A    between atoms: C_9  and  C_10 
REMARK    5  A    between atoms: C_13  and  C_14 
REMARK    6  A    between atoms: C_19  and  C_20 
ROOT
HETATM    1  C   UNL     1      24.860  46.488  50.262  1.00  0.00     0.096 A 
HETATM    2  C   UNL     1      23.711  46.874  49.596  1.00  0.00     0.138 A 
HETATM    3  N   UNL     1      23.382  45.823  48.769  1.00  0.00    -0.240 N 
HETATM    4  C   UNL     1      22.276  45.834  47.827  1.00  0.00     0.221 C 
HETATM    5  C   UNL     1      21.293  46.973  48.155  1.00  0.00     0.066 C 
HETATM    6  C   UNL     1      22.061  48.259  48.478  1.00  0.00     0.118 C 
HETATM    7  N   UNL     1      22.963  48.011  49.608  1.00  0.00    -0.365 N 
HETATM    8  N   UNL     1      24.317  44.860  48.735  1.00  0.00    -0.181 NA
HETATM    9  C   UNL     1      25.193  45.247  49.666  1.00  0.00     0.160 A 
HETATM   10  H   UNL     1      23.410  48.872  49.929  1.00  0.00     0.161 HD
ENDROOT
BRANCH   1  11
HETATM   11  C   UNL     1      25.621  47.180  51.283  1.00  0.00     0.257 C 
HETATM   12  N   UNL     1      25.293  46.844  52.576  1.00  0.00    -0.352 N 
HETATM   13  H   UNL     1      24.709  46.030  52.720  1.00  0.00     0.163 HD
HETATM   14  O   UNL     1      26.499  47.986  50.999  1.00  0.00    -0.267 OA
BRANCH  12  15
HETATM   15  C   UNL     1      25.948  47.441  53.716  1.00  0.00     0.161 C 
BRANCH  15  16
HETATM   16  C   UNL     1      27.052  46.575  54.266  1.00  0.00    -0.040 A 
HETATM   17  C   UNL     1      27.164  45.229  53.895  1.00  0.00     0.011 A 
HETATM   18  C   UNL     1      28.226  44.451  54.362  1.00  0.00     0.037 A 
HETATM   19  C   UNL     1      29.205  45.003  55.188  1.00  0.00     0.068 A 
HETATM   20  C   UNL     1      29.096  46.338  55.574  1.00  0.00     0.037 A 
HETATM   21  C   UNL     1      28.028  47.119  55.114  1.00  0.00     0.011 A 
BRANCH  19  22
HETATM   22  O   UNL     1      30.206  44.145  55.554  1.00  0.00    -0.356 OA
HETATM   23  C   UNL     1      30.396  43.005  54.726  1.00  0.00     0.210 C 
ENDBRANCH  19  22
ENDBRANCH  15  16
ENDBRANCH  12  15
ENDBRANCH   1  11
BRANCH   4  24
HETATM   24  C   UNL     1      21.536  44.514  47.810  1.00  0.00     0.409 C 
HETATM   25  F   UNL     1      21.529  43.910  49.021  1.00  0.00    -0.169 F 
HETATM   26  F   UNL     1      20.233  44.730  47.479  1.00  0.00    -0.169 F 
HETATM   27  F   UNL     1      22.009  43.638  46.901  1.00  0.00    -0.169 F 
ENDBRANCH   4  24
BRANCH   6  28
HETATM   28  C   UNL     1      21.133  49.407  48.817  1.00  0.00    -0.035 A 
HETATM   29  C   UNL     1      21.295  50.676  48.235  1.00  0.00     0.009 A 
HETATM   30  C   UNL     1      20.441  51.728  48.567  1.00  0.00     0.001 A 
HETATM   31  C   UNL     1      19.410  51.527  49.482  1.00  0.00     0.000 A 
HETATM   32  C   UNL     1      19.232  50.274  50.064  1.00  0.00     0.001 A 
HETATM   33  C   UNL     1      20.087  49.220  49.735  1.00  0.00     0.009 A 
ENDBRANCH   6  28
TORSDOF 6
ENDMDL
MODEL 7
REMARK VINA RESULT:      -9.0      2.897      4.625
REMARK  6 active torsions:
REMARK  status: ('A' for Active; 'I' for Inactive)
REMARK    1  A    between atoms: O_2  and  C_3 
REMARK    2  A    between atoms: C_6  and  C_7 
REMARK    3  A    between atoms: C_7  and  N_8 
REMARK       I    between atoms: N_8  and  C_9 
REMARK    4  A    between atoms: C_9  and  C_10 
REMARK    5  A    between atoms: C_13  and  C_14 
REMARK    6  A    between atoms: C_19  and  C_20 
ROOT
HETATM    1  C   UNL     1      25.855  45.815  50.321  1.00  0.00     0.096 A 
HETATM    2  C   UNL     1      24.661  45.912  49.630  1.00  0.00     0.138 A 
HETATM    3  N   UNL     1      24.256  47.223  49.754  1.00  0.00    -0.240 N 
HETATM    4  C   UNL     1      23.004  47.748  49.237  1.00  0.00     0.221 C 
HETATM    5  C   UNL     1      22.394  46.784  48.203  1.00  0.00     0.066 C 
HETATM    6  C   UNL     1      22.492  45.339  48.704  1.00  0.00     0.118 C 
HETATM    7  N   UNL     1      23.899  45.008  48.954  1.00  0.00    -0.365 N 
HETATM    8  N   UNL     1      25.014  47.935  50.601  1.00  0.00    -0.181 NA
HETATM    9  C   UNL     1      26.002  47.092  50.917  1.00  0.00     0.160 A 
HETATM   10  H   UNL     1      24.019  44.019  49.180  1.00  0.00     0.161 HD
ENDROOT
BRANCH   1  11
HETATM   11  C   UNL     1      26.746  44.684  50.488  1.00  0.00     0.257 C 
HETATM   12  N   UNL     1      27.210  44.499  51.770  1.00  0.00    -0.352 N 
HETATM   13  H   UNL     1      26.764  45.019  52.514  1.00  0.00     0.163 HD
HETATM   14  O   UNL     1      27.038  43.948  49.553  1.00  0.00    -0.267 OA
BRANCH  12  15
HETATM   15  C   UNL     1      28.110  43.425  52.114  1.00  0.00     0.161 C 
BRANCH  15  16
HETATM   16  C   UNL     1      28.861  43.687  53.394  1.00  0.00    -0.040 A 
HETATM   17  C   UNL     1      29.970  42.911  53.751  1.00  0.00     0.011 A 
HETATM   18  C   UNL     1      30.697  43.200  54.908  1.00  0.00     0.037 A 
HETATM   19  C   UNL     1      30.345  44.280  55.718  1.00  0.00     0.068 A 
HETATM   20  C   UNL     1      29.234  45.051  55.380  1.00  0.00     0.037 A 
HETATM   21  C   UNL     1      28.499  44.758  54.225  1.00  0.00     0.011 A 
BRANCH  19  22
HETATM   22  O   UNL     1      31.152  44.474  56.806  1.00  0.00    -0.356 OA
HETATM   23  C   UNL     1      31.901  43.349  57.248  1.00  0.00     0.210 C 
ENDBRANCH  19  22
ENDBRANCH  15  16
ENDBRANCH  12  15
ENDBRANCH   1  11
BRANCH   4  24
HETATM   24  C   UNL     1      23.181  49.116  48.614  1.00  0.00     0.409 C 
HETATM   25  F   UNL     1      23.072  50.114  49.519  1.00  0.00    -0.169 F 
HETATM   26  F   UNL     1      24.430  49.213  48.081  1.00  0.00    -0.169 F 
HETATM   27  F   UNL     1      22.326  49.365  47.601  1.00  0.00    -0.169 F 
ENDBRANCH   4  24
BRANCH   6  28
HETATM   28  C   UNL     1      21.911  44.351  47.712  1.00  0.00    -0.035 A 
HETATM   29  C   UNL     1      22.570  43.149  47.406  1.00  0.00     0.009 A 
HETATM   30  C   UNL     1      22.030  42.254  46.481  1.00  0.00     0.001 A 
HETATM   31  C   UNL     1      20.823  42.547  45.852  1.00  0.00     0.000 A 
HETATM   32  C   UNL     1      20.154  43.732  46.148  1.00  0.00     0.001 A 
HETATM   33  C   UNL     1      20.693  44.629  47.072  1.00  0.00     0.009 A 
ENDBRANCH   6  28
TORSDOF 6
ENDMDL
MODEL 8
REMARK VINA RESULT:      -8.7      3.445      4.916
REMARK  6 active torsions:
REMARK  status: ('A' for Active; 'I' for Inactive)
REMARK    1  A    between atoms: O_2  and  C_3 
REMARK    2  A    between atoms: C_6  and  C_7 
REMARK    3  A    between atoms: C_7  and  N_8 
REMARK       I    between atoms: N_8  and  C_9 
REMARK    4  A    between atoms: C_9  and  C_10 
REMARK    5  A    between atoms: C_13  and  C_14 
REMARK    6  A    between atoms: C_19  and  C_20 
ROOT
HETATM    1  C   UNL     1      24.852  46.308  49.753  1.00  0.00     0.096 A 
HETATM    2  C   UNL     1      23.623  46.695  49.252  1.00  0.00     0.138 A 
HETATM    3  N   UNL     1      23.591  48.069  49.344  1.00  0.00    -0.240 N 
HETATM    4  C   UNL     1      22.445  48.889  48.993  1.00  0.00     0.221 C 
HETATM    5  C   UNL     1      21.445  48.091  48.137  1.00  0.00     0.066 C 
HETATM    6  C   UNL     1      21.256  46.685  48.716  1.00  0.00     0.118 C 
HETATM    7  N   UNL     1      22.554  46.004  48.767  1.00  0.00    -0.365 N 
HETATM    8  N   UNL     1      24.637  48.581  50.011  1.00  0.00    -0.181 NA
HETATM    9  C   UNL     1      25.417  47.517  50.228  1.00  0.00     0.160 A 
HETATM   10  H   UNL     1      22.456  45.025  49.041  1.00  0.00     0.161 HD
ENDROOT
BRANCH   1  11
HETATM   11  C   UNL     1      25.441  44.988  49.859  1.00  0.00     0.257 C 
HETATM   12  N   UNL     1      26.495  44.894  50.738  1.00  0.00    -0.352 N 
HETATM   13  H   UNL     1      26.653  45.668  51.371  1.00  0.00     0.163 HD
HETATM   14  O   UNL     1      25.011  44.035  49.220  1.00  0.00    -0.267 OA
BRANCH  12  15
HETATM   15  C   UNL     1      27.201  43.656  50.963  1.00  0.00     0.161 C 
BRANCH  15  16
HETATM   16  C   UNL     1      28.014  43.676  52.232  1.00  0.00    -0.040 A 
HETATM   17  C   UNL     1      29.170  42.896  52.360  1.00  0.00     0.011 A 
HETATM   18  C   UNL     1      29.950  42.967  53.516  1.00  0.00     0.037 A 
HETATM   19  C   UNL     1      29.605  43.830  54.556  1.00  0.00     0.068 A 
HETATM   20  C   UNL     1      28.448  44.601  54.446  1.00  0.00     0.037 A 
HETATM   21  C   UNL     1      27.660  44.525  53.291  1.00  0.00     0.011 A 
BRANCH  19  22
HETATM   22  O   UNL     1      30.464  43.827  55.621  1.00  0.00    -0.356 OA
HETATM   23  C   UNL     1      30.531  45.025  56.385  1.00  0.00     0.210 C 
ENDBRANCH  19  22
ENDBRANCH  15  16
ENDBRANCH  12  15
ENDBRANCH   1  11
BRANCH   4  24
HETATM   24  C   UNL     1      22.856  50.146  48.255  1.00  0.00     0.409 C 
HETATM   25  F   UNL     1      23.945  49.956  47.478  1.00  0.00    -0.169 F 
HETATM   26  F   UNL     1      21.849  50.530  47.422  1.00  0.00    -0.169 F 
HETATM   27  F   UNL     1      23.089  51.198  49.065  1.00  0.00    -0.169 F 
ENDBRANCH   4  24
BRANCH   6  28
HETATM   28  C   UNL     1      20.285  45.857  47.899  1.00  0.00    -0.035 A 
HETATM   29  C   UNL     1      18.906  46.128  47.905  1.00  0.00     0.009 A 
HETATM   30  C   UNL     1      18.022  45.349  47.157  1.00  0.00     0.001 A 
HETATM   31  C   UNL     1      18.504  44.291  46.391  1.00  0.00     0.000 A 
HETATM   32  C   UNL     1      19.869  44.013  46.369  1.00  0.00     0.001 A 
HETATM   33  C   UNL     1      20.754  44.790  47.118  1.00  0.00     0.009 A 
ENDBRANCH   6  28
TORSDOF 6
ENDMDL
MODEL 9
REMARK VINA RESULT:      -8.7      4.463      6.914
REMARK  6 active torsions:
REMARK  status: ('A' for Active; 'I' for Inactive)
REMARK    1  A    between atoms: O_2  and  C_3 
REMARK    2  A    between atoms: C_6  and  C_7 
REMARK    3  A    between atoms: C_7  and  N_8 
REMARK       I    between atoms: N_8  and  C_9 
REMARK    4  A    between atoms: C_9  and  C_10 
REMARK    5  A    between atoms: C_13  and  C_14 
REMARK    6  A    between atoms: C_19  and  C_20 
ROOT
HETATM    1  C   UNL     1      20.453  46.634  48.694  1.00  0.00     0.096 A 
HETATM    2  C   UNL     1      21.320  47.706  48.799  1.00  0.00     0.138 A 
HETATM    3  N   UNL     1      20.527  48.823  48.939  1.00  0.00    -0.240 N 
HETATM    4  C   UNL     1      21.031  50.184  49.009  1.00  0.00     0.221 C 
HETATM    5  C   UNL     1      22.539  50.191  49.316  1.00  0.00     0.066 C 
HETATM    6  C   UNL     1      23.257  49.132  48.474  1.00  0.00     0.118 C 
HETATM    7  N   UNL     1      22.677  47.814  48.758  1.00  0.00    -0.365 N 
HETATM    8  N   UNL     1      19.220  48.571  48.773  1.00  0.00    -0.181 NA
HETATM    9  C   UNL     1      19.173  47.240  48.660  1.00  0.00     0.160 A 
HETATM   10  H   UNL     1      23.202  47.065  48.303  1.00  0.00     0.161 HD
ENDROOT
BRANCH   1  11
HETATM   11  C   UNL     1      20.733  45.217  48.573  1.00  0.00     0.257 C 
HETATM   12  N   UNL     1      21.947  44.822  49.085  1.00  0.00    -0.352 N 
HETATM   13  H   UNL     1      22.453  45.481  49.663  1.00  0.00     0.163 HD
HETATM   14  O   UNL     1      19.930  44.441  48.068  1.00  0.00    -0.267 OA
BRANCH  12  15
HETATM   15  C   UNL     1      22.389  43.449  49.044  1.00  0.00     0.161 C 
BRANCH  15  16
HETATM   16  C   UNL     1      23.683  43.236  49.788  1.00  0.00    -0.040 A 
HETATM   17  C   UNL     1      24.176  44.208  50.668  1.00  0.00     0.011 A 
HETATM   18  C   UNL     1      25.343  43.977  51.399  1.00  0.00     0.037 A 
HETATM   19  C   UNL     1      26.028  42.767  51.283  1.00  0.00     0.068 A 
HETATM   20  C   UNL     1      25.554  41.798  50.400  1.00  0.00     0.037 A 
HETATM   21  C   UNL     1      24.388  42.031  49.660  1.00  0.00     0.011 A 
BRANCH  19  22
HETATM   22  O   UNL     1      27.140  42.653  52.072  1.00  0.00    -0.356 OA
HETATM   23  C   UNL     1      27.089  43.303  53.336  1.00  0.00     0.210 C 
ENDBRANCH  19  22
ENDBRANCH  15  16
ENDBRANCH  12  15
ENDBRANCH   1  11
BRANCH   4  24
HETATM   24  C   UNL     1      20.297  51.005  50.047  1.00  0.00     0.409 C 
HETATM   25  F   UNL     1      21.127  51.508  50.989  1.00  0.00    -0.169 F 
HETATM   26  F   UNL     1      19.704  52.073  49.444  1.00  0.00    -0.169 F 
HETATM   27  F   UNL     1      19.306  50.334  50.668  1.00  0.00    -0.169 F 
ENDBRANCH   4  24
BRANCH   6  28
HETATM   28  C   UNL     1      24.747  49.096  48.750  1.00  0.00    -0.035 A 
HETATM   29  C   UNL     1      25.622  50.024  48.164  1.00  0.00     0.009 A 
HETATM   30  C   UNL     1      26.994  49.971  48.418  1.00  0.00     0.001 A 
HETATM   31  C   UNL     1      27.508  48.992  49.263  1.00  0.00     0.000 A 
HETATM   32  C   UNL     1      26.653  48.066  49.858  1.00  0.00     0.001 A 
HETATM   33  C   UNL     1      25.281  48.117  49.604  1.00  0.00     0.009 A 
ENDBRANCH   6  28
TORSDOF 6
ENDMDL
MODEL 10
REMARK VINA RESULT:      -8.7      3.901      8.868
REMARK  6 active torsions:
REMARK  status: ('A' for Active; 'I' for Inactive)
REMARK    1  A    between atoms: O_2  and  C_3 
REMARK    2  A    between atoms: C_6  and  C_7 
REMARK    3  A    between atoms: C_7  and  N_8 
REMARK       I    between atoms: N_8  and  C_9 
REMARK    4  A    between atoms: C_9  and  C_10 
REMARK    5  A    between atoms: C_13  and  C_14 
REMARK    6  A    between atoms: C_19  and  C_20 
ROOT
HETATM    1  C   UNL     1      24.471  41.884  49.396  1.00  0.00     0.096 A 
HETATM    2  C   UNL     1      25.674  41.635  50.031  1.00  0.00     0.138 A 
HETATM    3  N   UNL     1      26.284  40.634  49.308  1.00  0.00    -0.240 N 
HETATM    4  C   UNL     1      27.545  40.011  49.671  1.00  0.00     0.221 C 
HETATM    5  C   UNL     1      28.299  40.869  50.703  1.00  0.00     0.066 C 
HETATM    6  C   UNL     1      27.334  41.371  51.782  1.00  0.00     0.118 C 
HETATM    7  N   UNL     1      26.262  42.147  51.147  1.00  0.00    -0.365 N 
HETATM    8  N   UNL     1      25.497  40.111  48.355  1.00  0.00    -0.181 NA
HETATM    9  C   UNL     1      24.413  40.892  48.385  1.00  0.00     0.160 A 
HETATM   10  H   UNL     1      25.660  42.595  51.840  1.00  0.00     0.161 HD
ENDROOT
BRANCH   1  11
HETATM   11  C   UNL     1      23.445  42.863  49.695  1.00  0.00     0.257 C 
HETATM   12  N   UNL     1      23.113  43.690  48.646  1.00  0.00    -0.352 N 
HETATM   13  H   UNL     1      23.447  43.441  47.724  1.00  0.00     0.163 HD
HETATM   14  O   UNL     1      22.911  42.924  50.796  1.00  0.00    -0.267 OA
BRANCH  12  15
HETATM   15  C   UNL     1      22.115  44.725  48.770  1.00  0.00     0.161 C 
BRANCH  15  16
HETATM   16  C   UNL     1      22.719  46.104  48.837  1.00  0.00    -0.040 A 
HETATM   17  C   UNL     1      22.141  47.178  48.147  1.00  0.00     0.011 A 
HETATM   18  C   UNL     1      22.671  48.465  48.265  1.00  0.00     0.037 A 
HETATM   19  C   UNL     1      23.772  48.709  49.087  1.00  0.00     0.068 A 
HETATM   20  C   UNL     1      24.363  47.645  49.767  1.00  0.00     0.037 A 
HETATM   21  C   UNL     1      23.838  46.353  49.645  1.00  0.00     0.011 A 
BRANCH  19  22
HETATM   22  O   UNL     1      24.178  50.014  49.137  1.00  0.00    -0.356 OA
HETATM   23  C   UNL     1      23.176  50.999  48.916  1.00  0.00     0.210 C 
ENDBRANCH  19  22
ENDBRANCH  15  16
ENDBRANCH  12  15
ENDBRANCH   1  11
BRANCH   4  24
HETATM   24  C   UNL     1      28.427  39.777  48.463  1.00  0.00     0.409 C 
HETATM   25  F   UNL     1      28.592  40.895  47.720  1.00  0.00    -0.169 F 
HETATM   26  F   UNL     1      29.669  39.401  48.876  1.00  0.00    -0.169 F 
HETATM   27  F   UNL     1      27.991  38.789  47.656  1.00  0.00    -0.169 F 
ENDBRANCH   4  24
BRANCH   6  28
HETATM   28  C   UNL     1      28.031  42.230  52.817  1.00  0.00    -0.035 A 
HETATM   29  C   UNL     1      27.319  43.147  53.607  1.00  0.00     0.009 A 
HETATM   30  C   UNL     1      27.976  43.941  54.548  1.00  0.00     0.001 A 
HETATM   31  C   UNL     1      29.354  43.828  54.714  1.00  0.00     0.000 A 
HETATM   32  C   UNL     1      30.075  42.919  53.942  1.00  0.00     0.001 A 
HETATM   33  C   UNL     1      29.419  42.125  52.999  1.00  0.00     0.009 A 
ENDBRANCH   6  28
TORSDOF 6
ENDMDL
