MODEL 1
REMARK VINA RESULT:      -9.4      0.000      0.000
REMARK  9 active torsions:
REMARK  status: ('A' for Active; 'I' for Inactive)
REMARK    1  A    between atoms: C_3  and  N_4 
REMARK    2  A    between atoms: N_4  and  S_5 
REMARK    3  A    between atoms: S_5  and  C_6 
REMARK    4  A    between atoms: C_12  and  C_13 
REMARK       I    between atoms: C_13  and  N_14 
REMARK    5  A    between atoms: N_14  and  C_15 
REMARK    6  A    between atoms: C_15  and  C_16 
REMARK    7  A    between atoms: C_16  and  C_17 
REMARK    8  A    between atoms: C_17  and  O_18 
REMARK    9  A    between atoms: O_18  and  C_19 
ROOT
HETATM    1  C   UNL     1      26.418  43.487  52.205  1.00  0.00     0.081 A 
HETATM    2  C   UNL     1      26.182  44.861  52.118  1.00  0.00     0.043 A 
HETATM    3  C   UNL     1      25.331  45.340  51.118  1.00  0.00     0.043 A 
HETATM    4  C   UNL     1      24.691  44.459  50.228  1.00  0.00     0.046 A 
HETATM    5  N   UNL     1      23.861  44.969  49.226  1.00  0.00    -0.364 N 
HETATM    6  C   UNL     1      23.659  46.320  49.093  1.00  0.00     0.109 A 
HETATM    7  C   UNL     1      24.216  47.268  49.867  1.00  0.00     0.098 A 
HETATM    8  C   UNL     1      25.109  46.803  50.965  1.00  0.00     0.201 A 
HETATM    9  O   UNL     1      25.674  47.593  51.719  1.00  0.00    -0.286 OA
HETATM   10  C   UNL     1      24.929  43.086  50.342  1.00  0.00     0.032 A 
HETATM   11  C   UNL     1      25.790  42.596  51.330  1.00  0.00     0.027 A 
HETATM   12  H   UNL     1      23.349  44.337  48.621  1.00  0.00     0.165 HD
ENDROOT
BRANCH   1  13
HETATM   13  S   UNL     1      27.494  42.877  53.482  1.00  0.00     0.263 S 
HETATM   14  O   UNL     1      28.052  41.618  53.034  1.00  0.00    -0.200 OA
HETATM   15  O   UNL     1      26.765  42.969  54.730  1.00  0.00    -0.200 OA
BRANCH  13  16
HETATM   16  N   UNL     1      28.699  44.046  53.551  1.00  0.00    -0.280 N 
HETATM   17  H   UNL     1      29.124  44.257  52.650  1.00  0.00     0.179 HD
BRANCH  16  18
HETATM   18  C   UNL     1      29.460  44.235  54.738  1.00  0.00     0.048 A 
HETATM   19  C   UNL     1      29.301  45.379  55.535  1.00  0.00    -0.035 A 
HETATM   20  C   UNL     1      28.373  46.509  55.190  1.00  0.00     0.050 C 
HETATM   21  C   UNL     1      30.097  45.510  56.687  1.00  0.00     0.009 A 
HETATM   22  C   UNL     1      31.007  44.517  57.051  1.00  0.00     0.001 A 
HETATM   23  C   UNL     1      31.145  43.381  56.260  1.00  0.00     0.002 A 
HETATM   24  C   UNL     1      30.378  43.244  55.105  1.00  0.00     0.030 A 
ENDBRANCH  16  18
ENDBRANCH  13  16
ENDBRANCH   1  13
BRANCH   7  25
HETATM   25  C   UNL     1      23.939  48.699  49.548  1.00  0.00     0.257 C 
HETATM   26  N   UNL     1      22.644  49.104  49.743  1.00  0.00    -0.357 N 
HETATM   27  H   UNL     1      21.962  48.413  50.060  1.00  0.00     0.162 HD
HETATM   28  O   UNL     1      24.827  49.458  49.167  1.00  0.00    -0.267 OA
BRANCH  26  29
HETATM   29  C   UNL     1      22.225  50.481  49.608  1.00  0.00     0.125 C 
BRANCH  29  30
HETATM   30  C   UNL     1      21.681  50.797  48.220  1.00  0.00     0.046 C 
BRANCH  30  31
HETATM   31  C   UNL     1      20.203  50.436  48.129  1.00  0.00     0.169 C 
BRANCH  31  32
HETATM   32  O   UNL     1      19.932  49.367  49.033  1.00  0.00    -0.387 OA
BRANCH  32  33
HETATM   33  C   UNL     1      18.677  49.489  49.709  1.00  0.00     0.113 C 
HETATM   34  C   UNL     1      18.656  48.669  50.996  1.00  0.00     0.039 C 
HETATM   35  C   UNL     1      18.481  50.967  50.026  1.00  0.00     0.039 C 
ENDBRANCH  32  33
ENDBRANCH  31  32
ENDBRANCH  30  31
ENDBRANCH  29  30
ENDBRANCH  26  29
ENDBRANCH   7  25
TORSDOF 9
ENDMDL
MODEL 2
REMARK VINA RESULT:      -9.1      2.375     10.428
REMARK  9 active torsions:
REMARK  status: ('A' for Active; 'I' for Inactive)
REMARK    1  A    between atoms: C_3  and  N_4 
REMARK    2  A    between atoms: N_4  and  S_5 
REMARK    3  A    between atoms: S_5  and  C_6 
REMARK    4  A    between atoms: C_12  and  C_13 
REMARK       I    between atoms: C_13  and  N_14 
REMARK    5  A    between atoms: N_14  and  C_15 
REMARK    6  A    between atoms: C_15  and  C_16 
REMARK    7  A    between atoms: C_16  and  C_17 
REMARK    8  A    between atoms: C_17  and  O_18 
REMARK    9  A    between atoms: O_18  and  C_19 
ROOT
HETATM    1  C   UNL     1      23.146  48.164  48.911  1.00  0.00     0.081 A 
HETATM    2  C   UNL     1      24.066  47.971  49.945  1.00  0.00     0.043 A 
HETATM    3  C   UNL     1      24.370  46.668  50.346  1.00  0.00     0.043 A 
HETATM    4  C   UNL     1      23.792  45.559  49.704  1.00  0.00     0.046 A 
HETATM    5  N   UNL     1      24.101  44.267  50.140  1.00  0.00    -0.364 N 
HETATM    6  C   UNL     1      24.962  44.061  51.188  1.00  0.00     0.109 A 
HETATM    7  C   UNL     1      25.574  45.028  51.893  1.00  0.00     0.098 A 
HETATM    8  C   UNL     1      25.301  46.435  51.483  1.00  0.00     0.201 A 
HETATM    9  O   UNL     1      25.803  47.391  52.072  1.00  0.00    -0.286 OA
HETATM   10  C   UNL     1      22.885  45.773  48.661  1.00  0.00     0.032 A 
HETATM   11  C   UNL     1      22.562  47.074  48.260  1.00  0.00     0.027 A 
HETATM   12  H   UNL     1      23.736  43.462  49.643  1.00  0.00     0.165 HD
ENDROOT
BRANCH   1  13
HETATM   13  S   UNL     1      22.765  49.823  48.395  1.00  0.00     0.263 S 
HETATM   14  O   UNL     1      23.625  50.153  47.279  1.00  0.00    -0.200 OA
HETATM   15  O   UNL     1      22.743  50.643  49.589  1.00  0.00    -0.200 OA
BRANCH  13  16
HETATM   16  N   UNL     1      21.171  49.700  47.876  1.00  0.00    -0.280 N 
HETATM   17  H   UNL     1      21.075  49.484  46.886  1.00  0.00     0.179 HD
BRANCH  16  18
HETATM   18  C   UNL     1      20.137  50.421  48.533  1.00  0.00     0.048 A 
HETATM   19  C   UNL     1      19.321  49.812  49.501  1.00  0.00    -0.035 A 
HETATM   20  C   UNL     1      19.428  48.363  49.884  1.00  0.00     0.050 C 
HETATM   21  C   UNL     1      18.305  50.578  50.101  1.00  0.00     0.009 A 
HETATM   22  C   UNL     1      18.124  51.920  49.768  1.00  0.00     0.001 A 
HETATM   23  C   UNL     1      18.947  52.516  48.818  1.00  0.00     0.002 A 
HETATM   24  C   UNL     1      19.946  51.766  48.200  1.00  0.00     0.030 A 
ENDBRANCH  16  18
ENDBRANCH  13  16
ENDBRANCH   1  13
BRANCH   7  25
HETATM   25  C   UNL     1      26.434  44.634  53.046  1.00  0.00     0.257 C 
HETATM   26  N   UNL     1      26.572  43.284  53.240  1.00  0.00    -0.357 N 
HETATM   27  H   UNL     1      26.068  42.650  52.617  1.00  0.00     0.162 HD
HETATM   28  O   UNL     1      26.998  45.471  53.745  1.00  0.00    -0.267 OA
BRANCH  26  29
HETATM   29  C   UNL     1      27.466  42.722  54.227  1.00  0.00     0.125 C 
BRANCH  29  30
HETATM   30  C   UNL     1      28.784  42.248  53.626  1.00  0.00     0.046 C 
BRANCH  30  31
HETATM   31  C   UNL     1      29.917  43.194  54.008  1.00  0.00     0.169 C 
BRANCH  31  32
HETATM   32  O   UNL     1      30.365  42.872  55.323  1.00  0.00    -0.387 OA
BRANCH  32  33
HETATM   33  C   UNL     1      31.170  43.891  55.922  1.00  0.00     0.113 C 
HETATM   34  C   UNL     1      30.357  45.153  56.198  1.00  0.00     0.039 C 
HETATM   35  C   UNL     1      31.714  43.322  57.228  1.00  0.00     0.039 C 
ENDBRANCH  32  33
ENDBRANCH  31  32
ENDBRANCH  30  31
ENDBRANCH  29  30
ENDBRANCH  26  29
ENDBRANCH   7  25
TORSDOF 9
ENDMDL
MODEL 3
REMARK VINA RESULT:      -8.7      2.518      3.236
REMARK  9 active torsions:
REMARK  status: ('A' for Active; 'I' for Inactive)
REMARK    1  A    between atoms: C_3  and  N_4 
REMARK    2  A    between atoms: N_4  and  S_5 
REMARK    3  A    between atoms: S_5  and  C_6 
REMARK    4  A    between atoms: C_12  and  C_13 
REMARK       I    between atoms: C_13  and  N_14 
REMARK    5  A    between atoms: N_14  and  C_15 
REMARK    6  A    between atoms: C_15  and  C_16 
REMARK    7  A    between atoms: C_16  and  C_17 
REMARK    8  A    between atoms: C_17  and  O_18 
REMARK    9  A    between atoms: O_18  and  C_19 
ROOT
HETATM    1  C   UNL     1      26.177  43.694  50.097  1.00  0.00     0.081 A 
HETATM    2  C   UNL     1      24.902  44.111  49.706  1.00  0.00     0.043 A 
HETATM    3  C   UNL     1      24.659  45.476  49.534  1.00  0.00     0.043 A 
HETATM    4  C   UNL     1      25.683  46.422  49.713  1.00  0.00     0.046 A 
HETATM    5  N   UNL     1      25.404  47.783  49.551  1.00  0.00    -0.364 N 
HETATM    6  C   UNL     1      24.145  48.213  49.221  1.00  0.00     0.109 A 
HETATM    7  C   UNL     1      23.077  47.418  49.030  1.00  0.00     0.098 A 
HETATM    8  C   UNL     1      23.295  45.951  49.177  1.00  0.00     0.201 A 
HETATM    9  O   UNL     1      22.379  45.143  49.034  1.00  0.00    -0.286 OA
HETATM   10  C   UNL     1      26.956  45.983  50.089  1.00  0.00     0.032 A 
HETATM   11  C   UNL     1      27.208  44.621  50.279  1.00  0.00     0.027 A 
HETATM   12  H   UNL     1      26.151  48.465  49.619  1.00  0.00     0.165 HD
ENDROOT
BRANCH   1  13
HETATM   13  S   UNL     1      26.488  41.956  50.309  1.00  0.00     0.263 S 
HETATM   14  O   UNL     1      27.783  41.660  49.733  1.00  0.00    -0.200 OA
HETATM   15  O   UNL     1      25.298  41.256  49.872  1.00  0.00    -0.200 OA
BRANCH  13  16
HETATM   16  N   UNL     1      26.551  41.785  51.980  1.00  0.00    -0.280 N 
HETATM   17  H   UNL     1      25.640  41.671  52.418  1.00  0.00     0.179 HD
BRANCH  16  18
HETATM   18  C   UNL     1      27.614  42.361  52.728  1.00  0.00     0.048 A 
HETATM   19  C   UNL     1      27.383  43.383  53.661  1.00  0.00    -0.035 A 
HETATM   20  C   UNL     1      26.030  43.988  53.912  1.00  0.00     0.050 C 
HETATM   21  C   UNL     1      28.482  43.920  54.356  1.00  0.00     0.009 A 
HETATM   22  C   UNL     1      29.772  43.432  54.149  1.00  0.00     0.001 A 
HETATM   23  C   UNL     1      29.987  42.409  53.231  1.00  0.00     0.002 A 
HETATM   24  C   UNL     1      28.911  41.879  52.520  1.00  0.00     0.030 A 
ENDBRANCH  16  18
ENDBRANCH  13  16
ENDBRANCH   1  13
BRANCH   7  25
HETATM   25  C   UNL     1      21.760  48.054  48.734  1.00  0.00     0.257 C 
HETATM   26  N   UNL     1      20.666  47.397  49.234  1.00  0.00    -0.357 N 
HETATM   27  H   UNL     1      20.814  46.522  49.741  1.00  0.00     0.162 HD
HETATM   28  O   UNL     1      21.680  49.109  48.109  1.00  0.00    -0.267 OA
BRANCH  26  29
HETATM   29  C   UNL     1      19.326  47.933  49.152  1.00  0.00     0.125 C 
BRANCH  29  30
HETATM   30  C   UNL     1      18.832  48.490  50.481  1.00  0.00     0.046 C 
BRANCH  30  31
HETATM   31  C   UNL     1      19.140  49.979  50.585  1.00  0.00     0.169 C 
BRANCH  31  32
HETATM   32  O   UNL     1      17.986  50.718  50.189  1.00  0.00    -0.387 OA
BRANCH  32  33
HETATM   33  C   UNL     1      18.252  52.098  49.920  1.00  0.00     0.113 C 
HETATM   34  C   UNL     1      19.016  52.274  48.611  1.00  0.00     0.039 C 
HETATM   35  C   UNL     1      16.904  52.806  49.840  1.00  0.00     0.039 C 
ENDBRANCH  32  33
ENDBRANCH  31  32
ENDBRANCH  30  31
ENDBRANCH  29  30
ENDBRANCH  26  29
ENDBRANCH   7  25
TORSDOF 9
ENDMDL
MODEL 4
REMARK VINA RESULT:      -8.6      2.713     10.028
REMARK  9 active torsions:
REMARK  status: ('A' for Active; 'I' for Inactive)
REMARK    1  A    between atoms: C_3  and  N_4 
REMARK    2  A    between atoms: N_4  and  S_5 
REMARK    3  A    between atoms: S_5  and  C_6 
REMARK    4  A    between atoms: C_12  and  C_13 
REMARK       I    between atoms: C_13  and  N_14 
REMARK    5  A    between atoms: N_14  and  C_15 
REMARK    6  A    between atoms: C_15  and  C_16 
REMARK    7  A    between atoms: C_16  and  C_17 
REMARK    8  A    between atoms: C_17  and  O_18 
REMARK    9  A    between atoms: O_18  and  C_19 
ROOT
HETATM    1  C   UNL     1      23.208  48.107  48.848  1.00  0.00     0.081 A 
HETATM    2  C   UNL     1      23.996  47.877  49.979  1.00  0.00     0.043 A 
HETATM    3  C   UNL     1      24.232  46.561  50.384  1.00  0.00     0.043 A 
HETATM    4  C   UNL     1      23.720  45.475  49.652  1.00  0.00     0.046 A 
HETATM    5  N   UNL     1      23.958  44.169  50.092  1.00  0.00    -0.364 N 
HETATM    6  C   UNL     1      24.685  43.928  51.230  1.00  0.00     0.109 A 
HETATM    7  C   UNL     1      25.221  44.870  52.025  1.00  0.00     0.098 A 
HETATM    8  C   UNL     1      25.018  46.290  51.618  1.00  0.00     0.201 A 
HETATM    9  O   UNL     1      25.458  47.225  52.284  1.00  0.00    -0.286 OA
HETATM   10  C   UNL     1      22.947  45.725  48.514  1.00  0.00     0.032 A 
HETATM   11  C   UNL     1      22.691  47.039  48.108  1.00  0.00     0.027 A 
HETATM   12  H   UNL     1      23.644  43.382  49.537  1.00  0.00     0.165 HD
ENDROOT
BRANCH   1  13
HETATM   13  S   UNL     1      22.913  49.782  48.329  1.00  0.00     0.263 S 
HETATM   14  O   UNL     1      23.822  50.079  47.243  1.00  0.00    -0.200 OA
HETATM   15  O   UNL     1      22.885  50.598  49.525  1.00  0.00    -0.200 OA
BRANCH  13  16
HETATM   16  N   UNL     1      21.334  49.727  47.757  1.00  0.00    -0.280 N 
HETATM   17  H   UNL     1      21.263  49.635  46.746  1.00  0.00     0.179 HD
BRANCH  16  18
HETATM   18  C   UNL     1      20.281  50.363  48.471  1.00  0.00     0.048 A 
HETATM   19  C   UNL     1      19.480  49.654  49.380  1.00  0.00    -0.035 A 
HETATM   20  C   UNL     1      19.623  48.180  49.638  1.00  0.00     0.050 C 
HETATM   21  C   UNL     1      18.446  50.340  50.041  1.00  0.00     0.009 A 
HETATM   22  C   UNL     1      18.232  51.701  49.824  1.00  0.00     0.001 A 
HETATM   23  C   UNL     1      19.041  52.396  48.931  1.00  0.00     0.002 A 
HETATM   24  C   UNL     1      20.058  51.727  48.253  1.00  0.00     0.030 A 
ENDBRANCH  16  18
ENDBRANCH  13  16
ENDBRANCH   1  13
BRANCH   7  25
HETATM   25  C   UNL     1      25.933  44.438  53.263  1.00  0.00     0.257 C 
HETATM   26  N   UNL     1      26.662  43.282  53.147  1.00  0.00    -0.357 N 
HETATM   27  H   UNL     1      26.650  42.789  52.253  1.00  0.00     0.162 HD
HETATM   28  O   UNL     1      25.884  45.097  54.298  1.00  0.00    -0.267 OA
BRANCH  26  29
HETATM   29  C   UNL     1      27.513  42.785  54.204  1.00  0.00     0.125 C 
BRANCH  29  30
HETATM   30  C   UNL     1      28.967  42.643  53.771  1.00  0.00     0.046 C 
BRANCH  30  31
HETATM   31  C   UNL     1      29.051  42.186  52.319  1.00  0.00     0.169 C 
BRANCH  31  32
HETATM   32  O   UNL     1      28.276  41.000  52.162  1.00  0.00    -0.387 OA
BRANCH  32  33
HETATM   33  C   UNL     1      27.879  40.746  50.811  1.00  0.00     0.113 C 
HETATM   34  C   UNL     1      28.549  39.490  50.260  1.00  0.00     0.039 C 
HETATM   35  C   UNL     1      26.364  40.574  50.814  1.00  0.00     0.039 C 
ENDBRANCH  32  33
ENDBRANCH  31  32
ENDBRANCH  30  31
ENDBRANCH  29  30
ENDBRANCH  26  29
ENDBRANCH   7  25
TORSDOF 9
ENDMDL
MODEL 5
REMARK VINA RESULT:      -8.5      2.112      2.889
REMARK  9 active torsions:
REMARK  status: ('A' for Active; 'I' for Inactive)
REMARK    1  A    between atoms: C_3  and  N_4 
REMARK    2  A    between atoms: N_4  and  S_5 
REMARK    3  A    between atoms: S_5  and  C_6 
REMARK    4  A    between atoms: C_12  and  C_13 
REMARK       I    between atoms: C_13  and  N_14 
REMARK    5  A    between atoms: N_14  and  C_15 
REMARK    6  A    between atoms: C_15  and  C_16 
REMARK    7  A    between atoms: C_16  and  C_17 
REMARK    8  A    between atoms: C_17  and  O_18 
REMARK    9  A    between atoms: O_18  and  C_19 
ROOT
HETATM    1  C   UNL     1      26.256  44.553  52.455  1.00  0.00     0.081 A 
HETATM    2  C   UNL     1      25.175  43.996  51.766  1.00  0.00     0.043 A 
HETATM    3  C   UNL     1      24.427  44.809  50.910  1.00  0.00     0.043 A 
HETATM    4  C   UNL     1      24.768  46.157  50.710  1.00  0.00     0.046 A 
HETATM    5  N   UNL     1      23.989  46.950  49.861  1.00  0.00    -0.364 N 
HETATM    6  C   UNL     1      22.893  46.433  49.218  1.00  0.00     0.109 A 
HETATM    7  C   UNL     1      22.452  45.168  49.329  1.00  0.00     0.098 A 
HETATM    8  C   UNL     1      23.235  44.257  50.210  1.00  0.00     0.201 A 
HETATM    9  O   UNL     1      22.907  43.085  50.386  1.00  0.00    -0.286 OA
HETATM   10  C   UNL     1      25.863  46.692  51.396  1.00  0.00     0.032 A 
HETATM   11  C   UNL     1      26.610  45.892  52.267  1.00  0.00     0.027 A 
HETATM   12  H   UNL     1      24.265  47.906  49.665  1.00  0.00     0.165 HD
ENDROOT
BRANCH   1  13
HETATM   13  S   UNL     1      27.212  43.517  53.538  1.00  0.00     0.263 S 
HETATM   14  O   UNL     1      27.350  42.220  52.910  1.00  0.00    -0.200 OA
HETATM   15  O   UNL     1      26.642  43.649  54.863  1.00  0.00    -0.200 OA
BRANCH  13  16
HETATM   16  N   UNL     1      28.702  44.293  53.585  1.00  0.00    -0.280 N 
HETATM   17  H   UNL     1      29.188  44.310  52.691  1.00  0.00     0.179 HD
BRANCH  16  18
HETATM   18  C   UNL     1      29.460  44.337  54.787  1.00  0.00     0.048 A 
HETATM   19  C   UNL     1      29.381  45.431  55.663  1.00  0.00    -0.035 A 
HETATM   20  C   UNL     1      28.549  46.653  55.392  1.00  0.00     0.050 C 
HETATM   21  C   UNL     1      30.170  45.418  56.827  1.00  0.00     0.009 A 
HETATM   22  C   UNL     1      30.993  44.332  57.126  1.00  0.00     0.001 A 
HETATM   23  C   UNL     1      31.053  43.248  56.257  1.00  0.00     0.002 A 
HETATM   24  C   UNL     1      30.292  43.253  55.090  1.00  0.00     0.030 A 
ENDBRANCH  16  18
ENDBRANCH  13  16
ENDBRANCH   1  13
BRANCH   7  25
HETATM   25  C   UNL     1      21.204  44.784  48.607  1.00  0.00     0.257 C 
HETATM   26  N   UNL     1      20.093  45.522  48.922  1.00  0.00    -0.357 N 
HETATM   27  H   UNL     1      20.179  46.251  49.632  1.00  0.00     0.162 HD
HETATM   28  O   UNL     1      21.195  43.885  47.770  1.00  0.00    -0.267 OA
BRANCH  26  29
HETATM   29  C   UNL     1      18.832  45.372  48.231  1.00  0.00     0.125 C 
BRANCH  29  30
HETATM   30  C   UNL     1      18.209  46.708  47.846  1.00  0.00     0.046 C 
BRANCH  30  31
HETATM   31  C   UNL     1      17.945  47.553  49.088  1.00  0.00     0.169 C 
BRANCH  31  32
HETATM   32  O   UNL     1      18.608  48.807  48.943  1.00  0.00    -0.387 OA
BRANCH  32  33
HETATM   33  C   UNL     1      18.587  49.609  50.128  1.00  0.00     0.113 C 
HETATM   34  C   UNL     1      18.638  48.746  51.386  1.00  0.00     0.039 C 
HETATM   35  C   UNL     1      19.804  50.525  50.070  1.00  0.00     0.039 C 
ENDBRANCH  32  33
ENDBRANCH  31  32
ENDBRANCH  30  31
ENDBRANCH  29  30
ENDBRANCH  26  29
ENDBRANCH   7  25
TORSDOF 9
ENDMDL
MODEL 6
REMARK VINA RESULT:      -8.4      4.105      8.204
REMARK  9 active torsions:
REMARK  status: ('A' for Active; 'I' for Inactive)
REMARK    1  A    between atoms: C_3  and  N_4 
REMARK    2  A    between atoms: N_4  and  S_5 
REMARK    3  A    between atoms: S_5  and  C_6 
REMARK    4  A    between atoms: C_12  and  C_13 
REMARK       I    between atoms: C_13  and  N_14 
REMARK    5  A    between atoms: N_14  and  C_15 
REMARK    6  A    between atoms: C_15  and  C_16 
REMARK    7  A    between atoms: C_16  and  C_17 
REMARK    8  A    between atoms: C_17  and  O_18 
REMARK    9  A    between atoms: O_18  and  C_19 
ROOT
HETATM    1  C   UNL     1      25.673  44.274  52.556  1.00  0.00     0.081 A 
HETATM    2  C   UNL     1      26.203  43.188  51.855  1.00  0.00     0.043 A 
HETATM    3  C   UNL     1      25.692  42.884  50.590  1.00  0.00     0.043 A 
HETATM    4  C   UNL     1      24.685  43.673  50.008  1.00  0.00     0.046 A 
HETATM    5  N   UNL     1      24.180  43.333  48.748  1.00  0.00    -0.364 N 
HETATM    6  C   UNL     1      24.652  42.238  48.070  1.00  0.00     0.109 A 
HETATM    7  C   UNL     1      25.602  41.397  48.514  1.00  0.00     0.098 A 
HETATM    8  C   UNL     1      26.196  41.698  49.848  1.00  0.00     0.201 A 
HETATM    9  O   UNL     1      27.063  40.983  50.347  1.00  0.00    -0.286 OA
HETATM   10  C   UNL     1      24.179  44.765  50.719  1.00  0.00     0.032 A 
HETATM   11  C   UNL     1      24.672  45.070  51.992  1.00  0.00     0.027 A 
HETATM   12  H   UNL     1      23.498  43.932  48.297  1.00  0.00     0.165 HD
ENDROOT
BRANCH   1  13
HETATM   13  S   UNL     1      26.329  44.665  54.162  1.00  0.00     0.263 S 
HETATM   14  O   UNL     1      26.278  43.465  54.970  1.00  0.00    -0.200 OA
HETATM   15  O   UNL     1      25.684  45.887  54.598  1.00  0.00    -0.200 OA
BRANCH  13  16
HETATM   16  N   UNL     1      27.926  45.067  53.830  1.00  0.00    -0.280 N 
HETATM   17  H   UNL     1      28.145  45.107  52.837  1.00  0.00     0.179 HD
BRANCH  16  18
HETATM   18  C   UNL     1      28.960  44.755  54.756  1.00  0.00     0.048 A 
HETATM   19  C   UNL     1      29.747  43.602  54.612  1.00  0.00    -0.035 A 
HETATM   20  C   UNL     1      29.542  42.585  53.524  1.00  0.00     0.050 C 
HETATM   21  C   UNL     1      30.742  43.344  55.573  1.00  0.00     0.009 A 
HETATM   22  C   UNL     1      30.966  44.225  56.631  1.00  0.00     0.001 A 
HETATM   23  C   UNL     1      30.189  45.372  56.754  1.00  0.00     0.002 A 
HETATM   24  C   UNL     1      29.186  45.632  55.822  1.00  0.00     0.030 A 
ENDBRANCH  16  18
ENDBRANCH  13  16
ENDBRANCH   1  13
BRANCH   7  25
HETATM   25  C   UNL     1      25.957  40.217  47.675  1.00  0.00     0.257 C 
HETATM   26  N   UNL     1      25.627  38.997  48.207  1.00  0.00    -0.357 N 
HETATM   27  H   UNL     1      25.194  38.973  49.132  1.00  0.00     0.162 HD
HETATM   28  O   UNL     1      26.483  40.345  46.572  1.00  0.00    -0.267 OA
BRANCH  26  29
HETATM   29  C   UNL     1      25.781  37.757  47.479  1.00  0.00     0.125 C 
BRANCH  29  30
HETATM   30  C   UNL     1      26.624  36.735  48.231  1.00  0.00     0.046 C 
BRANCH  30  31
HETATM   31  C   UNL     1      28.009  37.299  48.531  1.00  0.00     0.169 C 
BRANCH  31  32
HETATM   32  O   UNL     1      28.021  37.808  49.863  1.00  0.00    -0.387 OA
BRANCH  32  33
HETATM   33  C   UNL     1      29.330  38.123  50.346  1.00  0.00     0.113 C 
HETATM   34  C   UNL     1      29.847  37.045  51.296  1.00  0.00     0.039 C 
HETATM   35  C   UNL     1      30.243  38.231  49.129  1.00  0.00     0.039 C 
ENDBRANCH  32  33
ENDBRANCH  31  32
ENDBRANCH  30  31
ENDBRANCH  29  30
ENDBRANCH  26  29
ENDBRANCH   7  25
TORSDOF 9
ENDMDL
MODEL 7
REMARK VINA RESULT:      -8.4      2.464      9.683
REMARK  9 active torsions:
REMARK  status: ('A' for Active; 'I' for Inactive)
REMARK    1  A    between atoms: C_3  and  N_4 
REMARK    2  A    between atoms: N_4  and  S_5 
REMARK    3  A    between atoms: S_5  and  C_6 
REMARK    4  A    between atoms: C_12  and  C_13 
REMARK       I    between atoms: C_13  and  N_14 
REMARK    5  A    between atoms: N_14  and  C_15 
REMARK    6  A    between atoms: C_15  and  C_16 
REMARK    7  A    between atoms: C_16  and  C_17 
REMARK    8  A    between atoms: C_17  and  O_18 
REMARK    9  A    between atoms: O_18  and  C_19 
ROOT
HETATM    1  C   UNL     1      23.158  46.675  49.057  1.00  0.00     0.081 A 
HETATM    2  C   UNL     1      24.300  46.171  49.685  1.00  0.00     0.043 A 
HETATM    3  C   UNL     1      24.482  44.787  49.750  1.00  0.00     0.043 A 
HETATM    4  C   UNL     1      23.555  43.907  49.166  1.00  0.00     0.046 A 
HETATM    5  N   UNL     1      23.755  42.526  49.263  1.00  0.00    -0.364 N 
HETATM    6  C   UNL     1      24.843  42.014  49.923  1.00  0.00     0.109 A 
HETATM    7  C   UNL     1      25.796  42.741  50.533  1.00  0.00     0.098 A 
HETATM    8  C   UNL     1      25.658  44.223  50.465  1.00  0.00     0.201 A 
HETATM    9  O   UNL     1      26.471  44.975  51.001  1.00  0.00    -0.286 OA
HETATM   10  C   UNL     1      22.427  44.431  48.528  1.00  0.00     0.032 A 
HETATM   11  C   UNL     1      22.226  45.814  48.469  1.00  0.00     0.027 A 
HETATM   12  H   UNL     1      23.124  41.888  48.793  1.00  0.00     0.165 HD
ENDROOT
BRANCH   1  13
HETATM   13  S   UNL     1      22.930  48.436  48.967  1.00  0.00     0.263 S 
HETATM   14  O   UNL     1      23.069  48.835  47.582  1.00  0.00    -0.200 OA
HETATM   15  O   UNL     1      23.757  49.024  50.000  1.00  0.00    -0.200 OA
BRANCH  13  16
HETATM   16  N   UNL     1      21.337  48.637  49.465  1.00  0.00    -0.280 N 
HETATM   17  H   UNL     1      20.911  47.791  49.838  1.00  0.00     0.179 HD
BRANCH  16  18
HETATM   18  C   UNL     1      20.509  49.625  48.866  1.00  0.00     0.048 A 
HETATM   19  C   UNL     1      19.599  49.298  47.848  1.00  0.00    -0.035 A 
HETATM   20  C   UNL     1      19.456  47.917  47.273  1.00  0.00     0.050 C 
HETATM   21  C   UNL     1      18.821  50.327  47.287  1.00  0.00     0.009 A 
HETATM   22  C   UNL     1      18.926  51.640  47.746  1.00  0.00     0.001 A 
HETATM   23  C   UNL     1      19.821  51.949  48.764  1.00  0.00     0.002 A 
HETATM   24  C   UNL     1      20.613  50.945  49.318  1.00  0.00     0.030 A 
ENDBRANCH  16  18
ENDBRANCH  13  16
ENDBRANCH   1  13
BRANCH   7  25
HETATM   25  C   UNL     1      26.883  42.023  51.260  1.00  0.00     0.257 C 
HETATM   26  N   UNL     1      27.097  42.434  52.550  1.00  0.00    -0.357 N 
HETATM   27  H   UNL     1      26.532  43.203  52.915  1.00  0.00     0.162 HD
HETATM   28  O   UNL     1      27.515  41.110  50.735  1.00  0.00    -0.267 OA
BRANCH  26  29
HETATM   29  C   UNL     1      28.020  41.768  53.441  1.00  0.00     0.125 C 
BRANCH  29  30
HETATM   30  C   UNL     1      28.775  42.739  54.340  1.00  0.00     0.046 C 
BRANCH  30  31
HETATM   31  C   UNL     1      28.715  44.152  53.771  1.00  0.00     0.169 C 
BRANCH  31  32
HETATM   32  O   UNL     1      27.542  44.798  54.261  1.00  0.00    -0.387 OA
BRANCH  32  33
HETATM   33  C   UNL     1      27.730  46.185  54.557  1.00  0.00     0.113 C 
HETATM   34  C   UNL     1      26.401  46.935  54.578  1.00  0.00     0.039 C 
HETATM   35  C   UNL     1      28.400  46.265  55.924  1.00  0.00     0.039 C 
ENDBRANCH  32  33
ENDBRANCH  31  32
ENDBRANCH  30  31
ENDBRANCH  29  30
ENDBRANCH  26  29
ENDBRANCH   7  25
TORSDOF 9
ENDMDL
MODEL 8
REMARK VINA RESULT:      -8.3      3.132     10.543
REMARK  9 active torsions:
REMARK  status: ('A' for Active; 'I' for Inactive)
REMARK    1  A    between atoms: C_3  and  N_4 
REMARK    2  A    between atoms: N_4  and  S_5 
REMARK    3  A    between atoms: S_5  and  C_6 
REMARK    4  A    between atoms: C_12  and  C_13 
REMARK       I    between atoms: C_13  and  N_14 
REMARK    5  A    between atoms: N_14  and  C_15 
REMARK    6  A    between atoms: C_15  and  C_16 
REMARK    7  A    between atoms: C_16  and  C_17 
REMARK    8  A    between atoms: C_17  and  O_18 
REMARK    9  A    between atoms: O_18  and  C_19 
ROOT
HETATM    1  C   UNL     1      21.470  48.733  48.144  1.00  0.00     0.081 A 
HETATM    2  C   UNL     1      22.137  47.650  48.723  1.00  0.00     0.043 A 
HETATM    3  C   UNL     1      23.499  47.770  49.012  1.00  0.00     0.043 A 
HETATM    4  C   UNL     1      24.190  48.968  48.761  1.00  0.00     0.046 A 
HETATM    5  N   UNL     1      25.557  49.052  49.044  1.00  0.00    -0.364 N 
HETATM    6  C   UNL     1      26.239  47.980  49.562  1.00  0.00     0.109 A 
HETATM    7  C   UNL     1      25.704  46.779  49.840  1.00  0.00     0.098 A 
HETATM    8  C   UNL     1      24.247  46.612  49.573  1.00  0.00     0.201 A 
HETATM    9  O   UNL     1      23.667  45.549  49.783  1.00  0.00    -0.286 OA
HETATM   10  C   UNL     1      23.501  50.045  48.195  1.00  0.00     0.032 A 
HETATM   11  C   UNL     1      22.141  49.932  47.889  1.00  0.00     0.027 A 
HETATM   12  H   UNL     1      26.047  49.930  48.922  1.00  0.00     0.165 HD
ENDROOT
BRANCH   1  13
HETATM   13  S   UNL     1      19.735  48.583  47.784  1.00  0.00     0.263 S 
HETATM   14  O   UNL     1      19.065  48.139  48.988  1.00  0.00    -0.200 OA
HETATM   15  O   UNL     1      19.622  47.837  46.548  1.00  0.00    -0.200 OA
BRANCH  13  16
HETATM   16  N   UNL     1      19.286  50.162  47.427  1.00  0.00    -0.280 N 
HETATM   17  H   UNL     1      20.057  50.753  47.123  1.00  0.00     0.179 HD
BRANCH  16  18
HETATM   18  C   UNL     1      18.164  50.759  48.065  1.00  0.00     0.048 A 
HETATM   19  C   UNL     1      18.304  51.496  49.251  1.00  0.00    -0.035 A 
HETATM   20  C   UNL     1      19.612  51.673  49.970  1.00  0.00     0.050 C 
HETATM   21  C   UNL     1      17.151  52.047  49.840  1.00  0.00     0.009 A 
HETATM   22  C   UNL     1      15.897  51.892  49.247  1.00  0.00     0.001 A 
HETATM   23  C   UNL     1      15.774  51.172  48.064  1.00  0.00     0.002 A 
HETATM   24  C   UNL     1      16.904  50.603  47.478  1.00  0.00     0.030 A 
ENDBRANCH  16  18
ENDBRANCH  13  16
ENDBRANCH   1  13
BRANCH   7  25
HETATM   25  C   UNL     1      26.601  45.699  50.345  1.00  0.00     0.257 C 
HETATM   26  N   UNL     1      26.326  45.251  51.611  1.00  0.00    -0.357 N 
HETATM   27  H   UNL     1      25.561  45.692  52.126  1.00  0.00     0.162 HD
HETATM   28  O   UNL     1      27.502  45.233  49.652  1.00  0.00    -0.267 OA
BRANCH  26  29
HETATM   29  C   UNL     1      27.009  44.127  52.210  1.00  0.00     0.125 C 
BRANCH  29  30
HETATM   30  C   UNL     1      26.572  43.870  53.646  1.00  0.00     0.046 C 
BRANCH  30  31
HETATM   31  C   UNL     1      26.780  45.115  54.501  1.00  0.00     0.169 C 
BRANCH  31  32
HETATM   32  O   UNL     1      28.133  45.546  54.367  1.00  0.00    -0.387 OA
BRANCH  32  33
HETATM   33  C   UNL     1      28.454  46.690  55.165  1.00  0.00     0.113 C 
HETATM   34  C   UNL     1      27.336  47.728  55.126  1.00  0.00     0.039 C 
HETATM   35  C   UNL     1      28.660  46.195  56.593  1.00  0.00     0.039 C 
ENDBRANCH  32  33
ENDBRANCH  31  32
ENDBRANCH  30  31
ENDBRANCH  29  30
ENDBRANCH  26  29
ENDBRANCH   7  25
TORSDOF 9
ENDMDL
MODEL 9
REMARK VINA RESULT:      -8.2      3.074     11.168
REMARK  9 active torsions:
REMARK  status: ('A' for Active; 'I' for Inactive)
REMARK    1  A    between atoms: C_3  and  N_4 
REMARK    2  A    between atoms: N_4  and  S_5 
REMARK    3  A    between atoms: S_5  and  C_6 
REMARK    4  A    between atoms: C_12  and  C_13 
REMARK       I    between atoms: C_13  and  N_14 
REMARK    5  A    between atoms: N_14  and  C_15 
REMARK    6  A    between atoms: C_15  and  C_16 
REMARK    7  A    between atoms: C_16  and  C_17 
REMARK    8  A    between atoms: C_17  and  O_18 
REMARK    9  A    between atoms: O_18  and  C_19 
ROOT
HETATM    1  C   UNL     1      21.041  49.016  47.848  1.00  0.00     0.081 A 
HETATM    2  C   UNL     1      21.755  47.928  48.355  1.00  0.00     0.043 A 
HETATM    3  C   UNL     1      23.099  48.101  48.697  1.00  0.00     0.043 A 
HETATM    4  C   UNL     1      23.724  49.353  48.570  1.00  0.00     0.046 A 
HETATM    5  N   UNL     1      25.075  49.490  48.903  1.00  0.00    -0.364 N 
HETATM    6  C   UNL     1      25.805  48.420  49.352  1.00  0.00     0.109 A 
HETATM    7  C   UNL     1      25.336  47.170  49.510  1.00  0.00     0.098 A 
HETATM    8  C   UNL     1      23.899  46.944  49.183  1.00  0.00     0.201 A 
HETATM    9  O   UNL     1      23.378  45.835  49.283  1.00  0.00    -0.286 OA
HETATM   10  C   UNL     1      22.987  50.434  48.075  1.00  0.00     0.032 A 
HETATM   11  C   UNL     1      21.645  50.270  47.715  1.00  0.00     0.027 A 
HETATM   12  H   UNL     1      25.515  50.403  48.871  1.00  0.00     0.165 HD
ENDROOT
BRANCH   1  13
HETATM   13  S   UNL     1      19.328  48.799  47.420  1.00  0.00     0.263 S 
HETATM   14  O   UNL     1      18.634  48.306  48.590  1.00  0.00    -0.200 OA
HETATM   15  O   UNL     1      19.293  48.070  46.168  1.00  0.00    -0.200 OA
BRANCH  13  16
HETATM   16  N   UNL     1      18.825  50.364  47.070  1.00  0.00    -0.280 N 
HETATM   17  H   UNL     1      19.474  50.886  46.486  1.00  0.00     0.179 HD
BRANCH  16  18
HETATM   18  C   UNL     1      17.975  51.069  47.966  1.00  0.00     0.048 A 
HETATM   19  C   UNL     1      16.578  50.951  47.896  1.00  0.00    -0.035 A 
HETATM   20  C   UNL     1      15.866  50.129  46.859  1.00  0.00     0.050 C 
HETATM   21  C   UNL     1      15.795  51.689  48.801  1.00  0.00     0.009 A 
HETATM   22  C   UNL     1      16.388  52.501  49.769  1.00  0.00     0.001 A 
HETATM   23  C   UNL     1      17.773  52.600  49.837  1.00  0.00     0.002 A 
HETATM   24  C   UNL     1      18.563  51.890  48.934  1.00  0.00     0.030 A 
ENDBRANCH  16  18
ENDBRANCH  13  16
ENDBRANCH   1  13
BRANCH   7  25
HETATM   25  C   UNL     1      26.282  46.104  49.951  1.00  0.00     0.257 C 
HETATM   26  N   UNL     1      25.834  45.310  50.975  1.00  0.00    -0.357 N 
HETATM   27  H   UNL     1      24.917  45.509  51.379  1.00  0.00     0.162 HD
HETATM   28  O   UNL     1      27.371  45.943  49.406  1.00  0.00    -0.267 OA
BRANCH  26  29
HETATM   29  C   UNL     1      26.562  44.152  51.444  1.00  0.00     0.125 C 
BRANCH  29  30
HETATM   30  C   UNL     1      27.340  44.425  52.725  1.00  0.00     0.046 C 
BRANCH  30  31
HETATM   31  C   UNL     1      27.746  43.116  53.393  1.00  0.00     0.169 C 
BRANCH  31  32
HETATM   32  O   UNL     1      28.439  43.412  54.604  1.00  0.00    -0.387 OA
BRANCH  32  33
HETATM   33  C   UNL     1      29.760  42.863  54.659  1.00  0.00     0.113 C 
HETATM   34  C   UNL     1      30.342  42.670  53.261  1.00  0.00     0.039 C 
HETATM   35  C   UNL     1      30.618  43.840  55.454  1.00  0.00     0.039 C 
ENDBRANCH  32  33
ENDBRANCH  31  32
ENDBRANCH  30  31
ENDBRANCH  29  30
ENDBRANCH  26  29
ENDBRANCH   7  25
TORSDOF 9
ENDMDL
MODEL 10
REMARK VINA RESULT:      -8.2      4.882      8.392
REMARK  9 active torsions:
REMARK  status: ('A' for Active; 'I' for Inactive)
REMARK    1  A    between atoms: C_3  and  N_4 
REMARK    2  A    between atoms: N_4  and  S_5 
REMARK    3  A    between atoms: S_5  and  C_6 
REMARK    4  A    between atoms: C_12  and  C_13 
REMARK       I    between atoms: C_13  and  N_14 
REMARK    5  A    between atoms: N_14  and  C_15 
REMARK    6  A    between atoms: C_15  and  C_16 
REMARK    7  A    between atoms: C_16  and  C_17 
REMARK    8  A    between atoms: C_17  and  O_18 
REMARK    9  A    between atoms: O_18  and  C_19 
ROOT
HETATM    1  C   UNL     1      27.176  44.605  52.988  1.00  0.00     0.081 A 
HETATM    2  C   UNL     1      27.652  43.299  52.851  1.00  0.00     0.043 A 
HETATM    3  C   UNL     1      27.544  42.665  51.611  1.00  0.00     0.043 A 
HETATM    4  C   UNL     1      26.997  43.333  50.501  1.00  0.00     0.046 A 
HETATM    5  N   UNL     1      26.884  42.666  49.277  1.00  0.00    -0.364 N 
HETATM    6  C   UNL     1      27.298  41.366  49.140  1.00  0.00     0.109 A 
HETATM    7  C   UNL     1      27.827  40.610  50.118  1.00  0.00     0.098 A 
HETATM    8  C   UNL     1      27.989  41.254  51.453  1.00  0.00     0.201 A 
HETATM    9  O   UNL     1      28.452  40.644  52.415  1.00  0.00    -0.286 OA
HETATM   10  C   UNL     1      26.540  44.646  50.655  1.00  0.00     0.032 A 
HETATM   11  C   UNL     1      26.630  45.285  51.896  1.00  0.00     0.027 A 
HETATM   12  H   UNL     1      26.548  43.161  48.459  1.00  0.00     0.165 HD
ENDROOT
BRANCH   1  13
HETATM   13  S   UNL     1      27.321  45.414  54.565  1.00  0.00     0.263 S 
HETATM   14  O   UNL     1      26.922  44.472  55.589  1.00  0.00    -0.200 OA
HETATM   15  O   UNL     1      26.672  46.703  54.441  1.00  0.00    -0.200 OA
BRANCH  13  16
HETATM   16  N   UNL     1      28.969  45.724  54.680  1.00  0.00    -0.280 N 
HETATM   17  H   UNL     1      29.433  45.831  53.780  1.00  0.00     0.179 HD
BRANCH  16  18
HETATM   18  C   UNL     1      29.718  45.261  55.797  1.00  0.00     0.048 A 
HETATM   19  C   UNL     1      30.507  44.103  55.719  1.00  0.00    -0.035 A 
HETATM   20  C   UNL     1      30.592  43.235  54.495  1.00  0.00     0.050 C 
HETATM   21  C   UNL     1      31.210  43.691  56.866  1.00  0.00     0.009 A 
HETATM   22  C   UNL     1      31.151  44.428  58.049  1.00  0.00     0.001 A 
HETATM   23  C   UNL     1      30.375  45.581  58.110  1.00  0.00     0.002 A 
HETATM   24  C   UNL     1      29.657  45.992  56.988  1.00  0.00     0.030 A 
ENDBRANCH  16  18
ENDBRANCH  13  16
ENDBRANCH   1  13
BRANCH   7  25
HETATM   25  C   UNL     1      28.170  39.190  49.815  1.00  0.00     0.257 C 
HETATM   26  N   UNL     1      27.126  38.305  49.891  1.00  0.00    -0.357 N 
HETATM   27  H   UNL     1      26.209  38.659  50.169  1.00  0.00     0.162 HD
HETATM   28  O   UNL     1      29.308  38.857  49.493  1.00  0.00    -0.267 OA
BRANCH  26  29
HETATM   29  C   UNL     1      27.247  36.917  49.509  1.00  0.00     0.125 C 
BRANCH  29  30
HETATM   30  C   UNL     1      26.366  36.554  48.320  1.00  0.00     0.046 C 
BRANCH  30  31
HETATM   31  C   UNL     1      27.067  36.898  47.010  1.00  0.00     0.169 C 
BRANCH  31  32
HETATM   32  O   UNL     1      27.162  38.316  46.895  1.00  0.00    -0.387 OA
BRANCH  32  33
HETATM   33  C   UNL     1      27.500  38.765  45.579  1.00  0.00     0.113 C 
HETATM   34  C   UNL     1      27.974  40.216  45.590  1.00  0.00     0.039 C 
HETATM   35  C   UNL     1      28.611  37.854  45.067  1.00  0.00     0.039 C 
ENDBRANCH  32  33
ENDBRANCH  31  32
ENDBRANCH  30  31
ENDBRANCH  29  30
ENDBRANCH  26  29
ENDBRANCH   7  25
TORSDOF 9
ENDMDL
