MODEL 1
REMARK VINA RESULT:      -8.7      0.000      0.000
REMARK  8 active torsions:
REMARK  status: ('A' for Active; 'I' for Inactive)
REMARK    1  A    between atoms: C_2  and  C_3 
REMARK    2  A    between atoms: C_3  and  N_4 
REMARK    3  A    between atoms: C_3  and  C_19 
REMARK       I    between atoms: C_19  and  N_20 
REMARK    4  A    between atoms: N_20  and  C_21 
REMARK    5  A    between atoms: C_21  and  C_22 
REMARK    6  A    between atoms: C_22  and  C_23 
REMARK    7  A    between atoms: C_23  and  O_24 
REMARK    8  A    between atoms: O_24  and  C_25 
ROOT
HETATM    1  N   UNL     1      26.568  44.187  52.023  1.00  0.00    -0.220 N 
HETATM    2  N   UNL     1      25.971  45.428  52.261  1.00  0.00    -0.172 NA
HETATM    3  C   UNL     1      26.370  46.147  53.270  1.00  0.00     0.069 A 
HETATM    4  C   UNL     1      25.682  47.461  53.529  1.00  0.00     0.074 C 
HETATM    5  C   UNL     1      27.450  45.690  54.103  1.00  0.00     0.048 A 
HETATM    6  C   UNL     1      28.057  44.475  53.904  1.00  0.00     0.064 A 
HETATM    7  C   UNL     1      27.575  43.617  52.830  1.00  0.00     0.277 A 
HETATM    8  O   UNL     1      28.032  42.492  52.634  1.00  0.00    -0.266 OA
HETATM    9  S   UNL     1      28.114  46.561  55.389  1.00  0.00    -0.086 SA
HETATM   10  C   UNL     1      29.279  45.332  55.708  1.00  0.00     0.017 A 
HETATM   11  C   UNL     1      29.137  44.250  54.831  1.00  0.00    -0.002 A 
HETATM   12  C   UNL     1      30.276  45.356  56.703  1.00  0.00     0.020 A 
HETATM   13  C   UNL     1      31.148  44.271  56.815  1.00  0.00     0.001 A 
HETATM   14  C   UNL     1      31.031  43.185  55.961  1.00  0.00     0.001 A 
HETATM   15  C   UNL     1      30.037  43.164  54.978  1.00  0.00     0.014 A 
ENDROOT
BRANCH   1  16
HETATM   16  C   UNL     1      26.005  43.370  50.940  1.00  0.00     0.205 C 
BRANCH  16  17
HETATM   17  C   UNL     1      26.868  43.391  49.667  1.00  0.00     0.032 C 
HETATM   18  C   UNL     1      27.002  42.021  49.019  1.00  0.00     0.007 C 
ENDBRANCH  16  17
BRANCH  16  19
HETATM   19  C   UNL     1      24.573  43.865  50.646  1.00  0.00     0.242 C 
HETATM   20  N   UNL     1      24.502  44.860  49.687  1.00  0.00    -0.359 N 
HETATM   21  H   UNL     1      25.326  45.096  49.146  1.00  0.00     0.162 HD
HETATM   22  O   UNL     1      23.574  43.456  51.234  1.00  0.00    -0.271 OA
BRANCH  20  23
HETATM   23  C   UNL     1      23.243  45.447  49.275  1.00  0.00     0.125 C 
BRANCH  23  24
HETATM   24  C   UNL     1      23.339  46.954  49.042  1.00  0.00     0.046 C 
BRANCH  24  25
HETATM   25  C   UNL     1      24.376  47.637  49.929  1.00  0.00     0.169 C 
BRANCH  25  26
HETATM   26  O   UNL     1      24.318  49.047  49.725  1.00  0.00    -0.387 OA
BRANCH  26  27
HETATM   27  C   UNL     1      24.470  49.442  48.359  1.00  0.00     0.113 C 
HETATM   28  C   UNL     1      23.546  50.609  48.017  1.00  0.00     0.039 C 
HETATM   29  C   UNL     1      25.927  49.858  48.182  1.00  0.00     0.039 C 
ENDBRANCH  26  27
ENDBRANCH  25  26
ENDBRANCH  24  25
ENDBRANCH  23  24
ENDBRANCH  20  23
ENDBRANCH  16  19
ENDBRANCH   1  16
TORSDOF 8
ENDMDL
MODEL 2
REMARK VINA RESULT:      -8.6      1.788      2.581
REMARK  8 active torsions:
REMARK  status: ('A' for Active; 'I' for Inactive)
REMARK    1  A    between atoms: C_2  and  C_3 
REMARK    2  A    between atoms: C_3  and  N_4 
REMARK    3  A    between atoms: C_3  and  C_19 
REMARK       I    between atoms: C_19  and  N_20 
REMARK    4  A    between atoms: N_20  and  C_21 
REMARK    5  A    between atoms: C_21  and  C_22 
REMARK    6  A    between atoms: C_22  and  C_23 
REMARK    7  A    between atoms: C_23  and  O_24 
REMARK    8  A    between atoms: O_24  and  C_25 
ROOT
HETATM    1  N   UNL     1      26.137  46.295  52.580  1.00  0.00    -0.220 N 
HETATM    2  N   UNL     1      25.867  47.359  53.446  1.00  0.00    -0.172 NA
HETATM    3  C   UNL     1      26.510  47.445  54.574  1.00  0.00     0.069 A 
HETATM    4  C   UNL     1      26.171  48.577  55.508  1.00  0.00     0.074 C 
HETATM    5  C   UNL     1      27.525  46.480  54.904  1.00  0.00     0.048 A 
HETATM    6  C   UNL     1      27.815  45.420  54.082  1.00  0.00     0.064 A 
HETATM    7  C   UNL     1      27.053  45.258  52.851  1.00  0.00     0.277 A 
HETATM    8  O   UNL     1      27.218  44.299  52.099  1.00  0.00    -0.266 OA
HETATM    9  S   UNL     1      28.485  46.525  56.293  1.00  0.00    -0.086 SA
HETATM   10  C   UNL     1      29.359  45.118  55.816  1.00  0.00     0.017 A 
HETATM   11  C   UNL     1      28.892  44.613  54.597  1.00  0.00    -0.002 A 
HETATM   12  C   UNL     1      30.420  44.509  56.515  1.00  0.00     0.020 A 
HETATM   13  C   UNL     1      31.024  43.372  55.974  1.00  0.00     0.001 A 
HETATM   14  C   UNL     1      30.583  42.849  54.768  1.00  0.00     0.001 A 
HETATM   15  C   UNL     1      29.527  43.454  54.080  1.00  0.00     0.014 A 
ENDROOT
BRANCH   1  16
HETATM   16  C   UNL     1      25.305  46.187  51.374  1.00  0.00     0.205 C 
BRANCH  16  17
HETATM   17  C   UNL     1      24.718  44.779  51.181  1.00  0.00     0.032 C 
HETATM   18  C   UNL     1      23.530  44.757  50.230  1.00  0.00     0.007 C 
ENDBRANCH  16  17
BRANCH  16  19
HETATM   19  C   UNL     1      26.153  46.605  50.155  1.00  0.00     0.242 C 
HETATM   20  N   UNL     1      26.519  47.940  50.149  1.00  0.00    -0.359 N 
HETATM   21  H   UNL     1      26.352  48.511  50.969  1.00  0.00     0.162 HD
HETATM   22  O   UNL     1      26.452  45.845  49.237  1.00  0.00    -0.271 OA
BRANCH  20  23
HETATM   23  C   UNL     1      27.320  48.516  49.087  1.00  0.00     0.125 C 
BRANCH  23  24
HETATM   24  C   UNL     1      26.785  49.864  48.606  1.00  0.00     0.046 C 
BRANCH  24  25
HETATM   25  C   UNL     1      25.340  49.803  48.121  1.00  0.00     0.169 C 
BRANCH  25  26
HETATM   26  O   UNL     1      24.461  49.865  49.242  1.00  0.00    -0.387 OA
BRANCH  26  27
HETATM   27  C   UNL     1      23.101  49.549  48.932  1.00  0.00     0.113 C 
HETATM   28  C   UNL     1      22.601  50.373  47.748  1.00  0.00     0.039 C 
HETATM   29  C   UNL     1      23.062  48.064  48.591  1.00  0.00     0.039 C 
ENDBRANCH  26  27
ENDBRANCH  25  26
ENDBRANCH  24  25
ENDBRANCH  23  24
ENDBRANCH  20  23
ENDBRANCH  16  19
ENDBRANCH   1  16
TORSDOF 8
ENDMDL
MODEL 3
REMARK VINA RESULT:      -8.3      2.039      4.778
REMARK  8 active torsions:
REMARK  status: ('A' for Active; 'I' for Inactive)
REMARK    1  A    between atoms: C_2  and  C_3 
REMARK    2  A    between atoms: C_3  and  N_4 
REMARK    3  A    between atoms: C_3  and  C_19 
REMARK       I    between atoms: C_19  and  N_20 
REMARK    4  A    between atoms: N_20  and  C_21 
REMARK    5  A    between atoms: C_21  and  C_22 
REMARK    6  A    between atoms: C_22  and  C_23 
REMARK    7  A    between atoms: C_23  and  O_24 
REMARK    8  A    between atoms: O_24  and  C_25 
ROOT
HETATM    1  N   UNL     1      26.643  46.041  52.680  1.00  0.00    -0.220 N 
HETATM    2  N   UNL     1      26.192  47.108  53.463  1.00  0.00    -0.172 NA
HETATM    3  C   UNL     1      26.686  47.279  54.655  1.00  0.00     0.069 A 
HETATM    4  C   UNL     1      26.154  48.410  55.496  1.00  0.00     0.074 C 
HETATM    5  C   UNL     1      27.722  46.407  55.142  1.00  0.00     0.048 A 
HETATM    6  C   UNL     1      28.186  45.347  54.403  1.00  0.00     0.064 A 
HETATM    7  C   UNL     1      27.593  45.087  53.099  1.00  0.00     0.277 A 
HETATM    8  O   UNL     1      27.917  44.121  52.412  1.00  0.00    -0.266 OA
HETATM    9  S   UNL     1      28.501  46.570  56.632  1.00  0.00    -0.086 SA
HETATM   10  C   UNL     1      29.527  45.221  56.320  1.00  0.00     0.017 A 
HETATM   11  C   UNL     1      29.250  44.643  55.075  1.00  0.00    -0.002 A 
HETATM   12  C   UNL     1      30.537  44.719  57.163  1.00  0.00     0.020 A 
HETATM   13  C   UNL     1      31.284  43.616  56.744  1.00  0.00     0.001 A 
HETATM   14  C   UNL     1      31.032  43.022  55.516  1.00  0.00     0.001 A 
HETATM   15  C   UNL     1      30.025  43.522  54.684  1.00  0.00     0.014 A 
ENDROOT
BRANCH   1  16
HETATM   16  C   UNL     1      25.973  45.830  51.389  1.00  0.00     0.205 C 
BRANCH  16  17
HETATM   17  C   UNL     1      25.169  47.057  50.928  1.00  0.00     0.032 C 
HETATM   18  C   UNL     1      25.910  47.900  49.901  1.00  0.00     0.007 C 
ENDBRANCH  16  17
BRANCH  16  19
HETATM   19  C   UNL     1      25.068  44.585  51.505  1.00  0.00     0.242 C 
HETATM   20  N   UNL     1      25.391  43.565  50.628  1.00  0.00    -0.359 N 
HETATM   21  H   UNL     1      26.247  43.618  50.088  1.00  0.00     0.162 HD
HETATM   22  O   UNL     1      24.112  44.505  52.273  1.00  0.00    -0.271 OA
BRANCH  20  23
HETATM   23  C   UNL     1      24.657  42.316  50.592  1.00  0.00     0.125 C 
BRANCH  23  24
HETATM   24  C   UNL     1      25.213  41.330  49.566  1.00  0.00     0.046 C 
BRANCH  24  25
HETATM   25  C   UNL     1      26.099  40.252  50.184  1.00  0.00     0.169 C 
BRANCH  25  26
HETATM   26  O   UNL     1      26.786  40.793  51.311  1.00  0.00    -0.387 OA
BRANCH  26  27
HETATM   27  C   UNL     1      28.208  40.812  51.169  1.00  0.00     0.113 C 
HETATM   28  C   UNL     1      28.898  40.716  52.527  1.00  0.00     0.039 C 
HETATM   29  C   UNL     1      28.580  39.611  50.306  1.00  0.00     0.039 C 
ENDBRANCH  26  27
ENDBRANCH  25  26
ENDBRANCH  24  25
ENDBRANCH  23  24
ENDBRANCH  20  23
ENDBRANCH  16  19
ENDBRANCH   1  16
TORSDOF 8
ENDMDL
MODEL 4
REMARK VINA RESULT:      -7.8      2.842      4.351
REMARK  8 active torsions:
REMARK  status: ('A' for Active; 'I' for Inactive)
REMARK    1  A    between atoms: C_2  and  C_3 
REMARK    2  A    between atoms: C_3  and  N_4 
REMARK    3  A    between atoms: C_3  and  C_19 
REMARK       I    between atoms: C_19  and  N_20 
REMARK    4  A    between atoms: N_20  and  C_21 
REMARK    5  A    between atoms: C_21  and  C_22 
REMARK    6  A    between atoms: C_22  and  C_23 
REMARK    7  A    between atoms: C_23  and  O_24 
REMARK    8  A    between atoms: O_24  and  C_25 
ROOT
HETATM    1  N   UNL     1      26.139  46.793  50.716  1.00  0.00    -0.220 N 
HETATM    2  N   UNL     1      25.956  47.486  51.916  1.00  0.00    -0.172 NA
HETATM    3  C   UNL     1      26.193  46.884  53.045  1.00  0.00     0.069 A 
HETATM    4  C   UNL     1      25.949  47.639  54.325  1.00  0.00     0.074 C 
HETATM    5  C   UNL     1      26.686  45.532  53.055  1.00  0.00     0.048 A 
HETATM    6  C   UNL     1      26.873  44.818  51.897  1.00  0.00     0.064 A 
HETATM    7  C   UNL     1      26.539  45.443  50.625  1.00  0.00     0.277 A 
HETATM    8  O   UNL     1      26.623  44.842  49.556  1.00  0.00    -0.266 OA
HETATM    9  S   UNL     1      27.109  44.668  54.444  1.00  0.00    -0.086 SA
HETATM   10  C   UNL     1      27.595  43.294  53.523  1.00  0.00     0.017 A 
HETATM   11  C   UNL     1      27.411  43.505  52.151  1.00  0.00    -0.002 A 
HETATM   12  C   UNL     1      28.122  42.089  54.025  1.00  0.00     0.020 A 
HETATM   13  C   UNL     1      28.475  41.078  53.129  1.00  0.00     0.001 A 
HETATM   14  C   UNL     1      28.304  41.258  51.765  1.00  0.00     0.001 A 
HETATM   15  C   UNL     1      27.776  42.455  51.271  1.00  0.00     0.014 A 
ENDROOT
BRANCH   1  16
HETATM   16  C   UNL     1      25.751  47.484  49.479  1.00  0.00     0.205 C 
BRANCH  16  17
HETATM   17  C   UNL     1      26.439  48.850  49.319  1.00  0.00     0.032 C 
HETATM   18  C   UNL     1      27.941  48.736  49.105  1.00  0.00     0.007 C 
ENDBRANCH  16  17
BRANCH  16  19
HETATM   19  C   UNL     1      24.215  47.631  49.461  1.00  0.00     0.242 C 
HETATM   20  N   UNL     1      23.771  48.928  49.274  1.00  0.00    -0.359 N 
HETATM   21  H   UNL     1      24.431  49.654  49.023  1.00  0.00     0.162 HD
HETATM   22  O   UNL     1      23.437  46.696  49.638  1.00  0.00    -0.271 OA
BRANCH  20  23
HETATM   23  C   UNL     1      22.362  49.262  49.225  1.00  0.00     0.125 C 
BRANCH  23  24
HETATM   24  C   UNL     1      22.101  50.760  49.381  1.00  0.00     0.046 C 
BRANCH  24  25
HETATM   25  C   UNL     1      20.974  51.273  48.490  1.00  0.00     0.169 C 
BRANCH  25  26
HETATM   26  O   UNL     1      19.786  50.530  48.754  1.00  0.00    -0.387 OA
BRANCH  26  27
HETATM   27  C   UNL     1      19.146  50.877  49.985  1.00  0.00     0.113 C 
HETATM   28  C   UNL     1      18.220  52.077  49.805  1.00  0.00     0.039 C 
HETATM   29  C   UNL     1      18.344  49.656  50.422  1.00  0.00     0.039 C 
ENDBRANCH  26  27
ENDBRANCH  25  26
ENDBRANCH  24  25
ENDBRANCH  23  24
ENDBRANCH  20  23
ENDBRANCH  16  19
ENDBRANCH   1  16
TORSDOF 8
ENDMDL
MODEL 5
REMARK VINA RESULT:      -7.7      2.164      3.395
REMARK  8 active torsions:
REMARK  status: ('A' for Active; 'I' for Inactive)
REMARK    1  A    between atoms: C_2  and  C_3 
REMARK    2  A    between atoms: C_3  and  N_4 
REMARK    3  A    between atoms: C_3  and  C_19 
REMARK       I    between atoms: C_19  and  N_20 
REMARK    4  A    between atoms: N_20  and  C_21 
REMARK    5  A    between atoms: C_21  and  C_22 
REMARK    6  A    between atoms: C_22  and  C_23 
REMARK    7  A    between atoms: C_23  and  O_24 
REMARK    8  A    between atoms: O_24  and  C_25 
ROOT
HETATM    1  N   UNL     1      25.690  43.664  51.646  1.00  0.00    -0.220 N 
HETATM    2  N   UNL     1      26.163  42.485  51.061  1.00  0.00    -0.172 NA
HETATM    3  C   UNL     1      27.308  41.997  51.442  1.00  0.00     0.069 A 
HETATM    4  C   UNL     1      27.815  40.750  50.767  1.00  0.00     0.074 C 
HETATM    5  C   UNL     1      28.056  42.638  52.491  1.00  0.00     0.048 A 
HETATM    6  C   UNL     1      27.625  43.798  53.085  1.00  0.00     0.064 A 
HETATM    7  C   UNL     1      26.386  44.408  52.621  1.00  0.00     0.277 A 
HETATM    8  O   UNL     1      25.975  45.477  53.066  1.00  0.00    -0.266 OA
HETATM    9  S   UNL     1      29.509  42.063  53.131  1.00  0.00    -0.086 SA
HETATM   10  C   UNL     1      29.597  43.355  54.269  1.00  0.00     0.017 A 
HETATM   11  C   UNL     1      28.513  44.231  54.135  1.00  0.00    -0.002 A 
HETATM   12  C   UNL     1      30.599  43.557  55.237  1.00  0.00     0.020 A 
HETATM   13  C   UNL     1      30.507  44.659  56.089  1.00  0.00     0.001 A 
HETATM   14  C   UNL     1      29.445  45.544  55.980  1.00  0.00     0.001 A 
HETATM   15  C   UNL     1      28.455  45.342  55.014  1.00  0.00     0.014 A 
ENDROOT
BRANCH   1  16
HETATM   16  C   UNL     1      24.448  44.229  51.101  1.00  0.00     0.205 C 
BRANCH  16  17
HETATM   17  C   UNL     1      23.596  43.187  50.357  1.00  0.00     0.032 C 
HETATM   18  C   UNL     1      22.374  43.794  49.683  1.00  0.00     0.007 C 
ENDBRANCH  16  17
BRANCH  16  19
HETATM   19  C   UNL     1      24.812  45.410  50.177  1.00  0.00     0.242 C 
HETATM   20  N   UNL     1      24.273  46.624  50.568  1.00  0.00    -0.359 N 
HETATM   21  H   UNL     1      23.819  46.705  51.470  1.00  0.00     0.162 HD
HETATM   22  O   UNL     1      25.484  45.296  49.154  1.00  0.00    -0.271 OA
BRANCH  20  23
HETATM   23  C   UNL     1      24.508  47.847  49.828  1.00  0.00     0.125 C 
BRANCH  23  24
HETATM   24  C   UNL     1      23.323  48.245  48.950  1.00  0.00     0.046 C 
BRANCH  24  25
HETATM   25  C   UNL     1      23.042  49.745  48.959  1.00  0.00     0.169 C 
BRANCH  25  26
HETATM   26  O   UNL     1      21.755  49.982  49.524  1.00  0.00    -0.387 OA
BRANCH  26  27
HETATM   27  C   UNL     1      21.013  51.012  48.866  1.00  0.00     0.113 C 
HETATM   28  C   UNL     1      20.449  50.521  47.535  1.00  0.00     0.039 C 
HETATM   29  C   UNL     1      19.876  51.402  49.805  1.00  0.00     0.039 C 
ENDBRANCH  26  27
ENDBRANCH  25  26
ENDBRANCH  24  25
ENDBRANCH  23  24
ENDBRANCH  20  23
ENDBRANCH  16  19
ENDBRANCH   1  16
TORSDOF 8
ENDMDL
MODEL 6
REMARK VINA RESULT:      -7.7      3.127      8.984
REMARK  8 active torsions:
REMARK  status: ('A' for Active; 'I' for Inactive)
REMARK    1  A    between atoms: C_2  and  C_3 
REMARK    2  A    between atoms: C_3  and  N_4 
REMARK    3  A    between atoms: C_3  and  C_19 
REMARK       I    between atoms: C_19  and  N_20 
REMARK    4  A    between atoms: N_20  and  C_21 
REMARK    5  A    between atoms: C_21  and  C_22 
REMARK    6  A    between atoms: C_22  and  C_23 
REMARK    7  A    between atoms: C_23  and  O_24 
REMARK    8  A    between atoms: O_24  and  C_25 
ROOT
HETATM    1  N   UNL     1      24.446  47.443  49.627  1.00  0.00    -0.220 N 
HETATM    2  N   UNL     1      24.179  46.083  49.448  1.00  0.00    -0.172 NA
HETATM    3  C   UNL     1      23.052  45.718  48.908  1.00  0.00     0.069 A 
HETATM    4  C   UNL     1      22.770  44.246  48.764  1.00  0.00     0.074 C 
HETATM    5  C   UNL     1      22.112  46.709  48.454  1.00  0.00     0.048 A 
HETATM    6  C   UNL     1      22.338  48.053  48.617  1.00  0.00     0.064 A 
HETATM    7  C   UNL     1      23.555  48.484  49.291  1.00  0.00     0.277 A 
HETATM    8  O   UNL     1      23.792  49.668  49.524  1.00  0.00    -0.266 OA
HETATM    9  S   UNL     1      20.657  46.371  47.666  1.00  0.00    -0.086 SA
HETATM   10  C   UNL     1      20.287  48.044  47.485  1.00  0.00     0.017 A 
HETATM   11  C   UNL     1      21.282  48.853  48.049  1.00  0.00    -0.002 A 
HETATM   12  C   UNL     1      19.153  48.593  46.855  1.00  0.00     0.020 A 
HETATM   13  C   UNL     1      19.019  49.981  46.790  1.00  0.00     0.001 A 
HETATM   14  C   UNL     1      19.987  50.807  47.340  1.00  0.00     0.001 A 
HETATM   15  C   UNL     1      21.109  50.258  47.968  1.00  0.00     0.014 A 
ENDROOT
BRANCH   1  16
HETATM   16  C   UNL     1      25.681  47.794  50.341  1.00  0.00     0.205 C 
BRANCH  16  17
HETATM   17  C   UNL     1      26.946  47.539  49.503  1.00  0.00     0.032 C 
HETATM   18  C   UNL     1      27.657  48.822  49.099  1.00  0.00     0.007 C 
ENDBRANCH  16  17
BRANCH  16  19
HETATM   19  C   UNL     1      25.724  47.001  51.664  1.00  0.00     0.242 C 
HETATM   20  N   UNL     1      26.248  45.725  51.545  1.00  0.00    -0.359 N 
HETATM   21  H   UNL     1      26.691  45.443  50.679  1.00  0.00     0.162 HD
HETATM   22  O   UNL     1      25.295  47.431  52.732  1.00  0.00    -0.271 OA
BRANCH  20  23
HETATM   23  C   UNL     1      26.372  44.833  52.680  1.00  0.00     0.125 C 
BRANCH  23  24
HETATM   24  C   UNL     1      27.782  44.265  52.836  1.00  0.00     0.046 C 
BRANCH  24  25
HETATM   25  C   UNL     1      28.168  43.998  54.288  1.00  0.00     0.169 C 
BRANCH  25  26
HETATM   26  O   UNL     1      27.648  45.038  55.114  1.00  0.00    -0.387 OA
BRANCH  26  27
HETATM   27  C   UNL     1      28.582  46.087  55.383  1.00  0.00     0.113 C 
HETATM   28  C   UNL     1      28.031  47.441  54.944  1.00  0.00     0.039 C 
HETATM   29  C   UNL     1      28.825  46.083  56.888  1.00  0.00     0.039 C 
ENDBRANCH  26  27
ENDBRANCH  25  26
ENDBRANCH  24  25
ENDBRANCH  23  24
ENDBRANCH  20  23
ENDBRANCH  16  19
ENDBRANCH   1  16
TORSDOF 8
ENDMDL
MODEL 7
REMARK VINA RESULT:      -7.7      2.678      8.498
REMARK  8 active torsions:
REMARK  status: ('A' for Active; 'I' for Inactive)
REMARK    1  A    between atoms: C_2  and  C_3 
REMARK    2  A    between atoms: C_3  and  N_4 
REMARK    3  A    between atoms: C_3  and  C_19 
REMARK       I    between atoms: C_19  and  N_20 
REMARK    4  A    between atoms: N_20  and  C_21 
REMARK    5  A    between atoms: C_21  and  C_22 
REMARK    6  A    between atoms: C_22  and  C_23 
REMARK    7  A    between atoms: C_23  and  O_24 
REMARK    8  A    between atoms: O_24  and  C_25 
ROOT
HETATM    1  N   UNL     1      24.484  45.959  49.590  1.00  0.00    -0.220 N 
HETATM    2  N   UNL     1      23.753  44.937  48.977  1.00  0.00    -0.172 NA
HETATM    3  C   UNL     1      22.617  45.216  48.408  1.00  0.00     0.069 A 
HETATM    4  C   UNL     1      21.830  44.090  47.790  1.00  0.00     0.074 C 
HETATM    5  C   UNL     1      22.140  46.573  48.367  1.00  0.00     0.048 A 
HETATM    6  C   UNL     1      22.827  47.602  48.963  1.00  0.00     0.064 A 
HETATM    7  C   UNL     1      24.062  47.302  49.675  1.00  0.00     0.277 A 
HETATM    8  O   UNL     1      24.694  48.165  50.282  1.00  0.00    -0.266 OA
HETATM    9  S   UNL     1      20.727  47.078  47.592  1.00  0.00    -0.086 SA
HETATM   10  C   UNL     1      21.008  48.727  48.008  1.00  0.00     0.017 A 
HETATM   11  C   UNL     1      22.182  48.874  48.757  1.00  0.00    -0.002 A 
HETATM   12  C   UNL     1      20.204  49.831  47.664  1.00  0.00     0.020 A 
HETATM   13  C   UNL     1      20.590  51.107  48.079  1.00  0.00     0.001 A 
HETATM   14  C   UNL     1      21.747  51.283  48.822  1.00  0.00     0.001 A 
HETATM   15  C   UNL     1      22.540  50.185  49.165  1.00  0.00     0.014 A 
ENDROOT
BRANCH   1  16
HETATM   16  C   UNL     1      25.702  45.570  50.312  1.00  0.00     0.205 C 
BRANCH  16  17
HETATM   17  C   UNL     1      26.287  44.237  49.817  1.00  0.00     0.032 C 
HETATM   18  C   UNL     1      27.482  43.773  50.638  1.00  0.00     0.007 C 
ENDBRANCH  16  17
BRANCH  16  19
HETATM   19  C   UNL     1      25.380  45.508  51.820  1.00  0.00     0.242 C 
HETATM   20  N   UNL     1      26.099  46.405  52.591  1.00  0.00    -0.359 N 
HETATM   21  H   UNL     1      26.658  47.119  52.142  1.00  0.00     0.162 HD
HETATM   22  O   UNL     1      24.588  44.710  52.317  1.00  0.00    -0.271 OA
BRANCH  20  23
HETATM   23  C   UNL     1      25.929  46.496  54.028  1.00  0.00     0.125 C 
BRANCH  23  24
HETATM   24  C   UNL     1      27.226  46.243  54.795  1.00  0.00     0.046 C 
BRANCH  24  25
HETATM   25  C   UNL     1      27.546  44.761  54.968  1.00  0.00     0.169 C 
BRANCH  25  26
HETATM   26  O   UNL     1      28.414  44.339  53.920  1.00  0.00    -0.387 OA
BRANCH  26  27
HETATM   27  C   UNL     1      29.347  43.328  54.310  1.00  0.00     0.113 C 
HETATM   28  C   UNL     1      30.152  42.830  53.112  1.00  0.00     0.039 C 
HETATM   29  C   UNL     1      30.276  43.960  55.340  1.00  0.00     0.039 C 
ENDBRANCH  26  27
ENDBRANCH  25  26
ENDBRANCH  24  25
ENDBRANCH  23  24
ENDBRANCH  20  23
ENDBRANCH  16  19
ENDBRANCH   1  16
TORSDOF 8
ENDMDL
MODEL 8
REMARK VINA RESULT:      -7.7      3.392      9.476
REMARK  8 active torsions:
REMARK  status: ('A' for Active; 'I' for Inactive)
REMARK    1  A    between atoms: C_2  and  C_3 
REMARK    2  A    between atoms: C_3  and  N_4 
REMARK    3  A    between atoms: C_3  and  C_19 
REMARK       I    between atoms: C_19  and  N_20 
REMARK    4  A    between atoms: N_20  and  C_21 
REMARK    5  A    between atoms: C_21  and  C_22 
REMARK    6  A    between atoms: C_22  and  C_23 
REMARK    7  A    between atoms: C_23  and  O_24 
REMARK    8  A    between atoms: O_24  and  C_25 
ROOT
HETATM    1  N   UNL     1      23.874  48.335  49.125  1.00  0.00    -0.220 N 
HETATM    2  N   UNL     1      23.421  47.043  48.840  1.00  0.00    -0.172 NA
HETATM    3  C   UNL     1      22.167  46.857  48.546  1.00  0.00     0.069 A 
HETATM    4  C   UNL     1      21.694  45.451  48.283  1.00  0.00     0.074 C 
HETATM    5  C   UNL     1      21.266  47.976  48.468  1.00  0.00     0.048 A 
HETATM    6  C   UNL     1      21.674  49.257  48.746  1.00  0.00     0.064 A 
HETATM    7  C   UNL     1      23.054  49.482  49.155  1.00  0.00     0.277 A 
HETATM    8  O   UNL     1      23.470  50.593  49.477  1.00  0.00    -0.266 OA
HETATM    9  S   UNL     1      19.641  47.880  48.019  1.00  0.00    -0.086 SA
HETATM   10  C   UNL     1      19.432  49.585  48.154  1.00  0.00     0.017 A 
HETATM   11  C   UNL     1      20.614  50.216  48.561  1.00  0.00    -0.002 A 
HETATM   12  C   UNL     1      18.253  50.312  47.896  1.00  0.00     0.020 A 
HETATM   13  C   UNL     1      18.266  51.700  48.047  1.00  0.00     0.001 A 
HETATM   14  C   UNL     1      19.421  52.352  48.450  1.00  0.00     0.001 A 
HETATM   15  C   UNL     1      20.588  51.626  48.709  1.00  0.00     0.014 A 
ENDROOT
BRANCH   1  16
HETATM   16  C   UNL     1      25.271  48.472  49.558  1.00  0.00     0.205 C 
BRANCH  16  17
HETATM   17  C   UNL     1      26.177  49.067  48.466  1.00  0.00     0.032 C 
HETATM   18  C   UNL     1      27.508  49.567  49.008  1.00  0.00     0.007 C 
ENDBRANCH  16  17
BRANCH  16  19
HETATM   19  C   UNL     1      25.783  47.087  50.009  1.00  0.00     0.242 C 
HETATM   20  N   UNL     1      25.264  46.657  51.218  1.00  0.00    -0.359 N 
HETATM   21  H   UNL     1      24.505  47.170  51.650  1.00  0.00     0.162 HD
HETATM   22  O   UNL     1      26.612  46.429  49.385  1.00  0.00    -0.271 OA
BRANCH  20  23
HETATM   23  C   UNL     1      25.624  45.380  51.801  1.00  0.00     0.125 C 
BRANCH  23  24
HETATM   24  C   UNL     1      26.668  45.508  52.909  1.00  0.00     0.046 C 
BRANCH  24  25
HETATM   25  C   UNL     1      26.532  44.443  53.993  1.00  0.00     0.169 C 
BRANCH  25  26
HETATM   26  O   UNL     1      27.546  43.456  53.818  1.00  0.00    -0.387 OA
BRANCH  26  27
HETATM   27  C   UNL     1      28.861  43.997  53.669  1.00  0.00     0.113 C 
HETATM   28  C   UNL     1      29.604  44.015  55.003  1.00  0.00     0.039 C 
HETATM   29  C   UNL     1      29.593  43.103  52.674  1.00  0.00     0.039 C 
ENDBRANCH  26  27
ENDBRANCH  25  26
ENDBRANCH  24  25
ENDBRANCH  23  24
ENDBRANCH  20  23
ENDBRANCH  16  19
ENDBRANCH   1  16
TORSDOF 8
ENDMDL
MODEL 9
REMARK VINA RESULT:      -7.6      3.183      9.242
REMARK  8 active torsions:
REMARK  status: ('A' for Active; 'I' for Inactive)
REMARK    1  A    between atoms: C_2  and  C_3 
REMARK    2  A    between atoms: C_3  and  N_4 
REMARK    3  A    between atoms: C_3  and  C_19 
REMARK       I    between atoms: C_19  and  N_20 
REMARK    4  A    between atoms: N_20  and  C_21 
REMARK    5  A    between atoms: C_21  and  C_22 
REMARK    6  A    between atoms: C_22  and  C_23 
REMARK    7  A    between atoms: C_23  and  O_24 
REMARK    8  A    between atoms: O_24  and  C_25 
ROOT
HETATM    1  N   UNL     1      24.275  47.589  49.575  1.00  0.00    -0.220 N 
HETATM    2  N   UNL     1      23.950  46.265  49.263  1.00  0.00    -0.172 NA
HETATM    3  C   UNL     1      22.795  46.000  48.726  1.00  0.00     0.069 A 
HETATM    4  C   UNL     1      22.452  44.562  48.438  1.00  0.00     0.074 C 
HETATM    5  C   UNL     1      21.880  47.065  48.410  1.00  0.00     0.048 A 
HETATM    6  C   UNL     1      22.163  48.376  48.706  1.00  0.00     0.064 A 
HETATM    7  C   UNL     1      23.415  48.690  49.380  1.00  0.00     0.277 A 
HETATM    8  O   UNL     1      23.704  49.833  49.729  1.00  0.00    -0.266 OA
HETATM    9  S   UNL     1      20.391  46.864  47.640  1.00  0.00    -0.086 SA
HETATM   10  C   UNL     1      20.081  48.560  47.648  1.00  0.00     0.017 A 
HETATM   11  C   UNL     1      21.122  49.268  48.261  1.00  0.00    -0.002 A 
HETATM   12  C   UNL     1      18.951  49.211  47.118  1.00  0.00     0.020 A 
HETATM   13  C   UNL     1      18.868  50.602  47.203  1.00  0.00     0.001 A 
HETATM   14  C   UNL     1      19.883  51.331  47.805  1.00  0.00     0.001 A 
HETATM   15  C   UNL     1      21.001  50.680  48.334  1.00  0.00     0.014 A 
ENDROOT
BRANCH   1  16
HETATM   16  C   UNL     1      25.543  47.818  50.280  1.00  0.00     0.205 C 
BRANCH  16  17
HETATM   17  C   UNL     1      26.772  47.487  49.418  1.00  0.00     0.032 C 
HETATM   18  C   UNL     1      27.611  48.712  49.086  1.00  0.00     0.007 C 
ENDBRANCH  16  17
BRANCH  16  19
HETATM   19  C   UNL     1      25.538  46.986  51.580  1.00  0.00     0.242 C 
HETATM   20  N   UNL     1      25.865  45.653  51.402  1.00  0.00    -0.359 N 
HETATM   21  H   UNL     1      26.218  45.337  50.507  1.00  0.00     0.162 HD
HETATM   22  O   UNL     1      25.230  47.439  52.680  1.00  0.00    -0.271 OA
BRANCH  20  23
HETATM   23  C   UNL     1      25.917  44.717  52.507  1.00  0.00     0.125 C 
BRANCH  23  24
HETATM   24  C   UNL     1      27.327  44.537  53.067  1.00  0.00     0.046 C 
BRANCH  24  25
HETATM   25  C   UNL     1      27.349  43.934  54.468  1.00  0.00     0.169 C 
BRANCH  25  26
HETATM   26  O   UNL     1      28.263  42.840  54.499  1.00  0.00    -0.387 OA
BRANCH  26  27
HETATM   27  C   UNL     1      28.846  42.536  53.230  1.00  0.00     0.113 C 
HETATM   28  C   UNL     1      30.349  42.803  53.235  1.00  0.00     0.039 C 
HETATM   29  C   UNL     1      28.578  41.058  52.966  1.00  0.00     0.039 C 
ENDBRANCH  26  27
ENDBRANCH  25  26
ENDBRANCH  24  25
ENDBRANCH  23  24
ENDBRANCH  20  23
ENDBRANCH  16  19
ENDBRANCH   1  16
TORSDOF 8
ENDMDL
MODEL 10
REMARK VINA RESULT:      -7.5      2.194      3.163
REMARK  8 active torsions:
REMARK  status: ('A' for Active; 'I' for Inactive)
REMARK    1  A    between atoms: C_2  and  C_3 
REMARK    2  A    between atoms: C_3  and  N_4 
REMARK    3  A    between atoms: C_3  and  C_19 
REMARK       I    between atoms: C_19  and  N_20 
REMARK    4  A    between atoms: N_20  and  C_21 
REMARK    5  A    between atoms: C_21  and  C_22 
REMARK    6  A    between atoms: C_22  and  C_23 
REMARK    7  A    between atoms: C_23  and  O_24 
REMARK    8  A    between atoms: O_24  and  C_25 
ROOT
HETATM    1  N   UNL     1      26.832  46.052  53.107  1.00  0.00    -0.220 N 
HETATM    2  N   UNL     1      26.364  47.125  53.870  1.00  0.00    -0.172 NA
HETATM    3  C   UNL     1      26.850  47.323  55.061  1.00  0.00     0.069 A 
HETATM    4  C   UNL     1      26.300  48.460  55.880  1.00  0.00     0.074 C 
HETATM    5  C   UNL     1      27.897  46.475  55.567  1.00  0.00     0.048 A 
HETATM    6  C   UNL     1      28.379  45.409  54.848  1.00  0.00     0.064 A 
HETATM    7  C   UNL     1      27.794  45.118  53.545  1.00  0.00     0.277 A 
HETATM    8  O   UNL     1      28.135  44.145  52.876  1.00  0.00    -0.266 OA
HETATM    9  S   UNL     1      28.668  46.674  57.056  1.00  0.00    -0.086 SA
HETATM   10  C   UNL     1      29.714  45.334  56.770  1.00  0.00     0.017 A 
HETATM   11  C   UNL     1      29.450  44.731  55.535  1.00  0.00    -0.002 A 
HETATM   12  C   UNL     1      30.728  44.861  57.626  1.00  0.00     0.020 A 
HETATM   13  C   UNL     1      31.492  43.762  57.228  1.00  0.00     0.001 A 
HETATM   14  C   UNL     1      31.253  43.144  56.010  1.00  0.00     0.001 A 
HETATM   15  C   UNL     1      30.243  43.615  55.166  1.00  0.00     0.014 A 
ENDROOT
BRANCH   1  16
HETATM   16  C   UNL     1      26.171  45.809  51.818  1.00  0.00     0.205 C 
BRANCH  16  17
HETATM   17  C   UNL     1      25.436  47.049  51.282  1.00  0.00     0.032 C 
HETATM   18  C   UNL     1      26.228  47.792  50.216  1.00  0.00     0.007 C 
ENDBRANCH  16  17
BRANCH  16  19
HETATM   19  C   UNL     1      25.202  44.618  51.981  1.00  0.00     0.242 C 
HETATM   20  N   UNL     1      25.077  43.830  50.851  1.00  0.00    -0.359 N 
HETATM   21  H   UNL     1      25.702  43.972  50.067  1.00  0.00     0.162 HD
HETATM   22  O   UNL     1      24.556  44.399  53.003  1.00  0.00    -0.271 OA
BRANCH  20  23
HETATM   23  C   UNL     1      24.216  42.664  50.815  1.00  0.00     0.125 C 
BRANCH  23  24
HETATM   24  C   UNL     1      23.077  42.800  49.805  1.00  0.00     0.046 C 
BRANCH  24  25
HETATM   25  C   UNL     1      22.622  44.242  49.598  1.00  0.00     0.169 C 
BRANCH  25  26
HETATM   26  O   UNL     1      21.279  44.250  49.121  1.00  0.00    -0.387 OA
BRANCH  26  27
HETATM   27  C   UNL     1      21.005  45.286  48.174  1.00  0.00     0.113 C 
HETATM   28  C   UNL     1      19.661  45.951  48.458  1.00  0.00     0.039 C 
HETATM   29  C   UNL     1      22.132  46.305  48.301  1.00  0.00     0.039 C 
ENDBRANCH  26  27
ENDBRANCH  25  26
ENDBRANCH  24  25
ENDBRANCH  23  24
ENDBRANCH  20  23
ENDBRANCH  16  19
ENDBRANCH   1  16
TORSDOF 8
ENDMDL
