MODEL 1
REMARK VINA RESULT:      -8.3      0.000      0.000
REMARK  8 active torsions:
REMARK  status: ('A' for Active; 'I' for Inactive)
REMARK       I    between atoms: C_2  and  N_3 
REMARK    1  A    between atoms: N_3  and  C_4 
REMARK    2  A    between atoms: C_6  and  C_7 
REMARK    3  A    between atoms: C_7  and  N_8 
REMARK    4  A    between atoms: C_11  and  C_12 
REMARK    5  A    between atoms: C_14  and  S_15 
REMARK    6  A    between atoms: S_15  and  C_16 
REMARK    7  A    between atoms: C_16  and  C_17 
REMARK    8  A    between atoms: C_17  and  N_18 
ROOT
HETATM    1  N   UNL     1      28.003  45.590  54.587  1.00  0.00    -0.066 N 
HETATM    2  H   UNL     1      28.293  45.708  53.607  1.00  0.00     0.280 HD
HETATM    3  C   UNL     1      26.510  45.338  54.555  1.00  0.00     0.246 C 
HETATM    4  C   UNL     1      25.739  46.501  53.922  1.00  0.00     0.064 C 
HETATM    5  C   UNL     1      26.151  47.855  54.514  1.00  0.00     0.014 C 
HETATM    6  C   UNL     1      27.661  48.045  54.603  1.00  0.00     0.028 C 
HETATM    7  C   UNL     1      28.339  46.878  55.303  1.00  0.00     0.235 C 
ENDROOT
BRANCH   4   8
HETATM    8  C   UNL     1      25.806  46.484  52.399  1.00  0.00     0.044 A 
HETATM    9  N   UNL     1      25.264  47.518  51.700  1.00  0.00    -0.227 NA
HETATM   10  C   UNL     1      25.237  47.359  50.353  1.00  0.00     0.188 A 
HETATM   11  N   UNL     1      25.814  46.357  49.680  1.00  0.00    -0.235 NA
HETATM   12  C   UNL     1      26.362  45.373  50.406  1.00  0.00     0.121 A 
HETATM   13  C   UNL     1      26.372  45.379  51.778  1.00  0.00     0.047 A 
BRANCH  10  14
HETATM   14  S   UNL     1      24.294  48.469  49.335  1.00  0.00    -0.088 SA
BRANCH  14  15
HETATM   15  C   UNL     1      22.868  47.453  48.883  1.00  0.00     0.110 C 
BRANCH  15  16
HETATM   16  C   UNL     1      21.628  48.289  48.563  1.00  0.00     0.245 C 
BRANCH  16  17
HETATM   17  N   UNL     1      21.078  49.035  49.755  1.00  0.00    -0.070 N 
HETATM   18  H   UNL     1      21.530  48.658  50.604  1.00  0.00     0.279 HD
HETATM   19  C   UNL     1      19.573  48.837  49.908  1.00  0.00     0.235 C 
HETATM   20  C   UNL     1      18.989  50.114  49.349  1.00  0.00     0.029 C 
HETATM   21  C   UNL     1      19.934  51.163  49.896  1.00  0.00     0.029 C 
HETATM   22  C   UNL     1      21.309  50.543  49.725  1.00  0.00     0.235 C 
ENDBRANCH  16  17
ENDBRANCH  15  16
ENDBRANCH  14  15
ENDBRANCH  10  14
ENDBRANCH   4   8
BRANCH   1  23
HETATM   23  C   UNL     1      28.773  44.416  55.177  1.00  0.00     0.280 C 
BRANCH  23  24
HETATM   24  C   UNL     1      29.013  43.318  54.188  1.00  0.00     0.010 A 
HETATM   25  S   UNL     1      27.739  42.267  53.713  1.00  0.00    -0.075 SA
HETATM   26  C   UNL     1      28.740  41.444  52.619  1.00  0.00     0.076 A 
HETATM   27  C   UNL     1      30.043  41.869  52.677  1.00  0.00     0.038 A 
HETATM   28  C   UNL     1      30.207  42.948  53.599  1.00  0.00     0.019 A 
BRANCH  26  29
HETATM   29  N   UNL     1      28.108  40.481  51.872  1.00  0.00    -0.322 N 
HETATM   30  C   UNL     1      27.617  40.727  50.603  1.00  0.00     0.218 C 
HETATM   31  C   UNL     1      27.054  39.496  49.944  1.00  0.00     0.117 C 
HETATM   32  O   UNL     1      27.555  41.835  50.073  1.00  0.00    -0.274 OA
HETATM   33  H   UNL     1      27.936  39.580  52.306  1.00  0.00     0.169 HD
ENDBRANCH  26  29
ENDBRANCH  23  24
ENDBRANCH   1  23
TORSDOF 8
ENDMDL
MODEL 2
REMARK VINA RESULT:      -8.1      3.115      4.693
REMARK  8 active torsions:
REMARK  status: ('A' for Active; 'I' for Inactive)
REMARK       I    between atoms: C_2  and  N_3 
REMARK    1  A    between atoms: N_3  and  C_4 
REMARK    2  A    between atoms: C_6  and  C_7 
REMARK    3  A    between atoms: C_7  and  N_8 
REMARK    4  A    between atoms: C_11  and  C_12 
REMARK    5  A    between atoms: C_14  and  S_15 
REMARK    6  A    between atoms: S_15  and  C_16 
REMARK    7  A    between atoms: C_16  and  C_17 
REMARK    8  A    between atoms: C_17  and  N_18 
ROOT
HETATM    1  N   UNL     1      25.340  46.392  52.313  1.00  0.00    -0.066 N 
HETATM    2  H   UNL     1      24.596  47.017  51.976  1.00  0.00     0.280 HD
HETATM    3  C   UNL     1      26.622  46.886  51.675  1.00  0.00     0.246 C 
HETATM    4  C   UNL     1      26.561  46.844  50.145  1.00  0.00     0.064 C 
HETATM    5  C   UNL     1      26.063  45.490  49.624  1.00  0.00     0.014 C 
HETATM    6  C   UNL     1      24.816  44.985  50.340  1.00  0.00     0.028 C 
HETATM    7  C   UNL     1      24.985  44.997  51.852  1.00  0.00     0.235 C 
ENDROOT
BRANCH   4   8
HETATM    8  C   UNL     1      25.782  48.017  49.561  1.00  0.00     0.044 A 
HETATM    9  N   UNL     1      24.438  48.090  49.768  1.00  0.00    -0.227 NA
HETATM   10  C   UNL     1      23.800  49.081  49.098  1.00  0.00     0.188 A 
HETATM   11  N   UNL     1      24.395  50.044  48.386  1.00  0.00    -0.235 NA
HETATM   12  C   UNL     1      25.723  49.952  48.231  1.00  0.00     0.121 A 
HETATM   13  C   UNL     1      26.468  48.942  48.787  1.00  0.00     0.047 A 
BRANCH  10  14
HETATM   14  S   UNL     1      22.024  49.117  49.023  1.00  0.00    -0.088 SA
BRANCH  14  15
HETATM   15  C   UNL     1      21.648  50.764  49.666  1.00  0.00     0.110 C 
BRANCH  15  16
HETATM   16  C   UNL     1      20.481  51.430  48.935  1.00  0.00     0.245 C 
BRANCH  16  17
HETATM   17  N   UNL     1      19.262  51.630  49.802  1.00  0.00    -0.070 N 
HETATM   18  H   UNL     1      19.566  52.073  50.684  1.00  0.00     0.279 HD
HETATM   19  C   UNL     1      18.592  50.306  50.160  1.00  0.00     0.235 C 
HETATM   20  C   UNL     1      17.412  50.239  49.217  1.00  0.00     0.029 C 
HETATM   21  C   UNL     1      16.909  51.667  49.234  1.00  0.00     0.029 C 
HETATM   22  C   UNL     1      18.176  52.503  49.181  1.00  0.00     0.235 C 
ENDBRANCH  16  17
ENDBRANCH  15  16
ENDBRANCH  14  15
ENDBRANCH  10  14
ENDBRANCH   4   8
BRANCH   1  23
HETATM   23  C   UNL     1      25.385  46.474  53.833  1.00  0.00     0.280 C 
BRANCH  23  24
HETATM   24  C   UNL     1      26.770  46.331  54.386  1.00  0.00     0.010 A 
HETATM   25  S   UNL     1      27.438  44.779  54.695  1.00  0.00    -0.075 SA
HETATM   26  C   UNL     1      28.918  45.443  55.187  1.00  0.00     0.076 A 
HETATM   27  C   UNL     1      28.891  46.814  55.228  1.00  0.00     0.038 A 
HETATM   28  C   UNL     1      27.638  47.332  54.777  1.00  0.00     0.019 A 
BRANCH  26  29
HETATM   29  N   UNL     1      29.893  44.523  55.484  1.00  0.00    -0.322 N 
HETATM   30  C   UNL     1      30.604  44.549  56.669  1.00  0.00     0.218 C 
HETATM   31  C   UNL     1      31.549  43.385  56.811  1.00  0.00     0.117 C 
HETATM   32  O   UNL     1      30.557  45.454  57.500  1.00  0.00    -0.274 OA
HETATM   33  H   UNL     1      30.141  43.847  54.769  1.00  0.00     0.169 HD
ENDBRANCH  26  29
ENDBRANCH  23  24
ENDBRANCH   1  23
TORSDOF 8
ENDMDL
MODEL 3
REMARK VINA RESULT:      -8.1      2.629      7.969
REMARK  8 active torsions:
REMARK  status: ('A' for Active; 'I' for Inactive)
REMARK       I    between atoms: C_2  and  N_3 
REMARK    1  A    between atoms: N_3  and  C_4 
REMARK    2  A    between atoms: C_6  and  C_7 
REMARK    3  A    between atoms: C_7  and  N_8 
REMARK    4  A    between atoms: C_11  and  C_12 
REMARK    5  A    between atoms: C_14  and  S_15 
REMARK    6  A    between atoms: S_15  and  C_16 
REMARK    7  A    between atoms: C_16  and  C_17 
REMARK    8  A    between atoms: C_17  and  N_18 
ROOT
HETATM    1  N   UNL     1      21.656  48.619  48.889  1.00  0.00    -0.066 N 
HETATM    2  H   UNL     1      22.358  48.231  49.533  1.00  0.00     0.280 HD
HETATM    3  C   UNL     1      22.409  49.006  47.632  1.00  0.00     0.246 C 
HETATM    4  C   UNL     1      23.496  50.049  47.907  1.00  0.00     0.064 C 
HETATM    5  C   UNL     1      22.967  51.231  48.729  1.00  0.00     0.014 C 
HETATM    6  C   UNL     1      22.148  50.808  49.943  1.00  0.00     0.028 C 
HETATM    7  C   UNL     1      21.050  49.823  49.572  1.00  0.00     0.235 C 
ENDROOT
BRANCH   4   8
HETATM    8  C   UNL     1      24.755  49.435  48.509  1.00  0.00     0.044 A 
HETATM    9  N   UNL     1      24.632  48.439  49.429  1.00  0.00    -0.227 NA
HETATM   10  C   UNL     1      25.787  48.047  50.020  1.00  0.00     0.188 A 
HETATM   11  N   UNL     1      27.012  48.457  49.674  1.00  0.00    -0.235 NA
HETATM   12  C   UNL     1      27.091  49.419  48.744  1.00  0.00     0.121 A 
HETATM   13  C   UNL     1      25.985  49.958  48.137  1.00  0.00     0.047 A 
BRANCH  10  14
HETATM   14  S   UNL     1      25.754  46.984  51.444  1.00  0.00    -0.088 SA
BRANCH  14  15
HETATM   15  C   UNL     1      26.303  45.405  50.755  1.00  0.00     0.110 C 
BRANCH  15  16
HETATM   16  C   UNL     1      26.423  44.310  51.815  1.00  0.00     0.245 C 
BRANCH  16  17
HETATM   17  N   UNL     1      27.844  43.872  52.072  1.00  0.00    -0.070 N 
HETATM   18  H   UNL     1      28.455  44.352  51.391  1.00  0.00     0.279 HD
HETATM   19  C   UNL     1      28.024  42.370  51.872  1.00  0.00     0.235 C 
HETATM   20  C   UNL     1      28.029  41.823  53.281  1.00  0.00     0.029 C 
HETATM   21  C   UNL     1      28.856  42.853  54.021  1.00  0.00     0.029 C 
HETATM   22  C   UNL     1      28.362  44.181  53.474  1.00  0.00     0.235 C 
ENDBRANCH  16  17
ENDBRANCH  15  16
ENDBRANCH  14  15
ENDBRANCH  10  14
ENDBRANCH   4   8
BRANCH   1  23
HETATM   23  C   UNL     1      20.604  47.550  48.623  1.00  0.00     0.280 C 
BRANCH  23  24
HETATM   24  C   UNL     1      21.197  46.221  48.272  1.00  0.00     0.010 A 
HETATM   25  S   UNL     1      22.724  45.745  48.900  1.00  0.00    -0.075 SA
HETATM   26  C   UNL     1      22.633  44.228  48.149  1.00  0.00     0.076 A 
HETATM   27  C   UNL     1      21.527  44.106  47.345  1.00  0.00     0.038 A 
HETATM   28  C   UNL     1      20.700  45.269  47.404  1.00  0.00     0.019 A 
BRANCH  26  29
HETATM   29  N   UNL     1      23.671  43.377  48.438  1.00  0.00    -0.322 N 
HETATM   30  C   UNL     1      23.725  42.640  49.607  1.00  0.00     0.218 C 
HETATM   31  C   UNL     1      24.907  41.708  49.657  1.00  0.00     0.117 C 
HETATM   32  O   UNL     1      22.956  42.768  50.558  1.00  0.00    -0.274 OA
HETATM   33  H   UNL     1      24.456  43.352  47.797  1.00  0.00     0.169 HD
ENDBRANCH  26  29
ENDBRANCH  23  24
ENDBRANCH   1  23
TORSDOF 8
ENDMDL
MODEL 4
REMARK VINA RESULT:      -8.1      3.812     10.595
REMARK  8 active torsions:
REMARK  status: ('A' for Active; 'I' for Inactive)
REMARK       I    between atoms: C_2  and  N_3 
REMARK    1  A    between atoms: N_3  and  C_4 
REMARK    2  A    between atoms: C_6  and  C_7 
REMARK    3  A    between atoms: C_7  and  N_8 
REMARK    4  A    between atoms: C_11  and  C_12 
REMARK    5  A    between atoms: C_14  and  S_15 
REMARK    6  A    between atoms: S_15  and  C_16 
REMARK    7  A    between atoms: C_16  and  C_17 
REMARK    8  A    between atoms: C_17  and  N_18 
ROOT
HETATM    1  N   UNL     1      21.697  49.053  49.077  1.00  0.00    -0.066 N 
HETATM    2  H   UNL     1      22.304  48.629  49.792  1.00  0.00     0.280 HD
HETATM    3  C   UNL     1      22.521  49.108  47.807  1.00  0.00     0.246 C 
HETATM    4  C   UNL     1      23.791  49.948  47.977  1.00  0.00     0.064 C 
HETATM    5  C   UNL     1      23.499  51.313  48.614  1.00  0.00     0.014 C 
HETATM    6  C   UNL     1      22.603  51.229  49.845  1.00  0.00     0.028 C 
HETATM    7  C   UNL     1      21.335  50.435  49.571  1.00  0.00     0.235 C 
ENDROOT
BRANCH   4   8
HETATM    8  C   UNL     1      24.899  49.191  48.700  1.00  0.00     0.044 A 
HETATM    9  N   UNL     1      24.565  48.274  49.650  1.00  0.00    -0.227 NA
HETATM   10  C   UNL     1      25.605  47.750  50.344  1.00  0.00     0.188 A 
HETATM   11  N   UNL     1      26.899  47.959  50.076  1.00  0.00    -0.235 NA
HETATM   12  C   UNL     1      27.185  48.847  49.114  1.00  0.00     0.121 A 
HETATM   13  C   UNL     1      26.216  49.508  48.402  1.00  0.00     0.047 A 
BRANCH  10  14
HETATM   14  S   UNL     1      25.315  46.783  51.806  1.00  0.00    -0.088 SA
BRANCH  14  15
HETATM   15  C   UNL     1      26.310  45.307  51.490  1.00  0.00     0.110 C 
BRANCH  15  16
HETATM   16  C   UNL     1      25.730  44.054  52.148  1.00  0.00     0.245 C 
BRANCH  16  17
HETATM   17  N   UNL     1      26.781  43.118  52.694  1.00  0.00    -0.070 N 
HETATM   18  H   UNL     1      26.447  42.149  52.560  1.00  0.00     0.279 HD
HETATM   19  C   UNL     1      27.007  43.322  54.189  1.00  0.00     0.235 C 
HETATM   20  C   UNL     1      28.280  44.136  54.248  1.00  0.00     0.029 C 
HETATM   21  C   UNL     1      29.125  43.482  53.175  1.00  0.00     0.029 C 
HETATM   22  C   UNL     1      28.151  43.243  52.034  1.00  0.00     0.235 C 
ENDBRANCH  16  17
ENDBRANCH  15  16
ENDBRANCH  14  15
ENDBRANCH  10  14
ENDBRANCH   4   8
BRANCH   1  23
HETATM   23  C   UNL     1      20.457  48.183  48.922  1.00  0.00     0.280 C 
BRANCH  23  24
HETATM   24  C   UNL     1      19.244  48.960  48.514  1.00  0.00     0.010 A 
HETATM   25  S   UNL     1      18.069  49.430  49.676  1.00  0.00    -0.075 SA
HETATM   26  C   UNL     1      17.153  50.255  48.512  1.00  0.00     0.076 A 
HETATM   27  C   UNL     1      17.652  50.097  47.243  1.00  0.00     0.038 A 
HETATM   28  C   UNL     1      18.859  49.333  47.241  1.00  0.00     0.019 A 
BRANCH  26  29
HETATM   29  N   UNL     1      16.061  50.924  49.005  1.00  0.00    -0.322 N 
HETATM   30  C   UNL     1      16.152  52.184  49.567  1.00  0.00     0.218 C 
HETATM   31  C   UNL     1      14.811  52.754  49.948  1.00  0.00     0.117 C 
HETATM   32  O   UNL     1      17.203  52.769  49.821  1.00  0.00    -0.274 OA
HETATM   33  H   UNL     1      15.171  50.437  49.017  1.00  0.00     0.169 HD
ENDBRANCH  26  29
ENDBRANCH  23  24
ENDBRANCH   1  23
TORSDOF 8
ENDMDL
MODEL 5
REMARK VINA RESULT:      -8.0      2.725      4.303
REMARK  8 active torsions:
REMARK  status: ('A' for Active; 'I' for Inactive)
REMARK       I    between atoms: C_2  and  N_3 
REMARK    1  A    between atoms: N_3  and  C_4 
REMARK    2  A    between atoms: C_6  and  C_7 
REMARK    3  A    between atoms: C_7  and  N_8 
REMARK    4  A    between atoms: C_11  and  C_12 
REMARK    5  A    between atoms: C_14  and  S_15 
REMARK    6  A    between atoms: S_15  and  C_16 
REMARK    7  A    between atoms: C_16  and  C_17 
REMARK    8  A    between atoms: C_17  and  N_18 
ROOT
HETATM    1  N   UNL     1      25.504  45.372  50.442  1.00  0.00    -0.066 N 
HETATM    2  H   UNL     1      24.944  45.447  49.582  1.00  0.00     0.280 HD
HETATM    3  C   UNL     1      25.120  46.561  51.298  1.00  0.00     0.246 C 
HETATM    4  C   UNL     1      25.412  47.894  50.603  1.00  0.00     0.064 C 
HETATM    5  C   UNL     1      26.835  47.946  50.030  1.00  0.00     0.014 C 
HETATM    6  C   UNL     1      27.217  46.700  49.239  1.00  0.00     0.028 C 
HETATM    7  C   UNL     1      26.956  45.426  50.027  1.00  0.00     0.235 C 
ENDROOT
BRANCH   4   8
HETATM    8  C   UNL     1      24.352  48.257  49.569  1.00  0.00     0.044 A 
HETATM    9  N   UNL     1      23.289  47.426  49.390  1.00  0.00    -0.227 NA
HETATM   10  C   UNL     1      22.470  47.744  48.357  1.00  0.00     0.188 A 
HETATM   11  N   UNL     1      22.552  48.855  47.617  1.00  0.00    -0.235 NA
HETATM   12  C   UNL     1      23.598  49.661  47.844  1.00  0.00     0.121 A 
HETATM   13  C   UNL     1      24.543  49.399  48.804  1.00  0.00     0.047 A 
BRANCH  10  14
HETATM   14  S   UNL     1      21.226  46.598  47.809  1.00  0.00    -0.088 SA
BRANCH  14  15
HETATM   15  C   UNL     1      19.751  47.200  48.663  1.00  0.00     0.110 C 
BRANCH  15  16
HETATM   16  C   UNL     1      19.094  48.380  47.944  1.00  0.00     0.245 C 
BRANCH  16  17
HETATM   17  N   UNL     1      18.845  49.569  48.839  1.00  0.00    -0.070 N 
HETATM   18  H   UNL     1      17.893  49.481  49.230  1.00  0.00     0.279 HD
HETATM   19  C   UNL     1      18.906  50.885  48.070  1.00  0.00     0.235 C 
HETATM   20  C   UNL     1      20.275  51.430  48.407  1.00  0.00     0.029 C 
HETATM   21  C   UNL     1      20.390  51.112  49.883  1.00  0.00     0.029 C 
HETATM   22  C   UNL     1      19.824  49.708  50.001  1.00  0.00     0.235 C 
ENDBRANCH  16  17
ENDBRANCH  15  16
ENDBRANCH  14  15
ENDBRANCH  10  14
ENDBRANCH   4   8
BRANCH   1  23
HETATM   23  C   UNL     1      25.174  44.047  51.116  1.00  0.00     0.280 C 
BRANCH  23  24
HETATM   24  C   UNL     1      25.911  43.845  52.404  1.00  0.00     0.010 A 
HETATM   25  S   UNL     1      27.495  43.181  52.416  1.00  0.00    -0.075 SA
HETATM   26  C   UNL     1      27.621  43.346  54.099  1.00  0.00     0.076 A 
HETATM   27  C   UNL     1      26.456  43.791  54.671  1.00  0.00     0.038 A 
HETATM   28  C   UNL     1      25.456  44.067  53.689  1.00  0.00     0.019 A 
BRANCH  26  29
HETATM   29  N   UNL     1      28.841  42.996  54.623  1.00  0.00    -0.322 N 
HETATM   30  C   UNL     1      29.680  43.911  55.230  1.00  0.00     0.218 C 
HETATM   31  C   UNL     1      30.915  43.277  55.814  1.00  0.00     0.117 C 
HETATM   32  O   UNL     1      29.509  45.129  55.237  1.00  0.00    -0.274 OA
HETATM   33  H   UNL     1      29.158  42.041  54.490  1.00  0.00     0.169 HD
ENDBRANCH  26  29
ENDBRANCH  23  24
ENDBRANCH   1  23
TORSDOF 8
ENDMDL
MODEL 6
REMARK VINA RESULT:      -7.9      3.133      4.120
REMARK  8 active torsions:
REMARK  status: ('A' for Active; 'I' for Inactive)
REMARK       I    between atoms: C_2  and  N_3 
REMARK    1  A    between atoms: N_3  and  C_4 
REMARK    2  A    between atoms: C_6  and  C_7 
REMARK    3  A    between atoms: C_7  and  N_8 
REMARK    4  A    between atoms: C_11  and  C_12 
REMARK    5  A    between atoms: C_14  and  S_15 
REMARK    6  A    between atoms: S_15  and  C_16 
REMARK    7  A    between atoms: C_16  and  C_17 
REMARK    8  A    between atoms: C_17  and  N_18 
ROOT
HETATM    1  N   UNL     1      25.198  44.878  49.408  1.00  0.00    -0.066 N 
HETATM    2  H   UNL     1      24.911  45.348  48.539  1.00  0.00     0.280 HD
HETATM    3  C   UNL     1      24.404  45.533  50.520  1.00  0.00     0.246 C 
HETATM    4  C   UNL     1      24.684  47.036  50.624  1.00  0.00     0.064 C 
HETATM    5  C   UNL     1      26.187  47.343  50.640  1.00  0.00     0.014 C 
HETATM    6  C   UNL     1      26.968  46.608  49.557  1.00  0.00     0.028 C 
HETATM    7  C   UNL     1      26.683  45.114  49.566  1.00  0.00     0.235 C 
ENDROOT
BRANCH   4   8
HETATM    8  C   UNL     1      23.933  47.842  49.571  1.00  0.00     0.044 A 
HETATM    9  N   UNL     1      22.788  47.335  49.038  1.00  0.00    -0.227 NA
HETATM   10  C   UNL     1      22.260  48.044  48.010  1.00  0.00     0.188 A 
HETATM   11  N   UNL     1      22.693  49.238  47.590  1.00  0.00    -0.235 NA
HETATM   12  C   UNL     1      23.808  49.715  48.160  1.00  0.00     0.121 A 
HETATM   13  C   UNL     1      24.481  49.046  49.150  1.00  0.00     0.047 A 
BRANCH  10  14
HETATM   14  S   UNL     1      20.954  47.357  47.020  1.00  0.00    -0.088 SA
BRANCH  14  15
HETATM   15  C   UNL     1      19.506  47.604  48.075  1.00  0.00     0.110 C 
BRANCH  15  16
HETATM   16  C   UNL     1      18.725  48.869  47.715  1.00  0.00     0.245 C 
BRANCH  16  17
HETATM   17  N   UNL     1      18.668  49.881  48.834  1.00  0.00    -0.070 N 
HETATM   18  H   UNL     1      17.752  49.789  49.301  1.00  0.00     0.279 HD
HETATM   19  C   UNL     1      18.779  51.311  48.315  1.00  0.00     0.235 C 
HETATM   20  C   UNL     1      20.218  51.681  48.598  1.00  0.00     0.029 C 
HETATM   21  C   UNL     1      20.437  51.080  49.970  1.00  0.00     0.029 C 
HETATM   22  C   UNL     1      19.758  49.724  49.890  1.00  0.00     0.235 C 
ENDBRANCH  16  17
ENDBRANCH  15  16
ENDBRANCH  14  15
ENDBRANCH  10  14
ENDBRANCH   4   8
BRANCH   1  23
HETATM   23  C   UNL     1      24.888  43.393  49.277  1.00  0.00     0.280 C 
BRANCH  23  24
HETATM   24  C   UNL     1      25.944  42.519  49.881  1.00  0.00     0.010 A 
HETATM   25  S   UNL     1      26.968  41.562  48.887  1.00  0.00    -0.075 SA
HETATM   26  C   UNL     1      27.840  40.992  50.225  1.00  0.00     0.076 A 
HETATM   27  C   UNL     1      27.312  41.419  51.417  1.00  0.00     0.038 A 
HETATM   28  C   UNL     1      26.201  42.295  51.219  1.00  0.00     0.019 A 
BRANCH  26  29
HETATM   29  N   UNL     1      28.908  40.186  49.916  1.00  0.00    -0.322 N 
HETATM   30  C   UNL     1      28.768  38.837  49.646  1.00  0.00     0.218 C 
HETATM   31  C   UNL     1      30.063  38.185  49.239  1.00  0.00     0.117 C 
HETATM   32  O   UNL     1      27.732  38.192  49.793  1.00  0.00    -0.274 OA
HETATM   33  H   UNL     1      29.837  40.591  49.962  1.00  0.00     0.169 HD
ENDBRANCH  26  29
ENDBRANCH  23  24
ENDBRANCH   1  23
TORSDOF 8
ENDMDL
MODEL 7
REMARK VINA RESULT:      -7.9      3.886     10.587
REMARK  8 active torsions:
REMARK  status: ('A' for Active; 'I' for Inactive)
REMARK       I    between atoms: C_2  and  N_3 
REMARK    1  A    between atoms: N_3  and  C_4 
REMARK    2  A    between atoms: C_6  and  C_7 
REMARK    3  A    between atoms: C_7  and  N_8 
REMARK    4  A    between atoms: C_11  and  C_12 
REMARK    5  A    between atoms: C_14  and  S_15 
REMARK    6  A    between atoms: S_15  and  C_16 
REMARK    7  A    between atoms: C_16  and  C_17 
REMARK    8  A    between atoms: C_17  and  N_18 
ROOT
HETATM    1  N   UNL     1      21.622  48.695  48.970  1.00  0.00    -0.066 N 
HETATM    2  H   UNL     1      22.305  48.298  49.629  1.00  0.00     0.280 HD
HETATM    3  C   UNL     1      22.390  48.996  47.700  1.00  0.00     0.246 C 
HETATM    4  C   UNL     1      23.528  49.995  47.934  1.00  0.00     0.064 C 
HETATM    5  C   UNL     1      23.058  51.232  48.710  1.00  0.00     0.014 C 
HETATM    6  C   UNL     1      22.222  50.896  49.940  1.00  0.00     0.028 C 
HETATM    7  C   UNL     1      21.077  49.953  49.607  1.00  0.00     0.235 C 
ENDROOT
BRANCH   4   8
HETATM    8  C   UNL     1      24.756  49.343  48.559  1.00  0.00     0.044 A 
HETATM    9  N   UNL     1      24.586  48.338  49.462  1.00  0.00    -0.227 NA
HETATM   10  C   UNL     1      25.717  47.911  50.076  1.00  0.00     0.188 A 
HETATM   11  N   UNL     1      26.960  48.298  49.767  1.00  0.00    -0.235 NA
HETATM   12  C   UNL     1      27.084  49.269  48.852  1.00  0.00     0.121 A 
HETATM   13  C   UNL     1      26.007  49.842  48.226  1.00  0.00     0.047 A 
BRANCH  10  14
HETATM   14  S   UNL     1      25.623  46.832  51.485  1.00  0.00    -0.088 SA
BRANCH  14  15
HETATM   15  C   UNL     1      26.479  45.354  50.890  1.00  0.00     0.110 C 
BRANCH  15  16
HETATM   16  C   UNL     1      26.745  44.340  52.003  1.00  0.00     0.245 C 
BRANCH  16  17
HETATM   17  N   UNL     1      27.893  43.405  51.707  1.00  0.00    -0.070 N 
HETATM   18  H   UNL     1      28.206  43.581  50.738  1.00  0.00     0.279 HD
HETATM   19  C   UNL     1      27.475  41.941  51.796  1.00  0.00     0.235 C 
HETATM   20  C   UNL     1      27.998  41.504  53.145  1.00  0.00     0.029 C 
HETATM   21  C   UNL     1      29.354  42.176  53.194  1.00  0.00     0.029 C 
HETATM   22  C   UNL     1      29.097  43.563  52.631  1.00  0.00     0.235 C 
ENDBRANCH  16  17
ENDBRANCH  15  16
ENDBRANCH  14  15
ENDBRANCH  10  14
ENDBRANCH   4   8
BRANCH   1  23
HETATM   23  C   UNL     1      20.518  47.669  48.747  1.00  0.00     0.280 C 
BRANCH  23  24
HETATM   24  C   UNL     1      19.177  48.294  48.515  1.00  0.00     0.010 A 
HETATM   25  S   UNL     1      18.690  48.771  46.938  1.00  0.00    -0.075 SA
HETATM   26  C   UNL     1      17.165  49.266  47.489  1.00  0.00     0.076 A 
HETATM   27  C   UNL     1      17.047  49.182  48.854  1.00  0.00     0.038 A 
HETATM   28  C   UNL     1      18.221  48.630  49.453  1.00  0.00     0.019 A 
BRANCH  26  29
HETATM   29  N   UNL     1      16.305  49.688  46.505  1.00  0.00    -0.322 N 
HETATM   30  C   UNL     1      15.034  49.164  46.354  1.00  0.00     0.218 C 
HETATM   31  C   UNL     1      14.244  49.850  45.271  1.00  0.00     0.117 C 
HETATM   32  O   UNL     1      14.596  48.189  46.961  1.00  0.00    -0.274 OA
HETATM   33  H   UNL     1      16.652  50.357  45.827  1.00  0.00     0.169 HD
ENDBRANCH  26  29
ENDBRANCH  23  24
ENDBRANCH   1  23
TORSDOF 8
ENDMDL
MODEL 8
REMARK VINA RESULT:      -7.8      2.634      4.242
REMARK  8 active torsions:
REMARK  status: ('A' for Active; 'I' for Inactive)
REMARK       I    between atoms: C_2  and  N_3 
REMARK    1  A    between atoms: N_3  and  C_4 
REMARK    2  A    between atoms: C_6  and  C_7 
REMARK    3  A    between atoms: C_7  and  N_8 
REMARK    4  A    between atoms: C_11  and  C_12 
REMARK    5  A    between atoms: C_14  and  S_15 
REMARK    6  A    between atoms: S_15  and  C_16 
REMARK    7  A    between atoms: C_16  and  C_17 
REMARK    8  A    between atoms: C_17  and  N_18 
ROOT
HETATM    1  N   UNL     1      26.405  43.540  51.142  1.00  0.00    -0.066 N 
HETATM    2  H   UNL     1      25.999  43.147  50.282  1.00  0.00     0.280 HD
HETATM    3  C   UNL     1      25.275  44.261  51.847  1.00  0.00     0.246 C 
HETATM    4  C   UNL     1      24.682  45.385  50.992  1.00  0.00     0.064 C 
HETATM    5  C   UNL     1      25.767  46.301  50.411  1.00  0.00     0.014 C 
HETATM    6  C   UNL     1      26.928  45.542  49.777  1.00  0.00     0.028 C 
HETATM    7  C   UNL     1      27.499  44.491  50.717  1.00  0.00     0.235 C 
ENDROOT
BRANCH   4   8
HETATM    8  C   UNL     1      23.726  44.864  49.925  1.00  0.00     0.044 A 
HETATM    9  N   UNL     1      23.262  45.720  48.974  1.00  0.00    -0.227 NA
HETATM   10  C   UNL     1      22.309  45.215  48.152  1.00  0.00     0.188 A 
HETATM   11  N   UNL     1      21.909  43.939  48.121  1.00  0.00    -0.235 NA
HETATM   12  C   UNL     1      22.411  43.122  49.057  1.00  0.00     0.121 A 
HETATM   13  C   UNL     1      23.317  43.540  49.999  1.00  0.00     0.047 A 
BRANCH  10  14
HETATM   14  S   UNL     1      21.394  46.288  47.070  1.00  0.00    -0.088 SA
BRANCH  14  15
HETATM   15  C   UNL     1      21.320  47.821  48.026  1.00  0.00     0.110 C 
BRANCH  15  16
HETATM   16  C   UNL     1      20.140  47.852  48.998  1.00  0.00     0.245 C 
BRANCH  16  17
HETATM   17  N   UNL     1      20.254  48.927  50.052  1.00  0.00    -0.070 N 
HETATM   18  H   UNL     1      20.841  48.561  50.819  1.00  0.00     0.279 HD
HETATM   19  C   UNL     1      18.896  49.291  50.645  1.00  0.00     0.235 C 
HETATM   20  C   UNL     1      18.538  50.582  49.945  1.00  0.00     0.029 C 
HETATM   21  C   UNL     1      19.864  51.312  49.924  1.00  0.00     0.029 C 
HETATM   22  C   UNL     1      20.871  50.234  49.564  1.00  0.00     0.235 C 
ENDBRANCH  16  17
ENDBRANCH  15  16
ENDBRANCH  14  15
ENDBRANCH  10  14
ENDBRANCH   4   8
BRANCH   1  23
HETATM   23  C   UNL     1      26.965  42.395  51.975  1.00  0.00     0.280 C 
BRANCH  23  24
HETATM   24  C   UNL     1      28.122  42.806  52.832  1.00  0.00     0.010 A 
HETATM   25  S   UNL     1      27.870  43.669  54.296  1.00  0.00    -0.075 SA
HETATM   26  C   UNL     1      29.528  43.674  54.654  1.00  0.00     0.076 A 
HETATM   27  C   UNL     1      30.285  43.135  53.643  1.00  0.00     0.038 A 
HETATM   28  C   UNL     1      29.470  42.643  52.578  1.00  0.00     0.019 A 
BRANCH  26  29
HETATM   29  N   UNL     1      29.854  44.226  55.867  1.00  0.00    -0.322 N 
HETATM   30  C   UNL     1      29.684  45.571  56.142  1.00  0.00     0.218 C 
HETATM   31  C   UNL     1      30.020  45.924  57.567  1.00  0.00     0.117 C 
HETATM   32  O   UNL     1      29.374  46.426  55.316  1.00  0.00    -0.274 OA
HETATM   33  H   UNL     1      30.303  43.631  56.554  1.00  0.00     0.169 HD
ENDBRANCH  26  29
ENDBRANCH  23  24
ENDBRANCH   1  23
TORSDOF 8
ENDMDL
MODEL 9
REMARK VINA RESULT:      -7.8      3.915      6.867
REMARK  8 active torsions:
REMARK  status: ('A' for Active; 'I' for Inactive)
REMARK       I    between atoms: C_2  and  N_3 
REMARK    1  A    between atoms: N_3  and  C_4 
REMARK    2  A    between atoms: C_6  and  C_7 
REMARK    3  A    between atoms: C_7  and  N_8 
REMARK    4  A    between atoms: C_11  and  C_12 
REMARK    5  A    between atoms: C_14  and  S_15 
REMARK    6  A    between atoms: S_15  and  C_16 
REMARK    7  A    between atoms: C_16  and  C_17 
REMARK    8  A    between atoms: C_17  and  N_18 
ROOT
HETATM    1  N   UNL     1      26.038  46.253  50.289  1.00  0.00    -0.066 N 
HETATM    2  H   UNL     1      25.083  46.237  49.906  1.00  0.00     0.280 HD
HETATM    3  C   UNL     1      26.707  44.986  49.799  1.00  0.00     0.246 C 
HETATM    4  C   UNL     1      25.979  43.725  50.274  1.00  0.00     0.064 C 
HETATM    5  C   UNL     1      25.690  43.759  51.780  1.00  0.00     0.014 C 
HETATM    6  C   UNL     1      25.088  45.077  52.253  1.00  0.00     0.028 C 
HETATM    7  C   UNL     1      25.908  46.273  51.794  1.00  0.00     0.235 C 
ENDROOT
BRANCH   4   8
HETATM    8  C   UNL     1      24.734  43.424  49.447  1.00  0.00     0.044 A 
HETATM    9  N   UNL     1      24.172  44.420  48.708  1.00  0.00    -0.227 NA
HETATM   10  C   UNL     1      22.992  44.111  48.117  1.00  0.00     0.188 A 
HETATM   11  N   UNL     1      22.432  42.896  48.094  1.00  0.00    -0.235 NA
HETATM   12  C   UNL     1      23.033  41.936  48.811  1.00  0.00     0.121 A 
HETATM   13  C   UNL     1      24.185  42.152  49.523  1.00  0.00     0.047 A 
BRANCH  10  14
HETATM   14  S   UNL     1      21.993  45.383  47.381  1.00  0.00    -0.088 SA
BRANCH  14  15
HETATM   15  C   UNL     1      20.634  45.533  48.565  1.00  0.00     0.110 C 
BRANCH  15  16
HETATM   16  C   UNL     1      20.082  46.956  48.651  1.00  0.00     0.245 C 
BRANCH  16  17
HETATM   17  N   UNL     1      18.593  47.013  48.889  1.00  0.00    -0.070 N 
HETATM   18  H   UNL     1      18.322  46.172  49.424  1.00  0.00     0.279 HD
HETATM   19  C   UNL     1      17.805  47.000  47.582  1.00  0.00     0.235 C 
HETATM   20  C   UNL     1      17.420  48.448  47.385  1.00  0.00     0.029 C 
HETATM   21  C   UNL     1      17.047  48.873  48.789  1.00  0.00     0.029 C 
HETATM   22  C   UNL     1      18.117  48.240  49.661  1.00  0.00     0.235 C 
ENDBRANCH  16  17
ENDBRANCH  15  16
ENDBRANCH  14  15
ENDBRANCH  10  14
ENDBRANCH   4   8
BRANCH   1  23
HETATM   23  C   UNL     1      26.737  47.507  49.781  1.00  0.00     0.280 C 
BRANCH  23  24
HETATM   24  C   UNL     1      25.793  48.496  49.168  1.00  0.00     0.010 A 
HETATM   25  S   UNL     1      24.093  48.301  49.323  1.00  0.00    -0.075 SA
HETATM   26  C   UNL     1      23.787  49.747  48.492  1.00  0.00     0.076 A 
HETATM   27  C   UNL     1      24.932  50.324  48.003  1.00  0.00     0.038 A 
HETATM   28  C   UNL     1      26.097  49.591  48.383  1.00  0.00     0.019 A 
BRANCH  26  29
HETATM   29  N   UNL     1      22.462  50.101  48.418  1.00  0.00    -0.322 N 
HETATM   30  C   UNL     1      21.824  50.805  49.422  1.00  0.00     0.218 C 
HETATM   31  C   UNL     1      20.402  51.161  49.075  1.00  0.00     0.117 C 
HETATM   32  O   UNL     1      22.306  51.056  50.525  1.00  0.00    -0.274 OA
HETATM   33  H   UNL     1      21.925  49.765  47.626  1.00  0.00     0.169 HD
ENDBRANCH  26  29
ENDBRANCH  23  24
ENDBRANCH   1  23
TORSDOF 8
ENDMDL
MODEL 10
REMARK VINA RESULT:      -7.7     12.705     14.227
REMARK  8 active torsions:
REMARK  status: ('A' for Active; 'I' for Inactive)
REMARK       I    between atoms: C_2  and  N_3 
REMARK    1  A    between atoms: N_3  and  C_4 
REMARK    2  A    between atoms: C_6  and  C_7 
REMARK    3  A    between atoms: C_7  and  N_8 
REMARK    4  A    between atoms: C_11  and  C_12 
REMARK    5  A    between atoms: C_14  and  S_15 
REMARK    6  A    between atoms: S_15  and  C_16 
REMARK    7  A    between atoms: C_16  and  C_17 
REMARK    8  A    between atoms: C_17  and  N_18 
ROOT
HETATM    1  N   UNL     1      33.986  51.279  41.603  1.00  0.00    -0.066 N 
HETATM    2  H   UNL     1      33.317  51.539  40.865  1.00  0.00     0.280 HD
HETATM    3  C   UNL     1      34.153  49.777  41.507  1.00  0.00     0.246 C 
HETATM    4  C   UNL     1      32.831  49.032  41.720  1.00  0.00     0.064 C 
HETATM    5  C   UNL     1      32.090  49.519  42.971  1.00  0.00     0.014 C 
HETATM    6  C   UNL     1      32.007  51.038  43.076  1.00  0.00     0.028 C 
HETATM    7  C   UNL     1      33.371  51.693  42.920  1.00  0.00     0.235 C 
ENDROOT
BRANCH   4   8
HETATM    8  C   UNL     1      31.949  49.045  40.476  1.00  0.00     0.044 A 
HETATM    9  N   UNL     1      31.910  50.164  39.702  1.00  0.00    -0.227 NA
HETATM   10  C   UNL     1      30.997  50.146  38.699  1.00  0.00     0.188 A 
HETATM   11  N   UNL     1      30.257  49.090  38.344  1.00  0.00    -0.235 NA
HETATM   12  C   UNL     1      30.346  47.998  39.116  1.00  0.00     0.121 A 
HETATM   13  C   UNL     1      31.170  47.928  40.211  1.00  0.00     0.047 A 
BRANCH  10  14
HETATM   14  S   UNL     1      30.615  51.633  37.804  1.00  0.00    -0.088 SA
BRANCH  14  15
HETATM   15  C   UNL     1      29.286  52.347  38.799  1.00  0.00     0.110 C 
BRANCH  15  16
HETATM   16  C   UNL     1      27.941  51.656  38.568  1.00  0.00     0.245 C 
BRANCH  16  17
HETATM   17  N   UNL     1      27.242  51.253  39.844  1.00  0.00    -0.070 N 
HETATM   18  H   UNL     1      26.321  51.719  39.864  1.00  0.00     0.279 HD
HETATM   19  C   UNL     1      28.012  51.702  41.082  1.00  0.00     0.235 C 
HETATM   20  C   UNL     1      28.709  50.442  41.543  1.00  0.00     0.029 C 
HETATM   21  C   UNL     1      27.637  49.392  41.341  1.00  0.00     0.029 C 
HETATM   22  C   UNL     1      27.019  49.752  40.000  1.00  0.00     0.235 C 
ENDBRANCH  16  17
ENDBRANCH  15  16
ENDBRANCH  14  15
ENDBRANCH  10  14
ENDBRANCH   4   8
BRANCH   1  23
HETATM   23  C   UNL     1      35.292  52.021  41.349  1.00  0.00     0.280 C 
BRANCH  23  24
HETATM   24  C   UNL     1      36.308  51.802  42.427  1.00  0.00     0.010 A 
HETATM   25  S   UNL     1      37.585  50.672  42.215  1.00  0.00    -0.075 SA
HETATM   26  C   UNL     1      38.261  51.057  43.722  1.00  0.00     0.076 A 
HETATM   27  C   UNL     1      37.489  51.941  44.434  1.00  0.00     0.038 A 
HETATM   28  C   UNL     1      36.346  52.364  43.688  1.00  0.00     0.019 A 
BRANCH  26  29
HETATM   29  N   UNL     1      39.444  50.420  44.003  1.00  0.00    -0.322 N 
HETATM   30  C   UNL     1      39.500  49.097  44.403  1.00  0.00     0.218 C 
HETATM   31  C   UNL     1      40.910  48.591  44.559  1.00  0.00     0.117 C 
HETATM   32  O   UNL     1      38.525  48.405  44.691  1.00  0.00    -0.274 OA
HETATM   33  H   UNL     1      40.296  50.970  43.983  1.00  0.00     0.169 HD
ENDBRANCH  26  29
ENDBRANCH  23  24
ENDBRANCH   1  23
TORSDOF 8
ENDMDL
