MODEL 1
REMARK VINA RESULT:      -8.8      0.000      0.000
REMARK  6 active torsions:
REMARK  status: ('A' for Active; 'I' for Inactive)
REMARK    1  A    between atoms: C_4  and  C_5 
REMARK    2  A    between atoms: C_5  and  N_6 
REMARK    3  A    between atoms: C_5  and  C_10 
REMARK    4  A    between atoms: C_10  and  N_11 
REMARK       I    between atoms: N_11  and  C_12 
REMARK       I    between atoms: C_12  and  N_13 
REMARK    5  A    between atoms: N_13  and  C_14 
REMARK    6  A    between atoms: C_17  and  N_18 
ROOT
HETATM    1  N   UNL     1      24.350  45.985  51.095  1.00  0.00    -0.340 N 
HETATM    2  C   UNL     1      25.619  45.618  51.495  1.00  0.00     0.320 C 
HETATM    3  N   UNL     1      25.685  45.466  52.856  1.00  0.00    -0.309 N 
HETATM    4  O   UNL     1      26.510  45.455  50.671  1.00  0.00    -0.247 OA
HETATM    5  H   UNL     1      23.818  46.504  51.783  1.00  0.00     0.164 HD
HETATM    6  H   UNL     1      24.800  45.408  53.340  1.00  0.00     0.170 HD
ENDROOT
BRANCH   1   7
HETATM    7  C   UNL     1      24.113  46.315  49.695  1.00  0.00     0.164 C 
BRANCH   7   8
HETATM    8  C   UNL     1      23.435  47.703  49.450  1.00  0.00     0.261 C 
BRANCH   8   9
HETATM    9  C   UNL     1      24.470  48.656  48.932  1.00  0.00     0.085 A 
HETATM   10  O   UNL     1      25.757  48.414  49.323  1.00  0.00    -0.318 OA
HETATM   11  C   UNL     1      26.528  49.393  48.773  1.00  0.00     0.049 A 
HETATM   12  C   UNL     1      27.971  49.362  49.093  1.00  0.00     0.076 C 
HETATM   13  C   UNL     1      25.751  50.234  48.004  1.00  0.00     0.035 A 
HETATM   14  C   UNL     1      24.422  49.759  48.107  1.00  0.00     0.037 A 
ENDBRANCH   8   9
BRANCH   8  15
HETATM   15  N   UNL     1      22.266  47.584  48.444  1.00  0.00    -0.067 N 
HETATM   16  H   UNL     1      22.573  48.104  47.611  1.00  0.00     0.280 HD
HETATM   17  C   UNL     1      21.938  46.173  48.051  1.00  0.00     0.270 C 
HETATM   18  C   UNL     1      21.026  48.288  48.943  1.00  0.00     0.270 C 
ENDBRANCH   8  15
ENDBRANCH   7   8
ENDBRANCH   1   7
BRANCH   3  19
HETATM   19  C   UNL     1      26.834  45.278  53.648  1.00  0.00     0.036 A 
HETATM   20  C   UNL     1      27.497  46.305  54.317  1.00  0.00     0.032 A 
HETATM   21  C   UNL     1      28.603  46.030  55.138  1.00  0.00     0.032 A 
HETATM   22  C   UNL     1      29.068  44.721  55.299  1.00  0.00     0.040 A 
HETATM   23  C   UNL     1      28.400  43.691  54.621  1.00  0.00     0.032 A 
HETATM   24  C   UNL     1      27.298  43.969  53.803  1.00  0.00     0.032 A 
BRANCH  22  25
HETATM   25  N   UNL     1      30.163  44.409  56.165  1.00  0.00    -0.309 N 
HETATM   26  C   UNL     1      30.486  44.916  57.425  1.00  0.00     0.106 A 
HETATM   27  C   UNL     1      29.837  46.067  58.103  1.00  0.00     0.091 C 
HETATM   28  N   UNL     1      31.538  44.300  57.934  1.00  0.00    -0.246 NA
HETATM   29  C   UNL     1      31.955  43.415  56.990  1.00  0.00     0.136 A 
HETATM   30  C   UNL     1      31.148  43.479  55.884  1.00  0.00     0.118 A 
ENDBRANCH  22  25
ENDBRANCH   3  19
TORSDOF 6
ENDMDL
MODEL 2
REMARK VINA RESULT:      -8.4      2.990      5.088
REMARK  6 active torsions:
REMARK  status: ('A' for Active; 'I' for Inactive)
REMARK    1  A    between atoms: C_4  and  C_5 
REMARK    2  A    between atoms: C_5  and  N_6 
REMARK    3  A    between atoms: C_5  and  C_10 
REMARK    4  A    between atoms: C_10  and  N_11 
REMARK       I    between atoms: N_11  and  C_12 
REMARK       I    between atoms: C_12  and  N_13 
REMARK    5  A    between atoms: N_13  and  C_14 
REMARK    6  A    between atoms: C_17  and  N_18 
ROOT
HETATM    1  N   UNL     1      22.280  47.935  49.247  1.00  0.00    -0.340 N 
HETATM    2  C   UNL     1      23.555  47.684  49.714  1.00  0.00     0.320 C 
HETATM    3  N   UNL     1      23.779  46.337  49.840  1.00  0.00    -0.309 N 
HETATM    4  O   UNL     1      24.327  48.605  49.946  1.00  0.00    -0.247 OA
HETATM    5  H   UNL     1      21.591  47.231  49.485  1.00  0.00     0.164 HD
HETATM    6  H   UNL     1      23.117  45.730  49.379  1.00  0.00     0.170 HD
ENDROOT
BRANCH   1   7
HETATM    7  C   UNL     1      21.811  49.313  49.165  1.00  0.00     0.164 C 
BRANCH   7   8
HETATM    8  C   UNL     1      20.560  49.638  50.047  1.00  0.00     0.261 C 
BRANCH   8   9
HETATM    9  C   UNL     1      19.850  50.817  49.453  1.00  0.00     0.085 A 
HETATM   10  O   UNL     1      18.720  51.226  50.105  1.00  0.00    -0.318 OA
HETATM   11  C   UNL     1      18.218  52.280  49.401  1.00  0.00     0.049 A 
HETATM   12  C   UNL     1      16.959  52.873  49.899  1.00  0.00     0.076 C 
HETATM   13  C   UNL     1      19.037  52.569  48.330  1.00  0.00     0.035 A 
HETATM   14  C   UNL     1      20.090  51.624  48.362  1.00  0.00     0.037 A 
ENDBRANCH   8   9
BRANCH   8  15
HETATM   15  N   UNL     1      19.605  48.425  50.132  1.00  0.00    -0.067 N 
HETATM   16  H   UNL     1      20.216  47.612  50.290  1.00  0.00     0.280 HD
HETATM   17  C   UNL     1      18.603  48.511  51.246  1.00  0.00     0.270 C 
HETATM   18  C   UNL     1      18.904  48.173  48.818  1.00  0.00     0.270 C 
ENDBRANCH   8  15
ENDBRANCH   7   8
ENDBRANCH   1   7
BRANCH   3  19
HETATM   19  C   UNL     1      24.878  45.700  50.449  1.00  0.00     0.036 A 
HETATM   20  C   UNL     1      26.100  45.479  49.818  1.00  0.00     0.032 A 
HETATM   21  C   UNL     1      27.170  44.890  50.511  1.00  0.00     0.032 A 
HETATM   22  C   UNL     1      27.033  44.508  51.849  1.00  0.00     0.040 A 
HETATM   23  C   UNL     1      25.801  44.729  52.480  1.00  0.00     0.032 A 
HETATM   24  C   UNL     1      24.736  45.316  51.785  1.00  0.00     0.032 A 
BRANCH  22  25
HETATM   25  N   UNL     1      28.121  43.949  52.591  1.00  0.00    -0.309 N 
HETATM   26  C   UNL     1      28.635  44.303  53.840  1.00  0.00     0.106 A 
HETATM   27  C   UNL     1      28.263  45.502  54.635  1.00  0.00     0.091 C 
HETATM   28  N   UNL     1      29.596  43.479  54.215  1.00  0.00    -0.246 NA
HETATM   29  C   UNL     1      29.766  42.601  53.190  1.00  0.00     0.136 A 
HETATM   30  C   UNL     1      28.894  42.882  52.170  1.00  0.00     0.118 A 
ENDBRANCH  22  25
ENDBRANCH   3  19
TORSDOF 6
ENDMDL
MODEL 3
REMARK VINA RESULT:      -8.2      1.649      2.725
REMARK  6 active torsions:
REMARK  status: ('A' for Active; 'I' for Inactive)
REMARK    1  A    between atoms: C_4  and  C_5 
REMARK    2  A    between atoms: C_5  and  N_6 
REMARK    3  A    between atoms: C_5  and  C_10 
REMARK    4  A    between atoms: C_10  and  N_11 
REMARK       I    between atoms: N_11  and  C_12 
REMARK       I    between atoms: C_12  and  N_13 
REMARK    5  A    between atoms: N_13  and  C_14 
REMARK    6  A    between atoms: C_17  and  N_18 
ROOT
HETATM    1  N   UNL     1      24.227  47.057  50.904  1.00  0.00    -0.340 N 
HETATM    2  C   UNL     1      25.471  46.731  51.407  1.00  0.00     0.320 C 
HETATM    3  N   UNL     1      25.400  46.427  52.742  1.00  0.00    -0.309 N 
HETATM    4  O   UNL     1      26.456  46.726  50.681  1.00  0.00    -0.247 OA
HETATM    5  H   UNL     1      23.584  47.455  51.577  1.00  0.00     0.164 HD
HETATM    6  H   UNL     1      24.476  46.253  53.111  1.00  0.00     0.170 HD
ENDROOT
BRANCH   1   7
HETATM    7  C   UNL     1      24.118  47.530  49.530  1.00  0.00     0.164 C 
BRANCH   7   8
HETATM    8  C   UNL     1      22.655  47.664  48.992  1.00  0.00     0.261 C 
BRANCH   8   9
HETATM    9  C   UNL     1      22.397  49.103  48.661  1.00  0.00     0.085 A 
HETATM   10  O   UNL     1      21.219  49.622  49.120  1.00  0.00    -0.318 OA
HETATM   11  C   UNL     1      21.165  50.916  48.698  1.00  0.00     0.049 A 
HETATM   12  C   UNL     1      19.948  51.679  49.045  1.00  0.00     0.076 C 
HETATM   13  C   UNL     1      22.314  51.238  48.006  1.00  0.00     0.035 A 
HETATM   14  C   UNL     1      23.109  50.067  47.981  1.00  0.00     0.037 A 
ENDBRANCH   8   9
BRANCH   8  15
HETATM   15  N   UNL     1      22.436  46.780  47.742  1.00  0.00    -0.067 N 
HETATM   16  H   UNL     1      23.119  47.117  47.051  1.00  0.00     0.280 HD
HETATM   17  C   UNL     1      22.660  45.315  47.982  1.00  0.00     0.270 C 
HETATM   18  C   UNL     1      21.074  47.006  47.130  1.00  0.00     0.270 C 
ENDBRANCH   8  15
ENDBRANCH   7   8
ENDBRANCH   1   7
BRANCH   3  19
HETATM   19  C   UNL     1      26.468  46.225  53.638  1.00  0.00     0.036 A 
HETATM   20  C   UNL     1      27.023  47.230  54.428  1.00  0.00     0.032 A 
HETATM   21  C   UNL     1      28.048  46.939  55.344  1.00  0.00     0.032 A 
HETATM   22  C   UNL     1      28.538  45.637  55.480  1.00  0.00     0.040 A 
HETATM   23  C   UNL     1      27.979  44.629  54.682  1.00  0.00     0.032 A 
HETATM   24  C   UNL     1      26.957  44.924  53.769  1.00  0.00     0.032 A 
BRANCH  22  25
HETATM   25  N   UNL     1      29.548  45.306  56.437  1.00  0.00    -0.309 N 
HETATM   26  C   UNL     1      30.571  44.357  56.375  1.00  0.00     0.106 A 
HETATM   27  C   UNL     1      30.739  43.314  55.330  1.00  0.00     0.091 C 
HETATM   28  N   UNL     1      31.352  44.422  57.438  1.00  0.00    -0.246 NA
HETATM   29  C   UNL     1      30.820  45.381  58.242  1.00  0.00     0.136 A 
HETATM   30  C   UNL     1      29.699  45.921  57.667  1.00  0.00     0.118 A 
ENDBRANCH  22  25
ENDBRANCH   3  19
TORSDOF 6
ENDMDL
MODEL 4
REMARK VINA RESULT:      -8.2      1.654      3.293
REMARK  6 active torsions:
REMARK  status: ('A' for Active; 'I' for Inactive)
REMARK    1  A    between atoms: C_4  and  C_5 
REMARK    2  A    between atoms: C_5  and  N_6 
REMARK    3  A    between atoms: C_5  and  C_10 
REMARK    4  A    between atoms: C_10  and  N_11 
REMARK       I    between atoms: N_11  and  C_12 
REMARK       I    between atoms: C_12  and  N_13 
REMARK    5  A    between atoms: N_13  and  C_14 
REMARK    6  A    between atoms: C_17  and  N_18 
ROOT
HETATM    1  N   UNL     1      24.208  47.521  50.571  1.00  0.00    -0.340 N 
HETATM    2  C   UNL     1      25.407  47.066  51.082  1.00  0.00     0.320 C 
HETATM    3  N   UNL     1      25.319  46.849  52.433  1.00  0.00    -0.309 N 
HETATM    4  O   UNL     1      26.372  46.894  50.348  1.00  0.00    -0.247 OA
HETATM    5  H   UNL     1      23.632  48.037  51.226  1.00  0.00     0.164 HD
HETATM    6  H   UNL     1      24.386  46.817  52.819  1.00  0.00     0.170 HD
ENDROOT
BRANCH   1   7
HETATM    7  C   UNL     1      24.138  47.928  49.173  1.00  0.00     0.164 C 
BRANCH   7   8
HETATM    8  C   UNL     1      22.757  47.678  48.481  1.00  0.00     0.261 C 
BRANCH   8   9
HETATM    9  C   UNL     1      22.597  46.205  48.252  1.00  0.00     0.085 A 
HETATM   10  O   UNL     1      22.810  45.403  49.337  1.00  0.00    -0.318 OA
HETATM   11  C   UNL     1      22.641  44.117  48.918  1.00  0.00     0.049 A 
HETATM   12  C   UNL     1      22.862  43.055  49.923  1.00  0.00     0.076 C 
HETATM   13  C   UNL     1      22.287  44.095  47.586  1.00  0.00     0.035 A 
HETATM   14  C   UNL     1      22.259  45.443  47.155  1.00  0.00     0.037 A 
ENDBRANCH   8   9
BRANCH   8  15
HETATM   15  N   UNL     1      21.593  48.214  49.346  1.00  0.00    -0.067 N 
HETATM   16  H   UNL     1      21.730  47.791  50.274  1.00  0.00     0.280 HD
HETATM   17  C   UNL     1      21.572  49.709  49.486  1.00  0.00     0.270 C 
HETATM   18  C   UNL     1      20.255  47.717  48.852  1.00  0.00     0.270 C 
ENDBRANCH   8  15
ENDBRANCH   7   8
ENDBRANCH   1   7
BRANCH   3  19
HETATM   19  C   UNL     1      26.367  46.562  53.329  1.00  0.00     0.036 A 
HETATM   20  C   UNL     1      27.000  47.518  54.121  1.00  0.00     0.032 A 
HETATM   21  C   UNL     1      27.997  47.145  55.038  1.00  0.00     0.032 A 
HETATM   22  C   UNL     1      28.382  45.807  55.172  1.00  0.00     0.040 A 
HETATM   23  C   UNL     1      27.744  44.849  54.371  1.00  0.00     0.032 A 
HETATM   24  C   UNL     1      26.751  45.225  53.459  1.00  0.00     0.032 A 
BRANCH  22  25
HETATM   25  N   UNL     1      29.361  45.395  56.130  1.00  0.00    -0.309 N 
HETATM   26  C   UNL     1      30.348  44.412  56.041  1.00  0.00     0.106 A 
HETATM   27  C   UNL     1      30.497  43.411  54.953  1.00  0.00     0.091 C 
HETATM   28  N   UNL     1      31.112  44.400  57.119  1.00  0.00    -0.246 NA
HETATM   29  C   UNL     1      30.602  45.342  57.957  1.00  0.00     0.136 A 
HETATM   30  C   UNL     1      29.513  45.949  57.389  1.00  0.00     0.118 A 
ENDBRANCH  22  25
ENDBRANCH   3  19
TORSDOF 6
ENDMDL
MODEL 5
REMARK VINA RESULT:      -7.9      1.366      1.886
REMARK  6 active torsions:
REMARK  status: ('A' for Active; 'I' for Inactive)
REMARK    1  A    between atoms: C_4  and  C_5 
REMARK    2  A    between atoms: C_5  and  N_6 
REMARK    3  A    between atoms: C_5  and  C_10 
REMARK    4  A    between atoms: C_10  and  N_11 
REMARK       I    between atoms: N_11  and  C_12 
REMARK       I    between atoms: C_12  and  N_13 
REMARK    5  A    between atoms: N_13  and  C_14 
REMARK    6  A    between atoms: C_17  and  N_18 
ROOT
HETATM    1  N   UNL     1      23.311  45.570  49.886  1.00  0.00    -0.340 N 
HETATM    2  C   UNL     1      24.618  45.304  50.243  1.00  0.00     0.320 C 
HETATM    3  N   UNL     1      24.687  44.758  51.499  1.00  0.00    -0.309 N 
HETATM    4  O   UNL     1      25.537  45.544  49.470  1.00  0.00    -0.247 OA
HETATM    5  H   UNL     1      22.687  45.763  50.660  1.00  0.00     0.164 HD
HETATM    6  H   UNL     1      23.818  44.416  51.884  1.00  0.00     0.170 HD
ENDROOT
BRANCH   1   7
HETATM    7  C   UNL     1      23.044  46.268  48.635  1.00  0.00     0.164 C 
BRANCH   7   8
HETATM    8  C   UNL     1      22.131  47.532  48.767  1.00  0.00     0.261 C 
BRANCH   8   9
HETATM    9  C   UNL     1      22.945  48.746  48.437  1.00  0.00     0.085 A 
HETATM   10  O   UNL     1      24.299  48.611  48.559  1.00  0.00    -0.318 OA
HETATM   11  C   UNL     1      24.848  49.817  48.242  1.00  0.00     0.049 A 
HETATM   12  C   UNL     1      26.318  49.926  48.341  1.00  0.00     0.076 C 
HETATM   13  C   UNL     1      23.858  50.709  47.884  1.00  0.00     0.035 A 
HETATM   14  C   UNL     1      22.629  50.018  48.011  1.00  0.00     0.037 A 
ENDBRANCH   8   9
BRANCH   8  15
HETATM   15  N   UNL     1      20.906  47.437  47.826  1.00  0.00    -0.067 N 
HETATM   16  H   UNL     1      20.913  48.312  47.286  1.00  0.00     0.280 HD
HETATM   17  C   UNL     1      20.951  46.274  46.878  1.00  0.00     0.270 C 
HETATM   18  C   UNL     1      19.608  47.430  48.599  1.00  0.00     0.270 C 
ENDBRANCH   8  15
ENDBRANCH   7   8
ENDBRANCH   1   7
BRANCH   3  19
HETATM   19  C   UNL     1      25.839  44.523  52.275  1.00  0.00     0.036 A 
HETATM   20  C   UNL     1      27.070  44.139  51.747  1.00  0.00     0.032 A 
HETATM   21  C   UNL     1      28.191  43.982  52.579  1.00  0.00     0.032 A 
HETATM   22  C   UNL     1      28.095  44.202  53.957  1.00  0.00     0.040 A 
HETATM   23  C   UNL     1      26.854  44.586  54.485  1.00  0.00     0.032 A 
HETATM   24  C   UNL     1      25.739  44.741  53.651  1.00  0.00     0.032 A 
BRANCH  22  25
HETATM   25  N   UNL     1      29.231  44.094  54.820  1.00  0.00    -0.309 N 
HETATM   26  C   UNL     1      29.729  44.990  55.769  1.00  0.00     0.106 A 
HETATM   27  C   UNL     1      29.274  46.388  55.981  1.00  0.00     0.091 C 
HETATM   28  N   UNL     1      30.756  44.476  56.422  1.00  0.00    -0.246 NA
HETATM   29  C   UNL     1      30.982  43.252  55.872  1.00  0.00     0.136 A 
HETATM   30  C   UNL     1      30.081  43.004  54.870  1.00  0.00     0.118 A 
ENDBRANCH  22  25
ENDBRANCH   3  19
TORSDOF 6
ENDMDL
MODEL 6
REMARK VINA RESULT:      -7.8      4.349     11.705
REMARK  6 active torsions:
REMARK  status: ('A' for Active; 'I' for Inactive)
REMARK    1  A    between atoms: C_4  and  C_5 
REMARK    2  A    between atoms: C_5  and  N_6 
REMARK    3  A    between atoms: C_5  and  C_10 
REMARK    4  A    between atoms: C_10  and  N_11 
REMARK       I    between atoms: N_11  and  C_12 
REMARK       I    between atoms: C_12  and  N_13 
REMARK    5  A    between atoms: N_13  and  C_14 
REMARK    6  A    between atoms: C_17  and  N_18 
ROOT
HETATM    1  N   UNL     1      23.068  48.428  49.867  1.00  0.00    -0.340 N 
HETATM    2  C   UNL     1      22.166  49.005  48.995  1.00  0.00     0.320 C 
HETATM    3  N   UNL     1      21.178  49.671  49.674  1.00  0.00    -0.309 N 
HETATM    4  O   UNL     1      22.314  48.899  47.785  1.00  0.00    -0.247 OA
HETATM    5  H   UNL     1      22.687  48.178  50.772  1.00  0.00     0.164 HD
HETATM    6  H   UNL     1      21.354  49.851  50.652  1.00  0.00     0.170 HD
ENDROOT
BRANCH   1   7
HETATM    7  C   UNL     1      24.121  47.571  49.337  1.00  0.00     0.164 C 
BRANCH   7   8
HETATM    8  C   UNL     1      25.554  47.870  49.889  1.00  0.00     0.261 C 
BRANCH   8   9
HETATM    9  C   UNL     1      26.176  46.580  50.330  1.00  0.00     0.085 A 
HETATM   10  O   UNL     1      26.205  46.359  51.679  1.00  0.00    -0.318 OA
HETATM   11  C   UNL     1      26.823  45.160  51.870  1.00  0.00     0.049 A 
HETATM   12  C   UNL     1      27.008  44.722  53.270  1.00  0.00     0.076 C 
HETATM   13  C   UNL     1      27.154  44.597  50.655  1.00  0.00     0.035 A 
HETATM   14  C   UNL     1      26.737  45.514  49.660  1.00  0.00     0.037 A 
ENDBRANCH   8   9
BRANCH   8  15
HETATM   15  N   UNL     1      26.436  48.549  48.815  1.00  0.00    -0.067 N 
HETATM   16  H   UNL     1      26.570  47.835  48.086  1.00  0.00     0.280 HD
HETATM   17  C   UNL     1      25.820  49.772  48.199  1.00  0.00     0.270 C 
HETATM   18  C   UNL     1      27.814  48.870  49.344  1.00  0.00     0.270 C 
ENDBRANCH   8  15
ENDBRANCH   7   8
ENDBRANCH   1   7
BRANCH   3  19
HETATM   19  C   UNL     1      19.995  50.225  49.149  1.00  0.00     0.036 A 
HETATM   20  C   UNL     1      18.853  49.485  48.849  1.00  0.00     0.032 A 
HETATM   21  C   UNL     1      17.689  50.118  48.384  1.00  0.00     0.032 A 
HETATM   22  C   UNL     1      17.649  51.505  48.207  1.00  0.00     0.040 A 
HETATM   23  C   UNL     1      18.801  52.246  48.507  1.00  0.00     0.032 A 
HETATM   24  C   UNL     1      19.960  51.610  48.970  1.00  0.00     0.032 A 
BRANCH  22  25
HETATM   25  N   UNL     1      16.462  52.179  47.779  1.00  0.00    -0.309 N 
HETATM   26  C   UNL     1      15.478  52.829  48.526  1.00  0.00     0.106 A 
HETATM   27  C   UNL     1      15.345  52.815  50.006  1.00  0.00     0.091 C 
HETATM   28  N   UNL     1      14.582  53.402  47.743  1.00  0.00    -0.246 NA
HETATM   29  C   UNL     1      14.936  53.090  46.467  1.00  0.00     0.136 A 
HETATM   30  C   UNL     1      16.069  52.319  46.460  1.00  0.00     0.118 A 
ENDBRANCH  22  25
ENDBRANCH   3  19
TORSDOF 6
ENDMDL
MODEL 7
REMARK VINA RESULT:      -7.8      4.486     11.232
REMARK  6 active torsions:
REMARK  status: ('A' for Active; 'I' for Inactive)
REMARK    1  A    between atoms: C_4  and  C_5 
REMARK    2  A    between atoms: C_5  and  N_6 
REMARK    3  A    between atoms: C_5  and  C_10 
REMARK    4  A    between atoms: C_10  and  N_11 
REMARK       I    between atoms: N_11  and  C_12 
REMARK       I    between atoms: C_12  and  N_13 
REMARK    5  A    between atoms: N_13  and  C_14 
REMARK    6  A    between atoms: C_17  and  N_18 
ROOT
HETATM    1  N   UNL     1      22.958  47.987  49.727  1.00  0.00    -0.340 N 
HETATM    2  C   UNL     1      21.907  48.639  49.113  1.00  0.00     0.320 C 
HETATM    3  N   UNL     1      21.490  49.713  49.856  1.00  0.00    -0.309 N 
HETATM    4  O   UNL     1      21.474  48.248  48.037  1.00  0.00    -0.247 OA
HETATM    5  H   UNL     1      22.978  48.063  50.736  1.00  0.00     0.164 HD
HETATM    6  H   UNL     1      22.117  50.019  50.587  1.00  0.00     0.170 HD
ENDROOT
BRANCH   1   7
HETATM    7  C   UNL     1      23.459  46.745  49.151  1.00  0.00     0.164 C 
BRANCH   7   8
HETATM    8  C   UNL     1      24.721  46.151  49.858  1.00  0.00     0.261 C 
BRANCH   8   9
HETATM    9  C   UNL     1      25.901  47.018  49.538  1.00  0.00     0.085 A 
HETATM   10  O   UNL     1      25.618  48.300  49.159  1.00  0.00    -0.318 OA
HETATM   11  C   UNL     1      26.809  48.906  48.892  1.00  0.00     0.049 A 
HETATM   12  C   UNL     1      26.753  50.306  48.420  1.00  0.00     0.076 C 
HETATM   13  C   UNL     1      27.850  48.034  49.133  1.00  0.00     0.035 A 
HETATM   14  C   UNL     1      27.264  46.814  49.549  1.00  0.00     0.037 A 
ENDBRANCH   8   9
BRANCH   8  15
HETATM   15  N   UNL     1      24.517  46.069  51.389  1.00  0.00    -0.067 N 
HETATM   16  H   UNL     1      23.560  46.410  51.552  1.00  0.00     0.280 HD
HETATM   17  C   UNL     1      24.648  44.683  51.951  1.00  0.00     0.270 C 
HETATM   18  C   UNL     1      25.431  47.019  52.126  1.00  0.00     0.270 C 
ENDBRANCH   8  15
ENDBRANCH   7   8
ENDBRANCH   1   7
BRANCH   3  19
HETATM   19  C   UNL     1      20.343  50.506  49.656  1.00  0.00     0.036 A 
HETATM   20  C   UNL     1      20.302  51.626  48.829  1.00  0.00     0.032 A 
HETATM   21  C   UNL     1      19.103  52.331  48.633  1.00  0.00     0.032 A 
HETATM   22  C   UNL     1      17.924  51.928  49.268  1.00  0.00     0.040 A 
HETATM   23  C   UNL     1      17.970  50.802  50.103  1.00  0.00     0.032 A 
HETATM   24  C   UNL     1      19.168  50.103  50.295  1.00  0.00     0.032 A 
BRANCH  22  25
HETATM   25  N   UNL     1      16.681  52.601  49.050  1.00  0.00    -0.309 N 
HETATM   26  C   UNL     1      15.771  52.491  47.996  1.00  0.00     0.106 A 
HETATM   27  C   UNL     1      15.983  51.750  46.726  1.00  0.00     0.091 C 
HETATM   28  N   UNL     1      14.694  53.225  48.212  1.00  0.00    -0.246 NA
HETATM   29  C   UNL     1      14.906  53.872  49.390  1.00  0.00     0.136 A 
HETATM   30  C   UNL     1      16.126  53.530  49.911  1.00  0.00     0.118 A 
ENDBRANCH  22  25
ENDBRANCH   3  19
TORSDOF 6
ENDMDL
MODEL 8
REMARK VINA RESULT:      -7.7      1.823      3.833
REMARK  6 active torsions:
REMARK  status: ('A' for Active; 'I' for Inactive)
REMARK    1  A    between atoms: C_4  and  C_5 
REMARK    2  A    between atoms: C_5  and  N_6 
REMARK    3  A    between atoms: C_5  and  C_10 
REMARK    4  A    between atoms: C_10  and  N_11 
REMARK       I    between atoms: N_11  and  C_12 
REMARK       I    between atoms: C_12  and  N_13 
REMARK    5  A    between atoms: N_13  and  C_14 
REMARK    6  A    between atoms: C_17  and  N_18 
ROOT
HETATM    1  N   UNL     1      23.459  47.605  49.889  1.00  0.00    -0.340 N 
HETATM    2  C   UNL     1      24.695  47.411  50.473  1.00  0.00     0.320 C 
HETATM    3  N   UNL     1      24.651  46.403  51.401  1.00  0.00    -0.309 N 
HETATM    4  O   UNL     1      25.657  48.089  50.136  1.00  0.00    -0.247 OA
HETATM    5  H   UNL     1      22.667  47.358  50.470  1.00  0.00     0.164 HD
HETATM    6  H   UNL     1      23.837  45.805  51.371  1.00  0.00     0.170 HD
ENDROOT
BRANCH   1   7
HETATM    7  C   UNL     1      23.275  48.717  48.965  1.00  0.00     0.164 C 
BRANCH   7   8
HETATM    8  C   UNL     1      21.966  48.656  48.110  1.00  0.00     0.261 C 
BRANCH   8   9
HETATM    9  C   UNL     1      21.378  47.283  48.234  1.00  0.00     0.085 A 
HETATM   10  O   UNL     1      22.163  46.252  47.798  1.00  0.00    -0.318 OA
HETATM   11  C   UNL     1      21.446  45.107  47.971  1.00  0.00     0.049 A 
HETATM   12  C   UNL     1      22.084  43.849  47.529  1.00  0.00     0.076 C 
HETATM   13  C   UNL     1      20.227  45.394  48.549  1.00  0.00     0.035 A 
HETATM   14  C   UNL     1      20.182  46.798  48.717  1.00  0.00     0.037 A 
ENDBRANCH   8   9
BRANCH   8  15
HETATM   15  N   UNL     1      20.945  49.719  48.575  1.00  0.00    -0.067 N 
HETATM   16  H   UNL     1      20.182  49.187  49.015  1.00  0.00     0.280 HD
HETATM   17  C   UNL     1      21.494  50.704  49.567  1.00  0.00     0.270 C 
HETATM   18  C   UNL     1      20.326  50.448  47.405  1.00  0.00     0.270 C 
ENDBRANCH   8  15
ENDBRANCH   7   8
ENDBRANCH   1   7
BRANCH   3  19
HETATM   19  C   UNL     1      25.650  46.037  52.324  1.00  0.00     0.036 A 
HETATM   20  C   UNL     1      26.471  44.921  52.183  1.00  0.00     0.032 A 
HETATM   21  C   UNL     1      27.487  44.654  53.116  1.00  0.00     0.032 A 
HETATM   22  C   UNL     1      27.694  45.500  54.210  1.00  0.00     0.040 A 
HETATM   23  C   UNL     1      26.863  46.621  54.351  1.00  0.00     0.032 A 
HETATM   24  C   UNL     1      25.851  46.882  53.418  1.00  0.00     0.032 A 
BRANCH  22  25
HETATM   25  N   UNL     1      28.750  45.277  55.149  1.00  0.00    -0.309 N 
HETATM   26  C   UNL     1      29.721  44.274  55.189  1.00  0.00     0.106 A 
HETATM   27  C   UNL     1      29.770  43.063  54.330  1.00  0.00     0.091 C 
HETATM   28  N   UNL     1      30.575  44.472  56.178  1.00  0.00    -0.246 NA
HETATM   29  C   UNL     1      30.144  45.582  56.836  1.00  0.00     0.136 A 
HETATM   30  C   UNL     1      29.013  46.080  56.244  1.00  0.00     0.118 A 
ENDBRANCH  22  25
ENDBRANCH   3  19
TORSDOF 6
ENDMDL
MODEL 9
REMARK VINA RESULT:      -7.7      3.150      5.212
REMARK  6 active torsions:
REMARK  status: ('A' for Active; 'I' for Inactive)
REMARK    1  A    between atoms: C_4  and  C_5 
REMARK    2  A    between atoms: C_5  and  N_6 
REMARK    3  A    between atoms: C_5  and  C_10 
REMARK    4  A    between atoms: C_10  and  N_11 
REMARK       I    between atoms: N_11  and  C_12 
REMARK       I    between atoms: C_12  and  N_13 
REMARK    5  A    between atoms: N_13  and  C_14 
REMARK    6  A    between atoms: C_17  and  N_18 
ROOT
HETATM    1  N   UNL     1      22.823  48.366  49.427  1.00  0.00    -0.340 N 
HETATM    2  C   UNL     1      23.342  47.088  49.492  1.00  0.00     0.320 C 
HETATM    3  N   UNL     1      24.288  46.988  50.479  1.00  0.00    -0.309 N 
HETATM    4  O   UNL     1      22.941  46.213  48.735  1.00  0.00    -0.247 OA
HETATM    5  H   UNL     1      23.451  49.099  49.734  1.00  0.00     0.164 HD
HETATM    6  H   UNL     1      24.313  47.741  51.151  1.00  0.00     0.170 HD
ENDROOT
BRANCH   1   7
HETATM    7  C   UNL     1      21.892  48.702  48.358  1.00  0.00     0.164 C 
BRANCH   7   8
HETATM    8  C   UNL     1      20.383  48.709  48.774  1.00  0.00     0.261 C 
BRANCH   8   9
HETATM    9  C   UNL     1      19.896  50.126  48.783  1.00  0.00     0.085 A 
HETATM   10  O   UNL     1      18.693  50.343  49.395  1.00  0.00    -0.318 OA
HETATM   11  C   UNL     1      18.422  51.673  49.274  1.00  0.00     0.049 A 
HETATM   12  C   UNL     1      17.136  52.143  49.833  1.00  0.00     0.076 C 
HETATM   13  C   UNL     1      19.457  52.312  48.625  1.00  0.00     0.035 A 
HETATM   14  C   UNL     1      20.409  51.314  48.307  1.00  0.00     0.037 A 
ENDBRANCH   8   9
BRANCH   8  15
HETATM   15  N   UNL     1      19.532  47.857  47.804  1.00  0.00    -0.067 N 
HETATM   16  H   UNL     1      18.861  48.515  47.385  1.00  0.00     0.280 HD
HETATM   17  C   UNL     1      20.324  47.199  46.711  1.00  0.00     0.270 C 
HETATM   18  C   UNL     1      18.707  46.829  48.541  1.00  0.00     0.270 C 
ENDBRANCH   8  15
ENDBRANCH   7   8
ENDBRANCH   1   7
BRANCH   3  19
HETATM   19  C   UNL     1      25.161  45.911  50.729  1.00  0.00     0.036 A 
HETATM   20  C   UNL     1      26.346  45.689  50.031  1.00  0.00     0.032 A 
HETATM   21  C   UNL     1      27.197  44.627  50.379  1.00  0.00     0.032 A 
HETATM   22  C   UNL     1      26.871  43.764  51.431  1.00  0.00     0.040 A 
HETATM   23  C   UNL     1      25.677  43.990  52.130  1.00  0.00     0.032 A 
HETATM   24  C   UNL     1      24.832  45.050  51.778  1.00  0.00     0.032 A 
BRANCH  22  25
HETATM   25  N   UNL     1      27.742  42.704  51.835  1.00  0.00    -0.309 N 
HETATM   26  C   UNL     1      28.610  42.618  52.925  1.00  0.00     0.106 A 
HETATM   27  C   UNL     1      28.971  43.723  53.850  1.00  0.00     0.091 C 
HETATM   28  N   UNL     1      29.177  41.427  52.995  1.00  0.00    -0.246 NA
HETATM   29  C   UNL     1      28.730  40.729  51.917  1.00  0.00     0.136 A 
HETATM   30  C   UNL     1      27.870  41.495  51.174  1.00  0.00     0.118 A 
ENDBRANCH  22  25
ENDBRANCH   3  19
TORSDOF 6
ENDMDL
MODEL 10
REMARK VINA RESULT:      -7.5      2.540      9.878
REMARK  6 active torsions:
REMARK  status: ('A' for Active; 'I' for Inactive)
REMARK    1  A    between atoms: C_4  and  C_5 
REMARK    2  A    between atoms: C_5  and  N_6 
REMARK    3  A    between atoms: C_5  and  C_10 
REMARK    4  A    between atoms: C_10  and  N_11 
REMARK       I    between atoms: N_11  and  C_12 
REMARK       I    between atoms: C_12  and  N_13 
REMARK    5  A    between atoms: N_13  and  C_14 
REMARK    6  A    between atoms: C_17  and  N_18 
ROOT
HETATM    1  N   UNL     1      26.517  44.485  51.137  1.00  0.00    -0.340 N 
HETATM    2  C   UNL     1      25.236  44.976  50.982  1.00  0.00     0.320 C 
HETATM    3  N   UNL     1      25.125  45.718  49.835  1.00  0.00    -0.309 N 
HETATM    4  O   UNL     1      24.367  44.720  51.806  1.00  0.00    -0.247 OA
HETATM    5  H   UNL     1      27.244  45.049  50.713  1.00  0.00     0.164 HD
HETATM    6  H   UNL     1      25.875  45.620  49.167  1.00  0.00     0.170 HD
ENDROOT
BRANCH   1   7
HETATM    7  C   UNL     1      26.864  43.775  52.360  1.00  0.00     0.164 C 
BRANCH   7   8
HETATM    8  C   UNL     1      28.385  43.448  52.526  1.00  0.00     0.261 C 
BRANCH   8   9
HETATM    9  C   UNL     1      28.869  44.057  53.807  1.00  0.00     0.085 A 
HETATM   10  O   UNL     1      29.989  43.494  54.353  1.00  0.00    -0.318 OA
HETATM   11  C   UNL     1      30.245  44.167  55.510  1.00  0.00     0.049 A 
HETATM   12  C   UNL     1      31.402  43.704  56.306  1.00  0.00     0.076 C 
HETATM   13  C   UNL     1      29.322  45.175  55.687  1.00  0.00     0.035 A 
HETATM   14  C   UNL     1      28.432  45.104  54.589  1.00  0.00     0.037 A 
ENDBRANCH   8   9
BRANCH   8  15
HETATM   15  N   UNL     1      28.632  41.921  52.532  1.00  0.00    -0.067 N 
HETATM   16  H   UNL     1      29.646  41.813  52.663  1.00  0.00     0.280 HD
HETATM   17  C   UNL     1      27.913  41.189  53.627  1.00  0.00     0.270 C 
HETATM   18  C   UNL     1      28.314  41.299  51.193  1.00  0.00     0.270 C 
ENDBRANCH   8  15
ENDBRANCH   7   8
ENDBRANCH   1   7
BRANCH   3  19
HETATM   19  C   UNL     1      24.041  46.523  49.430  1.00  0.00     0.036 A 
HETATM   20  C   UNL     1      22.907  46.036  48.783  1.00  0.00     0.032 A 
HETATM   21  C   UNL     1      21.840  46.891  48.465  1.00  0.00     0.032 A 
HETATM   22  C   UNL     1      21.892  48.252  48.784  1.00  0.00     0.040 A 
HETATM   23  C   UNL     1      23.037  48.738  49.433  1.00  0.00     0.032 A 
HETATM   24  C   UNL     1      24.099  47.882  49.748  1.00  0.00     0.032 A 
BRANCH  22  25
HETATM   25  N   UNL     1      20.800  49.135  48.512  1.00  0.00    -0.309 N 
HETATM   26  C   UNL     1      19.555  49.245  49.135  1.00  0.00     0.106 A 
HETATM   27  C   UNL     1      18.994  48.314  50.148  1.00  0.00     0.091 C 
HETATM   28  N   UNL     1      18.858  50.251  48.639  1.00  0.00    -0.246 NA
HETATM   29  C   UNL     1      19.615  50.784  47.642  1.00  0.00     0.136 A 
HETATM   30  C   UNL     1      20.798  50.103  47.524  1.00  0.00     0.118 A 
ENDBRANCH  22  25
ENDBRANCH   3  19
TORSDOF 6
ENDMDL
