MODEL 1
REMARK VINA RESULT:      -9.1      0.000      0.000
REMARK  7 active torsions:
REMARK  status: ('A' for Active; 'I' for Inactive)
REMARK    1  A    between atoms: C_2  and  C_3 
REMARK    2  A    between atoms: C_3  and  O_4 
REMARK    3  A    between atoms: O_4  and  C_5 
REMARK    4  A    between atoms: C_8  and  N_9 
REMARK    5  A    between atoms: C_12  and  N_13 
REMARK    6  A    between atoms: C_17  and  O_18 
REMARK    7  A    between atoms: C_17  and  C_19 
ROOT
HETATM    1  N   UNL     1      24.216  48.205  49.223  1.00  0.00    -0.251 N 
HETATM    2  C   UNL     1      24.112  46.967  49.814  1.00  0.00     0.262 C 
HETATM    3  O   UNL     1      23.184  46.172  49.881  1.00  0.00    -0.270 OA
HETATM    4  C   UNL     1      25.450  46.643  50.435  1.00  0.00     0.289 C 
HETATM    5  C   UNL     1      26.416  47.471  49.633  1.00  0.00     0.146 C 
HETATM    6  C   UNL     1      25.539  48.606  49.183  1.00  0.00     0.233 C 
HETATM    7  O   UNL     1      26.028  49.670  48.843  1.00  0.00    -0.273 OA
ENDROOT
BRANCH   4   8
HETATM    8  N   UNL     1      25.786  45.143  50.506  1.00  0.00    -0.058 N 
HETATM    9  H   UNL     1      25.200  44.734  49.755  1.00  0.00     0.281 HD
HETATM   10  C   UNL     1      27.204  44.772  50.123  1.00  0.00     0.239 C 
HETATM   11  C   UNL     1      27.362  43.260  50.134  1.00  0.00     0.071 C 
HETATM   12  C   UNL     1      27.024  42.657  51.515  1.00  0.00     0.088 C 
HETATM   13  C   UNL     1      25.551  43.026  51.786  1.00  0.00     0.071 C 
HETATM   14  C   UNL     1      25.335  44.530  51.809  1.00  0.00     0.239 C 
BRANCH  12  15
HETATM   15  O   UNL     1      27.063  41.238  51.364  1.00  0.00    -0.385 OA
HETATM   16  H   UNL     1      26.159  40.894  51.239  1.00  0.00     0.211 HD
ENDBRANCH  12  15
BRANCH  12  17
HETATM   17  C   UNL     1      28.001  43.044  52.634  1.00  0.00    -0.024 A 
HETATM   18  C   UNL     1      29.362  42.683  52.588  1.00  0.00     0.011 A 
HETATM   19  C   UNL     1      30.242  43.016  53.624  1.00  0.00     0.020 A 
HETATM   20  C   UNL     1      29.785  43.747  54.714  1.00  0.00     0.011 A 
HETATM   21 BR   UNL     1      30.967  44.185  56.119  1.00  0.00    -0.051 Br
HETATM   22  C   UNL     1      28.462  44.167  54.762  1.00  0.00     0.020 A 
HETATM   23  C   UNL     1      27.584  43.832  53.724  1.00  0.00     0.011 A 
ENDBRANCH  12  17
ENDBRANCH   4   8
BRANCH   1  24
HETATM   24  C   UNL     1      23.110  48.982  48.753  1.00  0.00     0.045 A 
HETATM   25  C   UNL     1      22.136  48.435  47.902  1.00  0.00     0.033 A 
HETATM   26  C   UNL     1      21.012  49.173  47.495  1.00  0.00     0.039 A 
HETATM   27  C   UNL     1      20.834  50.478  47.933  1.00  0.00     0.068 A 
HETATM   28  C   UNL     1      21.810  51.053  48.738  1.00  0.00     0.039 A 
HETATM   29  C   UNL     1      22.930  50.317  49.145  1.00  0.00     0.033 A 
BRANCH  27  30
HETATM   30  O   UNL     1      19.775  51.287  47.638  1.00  0.00    -0.351 OA
BRANCH  30  31
HETATM   31  C   UNL     1      19.436  52.281  48.608  1.00  0.00     0.175 C 
BRANCH  31  32
HETATM   32  C   UNL     1      18.334  51.711  49.495  1.00  0.00     0.022 C 
HETATM   33  C   UNL     1      17.235  52.727  49.753  1.00  0.00     0.007 C 
ENDBRANCH  31  32
ENDBRANCH  30  31
ENDBRANCH  27  30
ENDBRANCH   1  24
TORSDOF 7
ENDMDL
MODEL 2
REMARK VINA RESULT:      -8.4      2.575      3.563
REMARK  7 active torsions:
REMARK  status: ('A' for Active; 'I' for Inactive)
REMARK    1  A    between atoms: C_2  and  C_3 
REMARK    2  A    between atoms: C_3  and  O_4 
REMARK    3  A    between atoms: O_4  and  C_5 
REMARK    4  A    between atoms: C_8  and  N_9 
REMARK    5  A    between atoms: C_12  and  N_13 
REMARK    6  A    between atoms: C_17  and  O_18 
REMARK    7  A    between atoms: C_17  and  C_19 
ROOT
HETATM    1  N   UNL     1      23.129  47.246  49.015  1.00  0.00    -0.251 N 
HETATM    2  C   UNL     1      24.209  47.131  49.861  1.00  0.00     0.262 C 
HETATM    3  O   UNL     1      24.612  47.846  50.767  1.00  0.00    -0.270 OA
HETATM    4  C   UNL     1      24.923  45.846  49.518  1.00  0.00     0.289 C 
HETATM    5  C   UNL     1      23.847  45.006  48.886  1.00  0.00     0.146 C 
HETATM    6  C   UNL     1      22.929  46.060  48.332  1.00  0.00     0.233 C 
HETATM    7  O   UNL     1      22.156  45.796  47.426  1.00  0.00    -0.273 OA
ENDROOT
BRANCH   4   8
HETATM    8  N   UNL     1      25.657  45.179  50.694  1.00  0.00    -0.058 N 
HETATM    9  H   UNL     1      25.718  45.938  51.396  1.00  0.00     0.281 HD
HETATM   10  C   UNL     1      24.896  44.073  51.397  1.00  0.00     0.239 C 
HETATM   11  C   UNL     1      25.693  43.582  52.596  1.00  0.00     0.071 C 
HETATM   12  C   UNL     1      27.091  43.069  52.187  1.00  0.00     0.088 C 
HETATM   13  C   UNL     1      27.810  44.274  51.546  1.00  0.00     0.071 C 
HETATM   14  C   UNL     1      27.070  44.796  50.326  1.00  0.00     0.239 C 
BRANCH  12  15
HETATM   15  O   UNL     1      27.791  42.778  53.396  1.00  0.00    -0.385 OA
HETATM   16  H   UNL     1      28.276  41.937  53.303  1.00  0.00     0.211 HD
ENDBRANCH  12  15
BRANCH  12  17
HETATM   17  C   UNL     1      27.075  41.798  51.328  1.00  0.00    -0.024 A 
HETATM   18  C   UNL     1      25.918  41.379  50.642  1.00  0.00     0.011 A 
HETATM   19  C   UNL     1      25.905  40.204  49.881  1.00  0.00     0.020 A 
HETATM   20  C   UNL     1      27.058  39.439  49.765  1.00  0.00     0.011 A 
HETATM   21 BR   UNL     1      27.037  37.846  48.752  1.00  0.00    -0.051 Br
HETATM   22  C   UNL     1      28.231  39.854  50.383  1.00  0.00     0.020 A 
HETATM   23  C   UNL     1      28.242  41.030  51.143  1.00  0.00     0.011 A 
ENDBRANCH  12  17
ENDBRANCH   4   8
BRANCH   1  24
HETATM   24  C   UNL     1      22.351  48.433  48.839  1.00  0.00     0.045 A 
HETATM   25  C   UNL     1      20.983  48.469  49.159  1.00  0.00     0.033 A 
HETATM   26  C   UNL     1      20.231  49.651  49.056  1.00  0.00     0.039 A 
HETATM   27  C   UNL     1      20.831  50.829  48.631  1.00  0.00     0.068 A 
HETATM   28  C   UNL     1      22.172  50.803  48.264  1.00  0.00     0.039 A 
HETATM   29  C   UNL     1      22.922  49.625  48.370  1.00  0.00     0.033 A 
BRANCH  27  30
HETATM   30  O   UNL     1      20.222  52.046  48.518  1.00  0.00    -0.351 OA
BRANCH  30  31
HETATM   31  C   UNL     1      18.828  52.039  48.205  1.00  0.00     0.175 C 
BRANCH  31  32
HETATM   32  C   UNL     1      18.075  52.578  49.416  1.00  0.00     0.022 C 
HETATM   33  C   UNL     1      16.775  51.830  49.651  1.00  0.00     0.007 C 
ENDBRANCH  31  32
ENDBRANCH  30  31
ENDBRANCH  27  30
ENDBRANCH   1  24
TORSDOF 7
ENDMDL
MODEL 3
REMARK VINA RESULT:      -8.3      3.854     10.167
REMARK  7 active torsions:
REMARK  status: ('A' for Active; 'I' for Inactive)
REMARK    1  A    between atoms: C_2  and  C_3 
REMARK    2  A    between atoms: C_3  and  O_4 
REMARK    3  A    between atoms: O_4  and  C_5 
REMARK    4  A    between atoms: C_8  and  N_9 
REMARK    5  A    between atoms: C_12  and  N_13 
REMARK    6  A    between atoms: C_17  and  O_18 
REMARK    7  A    between atoms: C_17  and  C_19 
ROOT
HETATM    1  N   UNL     1      24.619  45.659  50.407  1.00  0.00    -0.251 N 
HETATM    2  C   UNL     1      23.730  45.033  49.563  1.00  0.00     0.262 C 
HETATM    3  O   UNL     1      23.291  43.891  49.545  1.00  0.00    -0.270 OA
HETATM    4  C   UNL     1      23.280  46.047  48.540  1.00  0.00     0.289 C 
HETATM    5  C   UNL     1      23.491  47.364  49.237  1.00  0.00     0.146 C 
HETATM    6  C   UNL     1      24.604  47.024  50.189  1.00  0.00     0.233 C 
HETATM    7  O   UNL     1      25.314  47.902  50.650  1.00  0.00    -0.273 OA
ENDROOT
BRANCH   4   8
HETATM    8  N   UNL     1      21.860  45.827  47.990  1.00  0.00    -0.058 N 
HETATM    9  H   UNL     1      21.884  44.845  47.660  1.00  0.00     0.281 HD
HETATM   10  C   UNL     1      20.748  45.851  49.021  1.00  0.00     0.239 C 
HETATM   11  C   UNL     1      19.423  45.515  48.356  1.00  0.00     0.071 C 
HETATM   12  C   UNL     1      19.088  46.496  47.211  1.00  0.00     0.088 C 
HETATM   13  C   UNL     1      20.232  46.352  46.187  1.00  0.00     0.071 C 
HETATM   14  C   UNL     1      21.584  46.697  46.789  1.00  0.00     0.239 C 
BRANCH  12  15
HETATM   15  O   UNL     1      17.911  45.998  46.575  1.00  0.00    -0.385 OA
HETATM   16  H   UNL     1      17.129  46.475  46.908  1.00  0.00     0.211 HD
ENDBRANCH  12  15
BRANCH  12  17
HETATM   17  C   UNL     1      18.810  47.934  47.667  1.00  0.00    -0.024 A 
HETATM   18  C   UNL     1      19.058  49.040  46.830  1.00  0.00     0.011 A 
HETATM   19  C   UNL     1      18.827  50.351  47.262  1.00  0.00     0.020 A 
HETATM   20  C   UNL     1      18.311  50.582  48.531  1.00  0.00     0.011 A 
HETATM   21 BR   UNL     1      18.012  52.351  49.121  1.00  0.00    -0.051 Br
HETATM   22  C   UNL     1      18.002  49.511  49.360  1.00  0.00     0.020 A 
HETATM   23  C   UNL     1      18.235  48.201  48.925  1.00  0.00     0.011 A 
ENDBRANCH  12  17
ENDBRANCH   4   8
BRANCH   1  24
HETATM   24  C   UNL     1      25.466  44.989  51.346  1.00  0.00     0.045 A 
HETATM   25  C   UNL     1      26.726  44.491  50.975  1.00  0.00     0.033 A 
HETATM   26  C   UNL     1      27.590  43.897  51.911  1.00  0.00     0.039 A 
HETATM   27  C   UNL     1      27.213  43.787  53.243  1.00  0.00     0.068 A 
HETATM   28  C   UNL     1      25.951  44.231  53.620  1.00  0.00     0.039 A 
HETATM   29  C   UNL     1      25.090  44.826  52.688  1.00  0.00     0.033 A 
BRANCH  27  30
HETATM   30  O   UNL     1      27.969  43.262  54.250  1.00  0.00    -0.351 OA
BRANCH  30  31
HETATM   31  C   UNL     1      29.021  44.084  54.759  1.00  0.00     0.175 C 
BRANCH  31  32
HETATM   32  C   UNL     1      30.298  43.250  54.775  1.00  0.00     0.022 C 
HETATM   33  C   UNL     1      31.050  43.394  56.087  1.00  0.00     0.007 C 
ENDBRANCH  31  32
ENDBRANCH  30  31
ENDBRANCH  27  30
ENDBRANCH   1  24
TORSDOF 7
ENDMDL
MODEL 4
REMARK VINA RESULT:      -8.3      6.959      9.827
REMARK  7 active torsions:
REMARK  status: ('A' for Active; 'I' for Inactive)
REMARK    1  A    between atoms: C_2  and  C_3 
REMARK    2  A    between atoms: C_3  and  O_4 
REMARK    3  A    between atoms: O_4  and  C_5 
REMARK    4  A    between atoms: C_8  and  N_9 
REMARK    5  A    between atoms: C_12  and  N_13 
REMARK    6  A    between atoms: C_17  and  O_18 
REMARK    7  A    between atoms: C_17  and  C_19 
ROOT
HETATM    1  N   UNL     1      27.948  42.951  52.186  1.00  0.00    -0.251 N 
HETATM    2  C   UNL     1      28.332  41.633  52.086  1.00  0.00     0.262 C 
HETATM    3  O   UNL     1      28.704  40.828  52.928  1.00  0.00    -0.270 OA
HETATM    4  C   UNL     1      28.207  41.230  50.636  1.00  0.00     0.289 C 
HETATM    5  C   UNL     1      27.178  42.185  50.095  1.00  0.00     0.146 C 
HETATM    6  C   UNL     1      27.358  43.367  51.007  1.00  0.00     0.233 C 
HETATM    7  O   UNL     1      26.988  44.478  50.662  1.00  0.00    -0.273 OA
ENDROOT
BRANCH   4   8
HETATM    8  N   UNL     1      27.894  39.742  50.402  1.00  0.00    -0.058 N 
HETATM    9  H   UNL     1      27.730  39.382  51.359  1.00  0.00     0.281 HD
HETATM   10  C   UNL     1      26.604  39.453  49.662  1.00  0.00     0.239 C 
HETATM   11  C   UNL     1      26.372  37.952  49.597  1.00  0.00     0.071 C 
HETATM   12  C   UNL     1      27.541  37.219  48.904  1.00  0.00     0.088 C 
HETATM   13  C   UNL     1      28.789  37.514  49.761  1.00  0.00     0.071 C 
HETATM   14  C   UNL     1      29.085  39.001  49.844  1.00  0.00     0.239 C 
BRANCH  12  15
HETATM   15  O   UNL     1      27.283  35.821  49.034  1.00  0.00    -0.385 OA
HETATM   16  H   UNL     1      27.749  35.332  48.329  1.00  0.00     0.211 HD
ENDBRANCH  12  15
BRANCH  12  17
HETATM   17  C   UNL     1      27.695  37.538  47.411  1.00  0.00    -0.024 A 
HETATM   18  C   UNL     1      26.728  38.282  46.707  1.00  0.00     0.011 A 
HETATM   19  C   UNL     1      26.862  38.547  45.339  1.00  0.00     0.020 A 
HETATM   20  C   UNL     1      27.984  38.100  44.653  1.00  0.00     0.011 A 
HETATM   21 BR   UNL     1      28.160  38.443  42.805  1.00  0.00    -0.051 Br
HETATM   22  C   UNL     1      28.983  37.412  45.330  1.00  0.00     0.020 A 
HETATM   23  C   UNL     1      28.846  37.149  46.698  1.00  0.00     0.011 A 
ENDBRANCH  12  17
ENDBRANCH   4   8
BRANCH   1  24
HETATM   24  C   UNL     1      28.162  43.781  53.331  1.00  0.00     0.045 A 
HETATM   25  C   UNL     1      29.377  43.759  54.038  1.00  0.00     0.033 A 
HETATM   26  C   UNL     1      29.618  44.622  55.119  1.00  0.00     0.039 A 
HETATM   27  C   UNL     1      28.649  45.532  55.520  1.00  0.00     0.068 A 
HETATM   28  C   UNL     1      27.423  45.537  54.864  1.00  0.00     0.039 A 
HETATM   29  C   UNL     1      27.183  44.677  53.784  1.00  0.00     0.033 A 
BRANCH  27  30
HETATM   30  O   UNL     1      28.770  46.443  56.529  1.00  0.00    -0.351 OA
BRANCH  30  31
HETATM   31  C   UNL     1      28.889  45.920  57.855  1.00  0.00     0.175 C 
BRANCH  31  32
HETATM   32  C   UNL     1      30.323  46.150  58.319  1.00  0.00     0.022 C 
HETATM   33  C   UNL     1      31.126  44.861  58.332  1.00  0.00     0.007 C 
ENDBRANCH  31  32
ENDBRANCH  30  31
ENDBRANCH  27  30
ENDBRANCH   1  24
TORSDOF 7
ENDMDL
MODEL 5
REMARK VINA RESULT:      -8.3      4.035     10.376
REMARK  7 active torsions:
REMARK  status: ('A' for Active; 'I' for Inactive)
REMARK    1  A    between atoms: C_2  and  C_3 
REMARK    2  A    between atoms: C_3  and  O_4 
REMARK    3  A    between atoms: O_4  and  C_5 
REMARK    4  A    between atoms: C_8  and  N_9 
REMARK    5  A    between atoms: C_12  and  N_13 
REMARK    6  A    between atoms: C_17  and  O_18 
REMARK    7  A    between atoms: C_17  and  C_19 
ROOT
HETATM    1  N   UNL     1      23.917  46.178  49.546  1.00  0.00    -0.251 N 
HETATM    2  C   UNL     1      22.947  45.622  48.743  1.00  0.00     0.262 C 
HETATM    3  O   UNL     1      22.587  44.464  48.585  1.00  0.00    -0.270 OA
HETATM    4  C   UNL     1      22.273  46.748  47.995  1.00  0.00     0.289 C 
HETATM    5  C   UNL     1      22.507  47.943  48.878  1.00  0.00     0.146 C 
HETATM    6  C   UNL     1      23.777  47.553  49.582  1.00  0.00     0.233 C 
HETATM    7  O   UNL     1      24.494  48.403  50.084  1.00  0.00    -0.273 OA
ENDROOT
BRANCH   4   8
HETATM    8  N   UNL     1      20.801  46.492  47.629  1.00  0.00    -0.058 N 
HETATM    9  H   UNL     1      20.822  45.541  47.218  1.00  0.00     0.281 HD
HETATM   10  C   UNL     1      19.846  46.378  48.800  1.00  0.00     0.239 C 
HETATM   11  C   UNL     1      18.456  46.021  48.297  1.00  0.00     0.071 C 
HETATM   12  C   UNL     1      17.922  47.065  47.293  1.00  0.00     0.088 C 
HETATM   13  C   UNL     1      18.915  47.061  46.113  1.00  0.00     0.071 C 
HETATM   14  C   UNL     1      20.322  47.433  46.551  1.00  0.00     0.239 C 
BRANCH  12  15
HETATM   15  O   UNL     1      16.690  46.554  46.784  1.00  0.00    -0.385 OA
HETATM   16  H   UNL     1      16.841  46.123  45.922  1.00  0.00     0.211 HD
ENDBRANCH  12  15
BRANCH  12  17
HETATM   17  C   UNL     1      17.648  48.448  47.899  1.00  0.00    -0.024 A 
HETATM   18  C   UNL     1      18.095  48.795  49.189  1.00  0.00     0.011 A 
HETATM   19  C   UNL     1      17.819  50.049  49.746  1.00  0.00     0.020 A 
HETATM   20  C   UNL     1      17.117  50.996  49.011  1.00  0.00     0.011 A 
HETATM   21 BR   UNL     1      16.732  52.683  49.765  1.00  0.00    -0.051 Br
HETATM   22  C   UNL     1      16.712  50.705  47.714  1.00  0.00     0.020 A 
HETATM   23  C   UNL     1      16.989  49.450  47.159  1.00  0.00     0.011 A 
ENDBRANCH  12  17
ENDBRANCH   4   8
BRANCH   1  24
HETATM   24  C   UNL     1      24.944  45.442  50.217  1.00  0.00     0.045 A 
HETATM   25  C   UNL     1      26.176  45.168  49.597  1.00  0.00     0.033 A 
HETATM   26  C   UNL     1      27.213  44.508  50.277  1.00  0.00     0.039 A 
HETATM   27  C   UNL     1      27.044  44.107  51.595  1.00  0.00     0.068 A 
HETATM   28  C   UNL     1      25.817  44.327  52.210  1.00  0.00     0.039 A 
HETATM   29  C   UNL     1      24.783  44.987  51.534  1.00  0.00     0.033 A 
BRANCH  27  30
HETATM   30  O   UNL     1      27.980  43.488  52.373  1.00  0.00    -0.351 OA
BRANCH  30  31
HETATM   31  C   UNL     1      27.981  43.819  53.763  1.00  0.00     0.175 C 
BRANCH  31  32
HETATM   32  C   UNL     1      29.262  43.263  54.375  1.00  0.00     0.022 C 
HETATM   33  C   UNL     1      30.248  42.816  53.310  1.00  0.00     0.007 C 
ENDBRANCH  31  32
ENDBRANCH  30  31
ENDBRANCH  27  30
ENDBRANCH   1  24
TORSDOF 7
ENDMDL
MODEL 6
REMARK VINA RESULT:      -8.0     10.696     14.037
REMARK  7 active torsions:
REMARK  status: ('A' for Active; 'I' for Inactive)
REMARK    1  A    between atoms: C_2  and  C_3 
REMARK    2  A    between atoms: C_3  and  O_4 
REMARK    3  A    between atoms: O_4  and  C_5 
REMARK    4  A    between atoms: C_8  and  N_9 
REMARK    5  A    between atoms: C_12  and  N_13 
REMARK    6  A    between atoms: C_17  and  O_18 
REMARK    7  A    between atoms: C_17  and  C_19 
ROOT
HETATM    1  N   UNL     1      27.106  47.633  38.999  1.00  0.00    -0.251 N 
HETATM    2  C   UNL     1      27.478  48.701  39.784  1.00  0.00     0.262 C 
HETATM    3  O   UNL     1      28.340  48.817  40.644  1.00  0.00    -0.270 OA
HETATM    4  C   UNL     1      26.606  49.873  39.405  1.00  0.00     0.289 C 
HETATM    5  C   UNL     1      26.190  49.557  37.994  1.00  0.00     0.146 C 
HETATM    6  C   UNL     1      26.261  48.055  37.990  1.00  0.00     0.233 C 
HETATM    7  O   UNL     1      25.637  47.407  37.165  1.00  0.00    -0.273 OA
ENDROOT
BRANCH   4   8
HETATM    8  N   UNL     1      27.258  51.254  39.593  1.00  0.00    -0.058 N 
HETATM    9  H   UNL     1      26.474  51.910  39.423  1.00  0.00     0.281 HD
HETATM   10  C   UNL     1      27.719  51.573  41.001  1.00  0.00     0.239 C 
HETATM   11  C   UNL     1      28.241  53.000  41.060  1.00  0.00     0.071 C 
HETATM   12  C   UNL     1      29.404  53.228  40.071  1.00  0.00     0.088 C 
HETATM   13  C   UNL     1      28.825  52.948  38.669  1.00  0.00     0.071 C 
HETATM   14  C   UNL     1      28.305  51.526  38.541  1.00  0.00     0.239 C 
BRANCH  12  15
HETATM   15  O   UNL     1      29.708  54.623  40.109  1.00  0.00    -0.385 OA
HETATM   16  H   UNL     1      29.569  54.966  41.012  1.00  0.00     0.211 HD
ENDBRANCH  12  15
BRANCH  12  17
HETATM   17  C   UNL     1      30.685  52.453  40.405  1.00  0.00    -0.024 A 
HETATM   18  C   UNL     1      31.529  51.945  39.398  1.00  0.00     0.011 A 
HETATM   19  C   UNL     1      32.683  51.216  39.710  1.00  0.00     0.020 A 
HETATM   20  C   UNL     1      33.034  51.008  41.037  1.00  0.00     0.011 A 
HETATM   21 BR   UNL     1      34.581  50.012  41.460  1.00  0.00    -0.051 Br
HETATM   22  C   UNL     1      32.254  51.545  42.054  1.00  0.00     0.020 A 
HETATM   23  C   UNL     1      31.101  52.273  41.739  1.00  0.00     0.011 A 
ENDBRANCH  12  17
ENDBRANCH   4   8
BRANCH   1  24
HETATM   24  C   UNL     1      27.506  46.277  39.220  1.00  0.00     0.045 A 
HETATM   25  C   UNL     1      28.637  45.732  38.589  1.00  0.00     0.033 A 
HETATM   26  C   UNL     1      29.074  44.425  38.857  1.00  0.00     0.039 A 
HETATM   27  C   UNL     1      28.389  43.629  39.766  1.00  0.00     0.068 A 
HETATM   28  C   UNL     1      27.241  44.133  40.365  1.00  0.00     0.039 A 
HETATM   29  C   UNL     1      26.806  45.438  40.099  1.00  0.00     0.033 A 
BRANCH  27  30
HETATM   30  O   UNL     1      28.728  42.359  40.136  1.00  0.00    -0.351 OA
BRANCH  30  31
HETATM   31  C   UNL     1      28.146  41.866  41.346  1.00  0.00     0.175 C 
BRANCH  31  32
HETATM   32  C   UNL     1      28.999  40.699  41.830  1.00  0.00     0.022 C 
HETATM   33  C   UNL     1      29.341  40.823  43.304  1.00  0.00     0.007 C 
ENDBRANCH  31  32
ENDBRANCH  30  31
ENDBRANCH  27  30
ENDBRANCH   1  24
TORSDOF 7
ENDMDL
MODEL 7
REMARK VINA RESULT:      -7.9      2.193      2.874
REMARK  7 active torsions:
REMARK  status: ('A' for Active; 'I' for Inactive)
REMARK    1  A    between atoms: C_2  and  C_3 
REMARK    2  A    between atoms: C_3  and  O_4 
REMARK    3  A    between atoms: O_4  and  C_5 
REMARK    4  A    between atoms: C_8  and  N_9 
REMARK    5  A    between atoms: C_12  and  N_13 
REMARK    6  A    between atoms: C_17  and  O_18 
REMARK    7  A    between atoms: C_17  and  C_19 
ROOT
HETATM    1  N   UNL     1      22.819  46.785  48.654  1.00  0.00    -0.251 N 
HETATM    2  C   UNL     1      23.991  46.553  49.337  1.00  0.00     0.262 C 
HETATM    3  O   UNL     1      24.536  47.163  50.247  1.00  0.00    -0.270 OA
HETATM    4  C   UNL     1      24.600  45.287  48.785  1.00  0.00     0.289 C 
HETATM    5  C   UNL     1      23.417  44.547  48.222  1.00  0.00     0.146 C 
HETATM    6  C   UNL     1      22.483  45.679  47.895  1.00  0.00     0.233 C 
HETATM    7  O   UNL     1      21.590  45.529  47.077  1.00  0.00    -0.273 OA
ENDROOT
BRANCH   4   8
HETATM    8  N   UNL     1      25.448  44.485  49.787  1.00  0.00    -0.058 N 
HETATM    9  H   UNL     1      25.612  43.589  49.293  1.00  0.00     0.281 HD
HETATM   10  C   UNL     1      26.837  45.030  50.052  1.00  0.00     0.239 C 
HETATM   11  C   UNL     1      27.594  44.085  50.972  1.00  0.00     0.071 C 
HETATM   12  C   UNL     1      26.857  43.873  52.312  1.00  0.00     0.088 C 
HETATM   13  C   UNL     1      25.491  43.256  51.947  1.00  0.00     0.071 C 
HETATM   14  C   UNL     1      24.677  44.168  51.044  1.00  0.00     0.239 C 
BRANCH  12  15
HETATM   15  O   UNL     1      27.577  42.865  53.022  1.00  0.00    -0.385 OA
HETATM   16  H   UNL     1      27.657  43.116  53.961  1.00  0.00     0.211 HD
ENDBRANCH  12  15
BRANCH  12  17
HETATM   17  C   UNL     1      26.783  45.121  53.201  1.00  0.00    -0.024 A 
HETATM   18  C   UNL     1      27.716  45.355  54.231  1.00  0.00     0.011 A 
HETATM   19  C   UNL     1      27.627  46.483  55.055  1.00  0.00     0.020 A 
HETATM   20  C   UNL     1      26.621  47.417  54.846  1.00  0.00     0.011 A 
HETATM   21 BR   UNL     1      26.491  48.932  55.966  1.00  0.00    -0.051 Br
HETATM   22  C   UNL     1      25.720  47.245  53.803  1.00  0.00     0.020 A 
HETATM   23  C   UNL     1      25.811  46.116  52.980  1.00  0.00     0.011 A 
ENDBRANCH  12  17
ENDBRANCH   4   8
BRANCH   1  24
HETATM   24  C   UNL     1      22.076  48.007  48.694  1.00  0.00     0.045 A 
HETATM   25  C   UNL     1      20.760  48.051  49.185  1.00  0.00     0.033 A 
HETATM   26  C   UNL     1      20.053  49.260  49.293  1.00  0.00     0.039 A 
HETATM   27  C   UNL     1      20.646  50.456  48.913  1.00  0.00     0.068 A 
HETATM   28  C   UNL     1      21.930  50.427  48.381  1.00  0.00     0.039 A 
HETATM   29  C   UNL     1      22.637  49.222  48.276  1.00  0.00     0.033 A 
BRANCH  27  30
HETATM   30  O   UNL     1      20.081  51.696  48.997  1.00  0.00    -0.351 OA
BRANCH  30  31
HETATM   31  C   UNL     1      19.037  51.862  49.959  1.00  0.00     0.175 C 
BRANCH  31  32
HETATM   32  C   UNL     1      17.880  52.581  49.273  1.00  0.00     0.022 C 
HETATM   33  C   UNL     1      16.551  51.902  49.547  1.00  0.00     0.007 C 
ENDBRANCH  31  32
ENDBRANCH  30  31
ENDBRANCH  27  30
ENDBRANCH   1  24
TORSDOF 7
ENDMDL
MODEL 8
REMARK VINA RESULT:      -7.8      4.364      7.055
REMARK  7 active torsions:
REMARK  status: ('A' for Active; 'I' for Inactive)
REMARK    1  A    between atoms: C_2  and  C_3 
REMARK    2  A    between atoms: C_3  and  O_4 
REMARK    3  A    between atoms: O_4  and  C_5 
REMARK    4  A    between atoms: C_8  and  N_9 
REMARK    5  A    between atoms: C_12  and  N_13 
REMARK    6  A    between atoms: C_17  and  O_18 
REMARK    7  A    between atoms: C_17  and  C_19 
ROOT
HETATM    1  N   UNL     1      27.055  43.676  51.226  1.00  0.00    -0.251 N 
HETATM    2  C   UNL     1      26.702  42.516  50.575  1.00  0.00     0.262 C 
HETATM    3  O   UNL     1      26.130  42.321  49.512  1.00  0.00    -0.270 OA
HETATM    4  C   UNL     1      27.178  41.356  51.417  1.00  0.00     0.289 C 
HETATM    5  C   UNL     1      28.312  41.944  52.212  1.00  0.00     0.146 C 
HETATM    6  C   UNL     1      27.919  43.394  52.268  1.00  0.00     0.233 C 
HETATM    7  O   UNL     1      28.367  44.124  53.137  1.00  0.00    -0.273 OA
ENDROOT
BRANCH   4   8
HETATM    8  N   UNL     1      27.532  40.084  50.627  1.00  0.00    -0.058 N 
HETATM    9  H   UNL     1      27.860  39.433  51.364  1.00  0.00     0.281 HD
HETATM   10  C   UNL     1      26.363  39.368  49.982  1.00  0.00     0.239 C 
HETATM   11  C   UNL     1      26.844  38.081  49.331  1.00  0.00     0.071 C 
HETATM   12  C   UNL     1      27.937  38.344  48.273  1.00  0.00     0.088 C 
HETATM   13  C   UNL     1      29.105  39.008  49.031  1.00  0.00     0.071 C 
HETATM   14  C   UNL     1      28.690  40.314  49.687  1.00  0.00     0.239 C 
BRANCH  12  15
HETATM   15  O   UNL     1      28.410  37.067  47.844  1.00  0.00    -0.385 OA
HETATM   16  H   UNL     1      28.330  36.995  46.874  1.00  0.00     0.211 HD
ENDBRANCH  12  15
BRANCH  12  17
HETATM   17  C   UNL     1      27.453  39.113  47.037  1.00  0.00    -0.024 A 
HETATM   18  C   UNL     1      26.229  38.811  46.407  1.00  0.00     0.011 A 
HETATM   19  C   UNL     1      25.807  39.499  45.264  1.00  0.00     0.020 A 
HETATM   20  C   UNL     1      26.584  40.526  44.745  1.00  0.00     0.011 A 
HETATM   21 BR   UNL     1      26.022  41.446  43.195  1.00  0.00    -0.051 Br
HETATM   22  C   UNL     1      27.768  40.887  45.376  1.00  0.00     0.020 A 
HETATM   23  C   UNL     1      28.189  40.197  46.519  1.00  0.00     0.011 A 
ENDBRANCH  12  17
ENDBRANCH   4   8
BRANCH   1  24
HETATM   24  C   UNL     1      26.568  44.980  50.896  1.00  0.00     0.045 A 
HETATM   25  C   UNL     1      27.147  45.741  49.866  1.00  0.00     0.033 A 
HETATM   26  C   UNL     1      26.627  46.991  49.491  1.00  0.00     0.039 A 
HETATM   27  C   UNL     1      25.512  47.510  50.137  1.00  0.00     0.068 A 
HETATM   28  C   UNL     1      24.955  46.794  51.189  1.00  0.00     0.039 A 
HETATM   29  C   UNL     1      25.471  45.546  51.562  1.00  0.00     0.033 A 
BRANCH  27  30
HETATM   30  O   UNL     1      24.895  48.692  49.848  1.00  0.00    -0.351 OA
BRANCH  30  31
HETATM   31  C   UNL     1      25.421  49.440  48.750  1.00  0.00     0.175 C 
BRANCH  31  32
HETATM   32  C   UNL     1      24.245  50.049  47.993  1.00  0.00     0.022 C 
HETATM   33  C   UNL     1      23.281  50.760  48.926  1.00  0.00     0.007 C 
ENDBRANCH  31  32
ENDBRANCH  30  31
ENDBRANCH  27  30
ENDBRANCH   1  24
TORSDOF 7
ENDMDL
MODEL 9
REMARK VINA RESULT:      -7.6     11.898     14.933
REMARK  7 active torsions:
REMARK  status: ('A' for Active; 'I' for Inactive)
REMARK    1  A    between atoms: C_2  and  C_3 
REMARK    2  A    between atoms: C_3  and  O_4 
REMARK    3  A    between atoms: O_4  and  C_5 
REMARK    4  A    between atoms: C_8  and  N_9 
REMARK    5  A    between atoms: C_12  and  N_13 
REMARK    6  A    between atoms: C_17  and  O_18 
REMARK    7  A    between atoms: C_17  and  C_19 
ROOT
HETATM    1  N   UNL     1      33.183  50.601  41.658  1.00  0.00    -0.251 N 
HETATM    2  C   UNL     1      31.946  51.183  41.497  1.00  0.00     0.262 C 
HETATM    3  O   UNL     1      31.589  52.353  41.518  1.00  0.00    -0.270 OA
HETATM    4  C   UNL     1      30.951  50.078  41.237  1.00  0.00     0.289 C 
HETATM    5  C   UNL     1      31.798  48.972  40.668  1.00  0.00     0.146 C 
HETATM    6  C   UNL     1      33.135  49.269  41.288  1.00  0.00     0.233 C 
HETATM    7  O   UNL     1      33.981  48.395  41.386  1.00  0.00    -0.273 OA
ENDROOT
BRANCH   4   8
HETATM    8  N   UNL     1      29.746  50.482  40.369  1.00  0.00    -0.058 N 
HETATM    9  H   UNL     1      29.908  51.491  40.195  1.00  0.00     0.281 HD
HETATM   10  C   UNL     1      29.700  49.862  38.986  1.00  0.00     0.239 C 
HETATM   11  C   UNL     1      28.523  50.430  38.208  1.00  0.00     0.071 C 
HETATM   12  C   UNL     1      27.182  50.182  38.931  1.00  0.00     0.088 C 
HETATM   13  C   UNL     1      27.298  50.902  40.290  1.00  0.00     0.071 C 
HETATM   14  C   UNL     1      28.446  50.362  41.125  1.00  0.00     0.239 C 
BRANCH  12  15
HETATM   15  O   UNL     1      26.180  50.880  38.190  1.00  0.00    -0.385 OA
HETATM   16  H   UNL     1      25.939  51.702  38.654  1.00  0.00     0.211 HD
ENDBRANCH  12  15
BRANCH  12  17
HETATM   17  C   UNL     1      26.768  48.707  39.017  1.00  0.00    -0.024 A 
HETATM   18  C   UNL     1      27.257  47.745  38.111  1.00  0.00     0.011 A 
HETATM   19  C   UNL     1      26.855  46.406  38.180  1.00  0.00     0.020 A 
HETATM   20  C   UNL     1      25.981  45.994  39.178  1.00  0.00     0.011 A 
HETATM   21 BR   UNL     1      25.427  44.191  39.263  1.00  0.00    -0.051 Br
HETATM   22  C   UNL     1      25.525  46.907  40.121  1.00  0.00     0.020 A 
HETATM   23  C   UNL     1      25.929  48.245  40.050  1.00  0.00     0.011 A 
ENDBRANCH  12  17
ENDBRANCH   4   8
BRANCH   1  24
HETATM   24  C   UNL     1      34.340  51.267  42.171  1.00  0.00     0.045 A 
HETATM   25  C   UNL     1      35.441  51.564  41.350  1.00  0.00     0.033 A 
HETATM   26  C   UNL     1      36.549  52.281  41.831  1.00  0.00     0.039 A 
HETATM   27  C   UNL     1      36.582  52.720  43.148  1.00  0.00     0.068 A 
HETATM   28  C   UNL     1      35.524  52.395  43.989  1.00  0.00     0.039 A 
HETATM   29  C   UNL     1      34.418  51.682  43.508  1.00  0.00     0.033 A 
BRANCH  27  30
HETATM   30  O   UNL     1      37.580  53.449  43.727  1.00  0.00    -0.351 OA
BRANCH  30  31
HETATM   31  C   UNL     1      37.875  53.161  45.096  1.00  0.00     0.175 C 
BRANCH  31  32
HETATM   32  C   UNL     1      38.039  54.490  45.827  1.00  0.00     0.022 C 
HETATM   33  C   UNL     1      38.279  54.290  47.313  1.00  0.00     0.007 C 
ENDBRANCH  31  32
ENDBRANCH  30  31
ENDBRANCH  27  30
ENDBRANCH   1  24
TORSDOF 7
ENDMDL
MODEL 10
REMARK VINA RESULT:      -7.6     19.004     21.810
REMARK  7 active torsions:
REMARK  status: ('A' for Active; 'I' for Inactive)
REMARK    1  A    between atoms: C_2  and  C_3 
REMARK    2  A    between atoms: C_3  and  O_4 
REMARK    3  A    between atoms: O_4  and  C_5 
REMARK    4  A    between atoms: C_8  and  N_9 
REMARK    5  A    between atoms: C_12  and  N_13 
REMARK    6  A    between atoms: C_17  and  O_18 
REMARK    7  A    between atoms: C_17  and  C_19 
ROOT
HETATM    1  N   UNL     1      38.242  42.849  64.772  1.00  0.00    -0.251 N 
HETATM    2  C   UNL     1      39.516  42.374  64.558  1.00  0.00     0.262 C 
HETATM    3  O   UNL     1      40.606  42.928  64.587  1.00  0.00    -0.270 OA
HETATM    4  C   UNL     1      39.410  40.897  64.265  1.00  0.00     0.289 C 
HETATM    5  C   UNL     1      38.118  40.501  64.927  1.00  0.00     0.146 C 
HETATM    6  C   UNL     1      37.354  41.795  64.891  1.00  0.00     0.233 C 
HETATM    7  O   UNL     1      36.137  41.799  64.977  1.00  0.00    -0.273 OA
ENDROOT
BRANCH   4   8
HETATM    8  N   UNL     1      40.634  40.064  64.684  1.00  0.00    -0.058 N 
HETATM    9  H   UNL     1      41.427  40.581  64.264  1.00  0.00     0.281 HD
HETATM   10  C   UNL     1      40.937  40.049  66.169  1.00  0.00     0.239 C 
HETATM   11  C   UNL     1      42.224  39.281  66.424  1.00  0.00     0.071 C 
HETATM   12  C   UNL     1      42.144  37.832  65.898  1.00  0.00     0.088 C 
HETATM   13  C   UNL     1      41.903  37.949  64.379  1.00  0.00     0.071 C 
HETATM   14  C   UNL     1      40.615  38.690  64.061  1.00  0.00     0.239 C 
BRANCH  12  15
HETATM   15  O   UNL     1      43.444  37.264  66.057  1.00  0.00    -0.385 OA
HETATM   16  H   UNL     1      43.812  37.032  65.185  1.00  0.00     0.211 HD
ENDBRANCH  12  15
BRANCH  12  17
HETATM   17  C   UNL     1      41.141  36.940  66.642  1.00  0.00    -0.024 A 
HETATM   18  C   UNL     1      40.443  35.904  65.991  1.00  0.00     0.011 A 
HETATM   19  C   UNL     1      39.510  35.112  66.670  1.00  0.00     0.020 A 
HETATM   20  C   UNL     1      39.279  35.319  68.024  1.00  0.00     0.011 A 
HETATM   21 BR   UNL     1      38.011  34.260  68.939  1.00  0.00    -0.051 Br
HETATM   22  C   UNL     1      39.993  36.295  68.708  1.00  0.00     0.020 A 
HETATM   23  C   UNL     1      40.925  37.086  68.027  1.00  0.00     0.011 A 
ENDBRANCH  12  17
ENDBRANCH   4   8
BRANCH   1  24
HETATM   24  C   UNL     1      37.882  44.232  64.825  1.00  0.00     0.045 A 
HETATM   25  C   UNL     1      37.252  44.870  63.743  1.00  0.00     0.033 A 
HETATM   26  C   UNL     1      36.834  46.209  63.817  1.00  0.00     0.039 A 
HETATM   27  C   UNL     1      37.034  46.943  64.979  1.00  0.00     0.068 A 
HETATM   28  C   UNL     1      37.697  46.345  66.043  1.00  0.00     0.039 A 
HETATM   29  C   UNL     1      38.113  45.009  65.970  1.00  0.00     0.033 A 
BRANCH  27  30
HETATM   30  O   UNL     1      36.647  48.235  65.188  1.00  0.00    -0.351 OA
BRANCH  30  31
HETATM   31  C   UNL     1      37.324  48.948  66.227  1.00  0.00     0.175 C 
BRANCH  31  32
HETATM   32  C   UNL     1      38.052  50.125  65.587  1.00  0.00     0.022 C 
HETATM   33  C   UNL     1      37.766  51.427  66.312  1.00  0.00     0.007 C 
ENDBRANCH  31  32
ENDBRANCH  30  31
ENDBRANCH  27  30
ENDBRANCH   1  24
TORSDOF 7
ENDMDL
