MODEL 1
REMARK VINA RESULT:     -10.2      0.000      0.000
REMARK  7 active torsions:
REMARK  status: ('A' for Active; 'I' for Inactive)
REMARK    1  A    between atoms: O_2  and  C_3 
REMARK    2  A    between atoms: C_3  and  C_4 
REMARK    3  A    between atoms: C_6  and  N_7 
REMARK       I    between atoms: N_7  and  C_8 
REMARK    4  A    between atoms: C_8  and  C_9 
REMARK    5  A    between atoms: C_17  and  C_18 
REMARK    6  A    between atoms: C_18  and  N_19 
REMARK       I    between atoms: N_19  and  C_20 
REMARK    7  A    between atoms: C_20  and  C_21 
ROOT
HETATM    1  C   UNL     1      24.444  43.973  50.675  1.00  0.00     0.042 A 
HETATM    2  C   UNL     1      25.442  43.900  51.658  1.00  0.00     0.047 A 
HETATM    3  C   UNL     1      26.164  45.040  52.021  1.00  0.00     0.036 A 
HETATM    4  C   UNL     1      25.873  46.258  51.389  1.00  0.00     0.038 A 
HETATM    5  C   UNL     1      24.858  46.357  50.424  1.00  0.00    -0.037 A 
HETATM    6  C   UNL     1      24.162  45.200  50.057  1.00  0.00     0.026 A 
ENDROOT
BRANCH   5   7
HETATM    7  C   UNL     1      24.506  47.689  49.817  1.00  0.00     0.161 C 
BRANCH   7   8
HETATM    8  N   UNL     1      23.108  48.007  49.964  1.00  0.00    -0.351 N 
HETATM    9  C   UNL     1      22.368  48.535  48.936  1.00  0.00     0.270 C 
HETATM   10  O   UNL     1      22.808  48.628  47.794  1.00  0.00    -0.266 OA
HETATM   11  H   UNL     1      22.658  47.785  50.837  1.00  0.00     0.163 HD
BRANCH   9  12
HETATM   12  C   UNL     1      21.038  48.976  49.277  1.00  0.00     0.126 A 
HETATM   13  N   UNL     1      20.132  48.086  49.803  1.00  0.00    -0.272 N 
HETATM   14  H   UNL     1      20.295  47.104  49.999  1.00  0.00     0.189 HD
HETATM   15  N   UNL     1      18.919  48.606  50.057  1.00  0.00    -0.178 NA
HETATM   16  C   UNL     1      19.039  49.871  49.661  1.00  0.00     0.063 A 
HETATM   17  C   UNL     1      20.335  50.166  49.161  1.00  0.00     0.002 A 
HETATM   18  C   UNL     1      17.907  50.838  49.687  1.00  0.00     0.062 C 
HETATM   19  C   UNL     1      20.697  51.513  48.641  1.00  0.00     0.043 C 
HETATM   20  C   UNL     1      19.448  52.368  48.356  1.00  0.00     0.005 C 
HETATM   21  C   UNL     1      18.408  52.276  49.486  1.00  0.00     0.006 C 
ENDBRANCH   9  12
ENDBRANCH   7   8
ENDBRANCH   5   7
BRANCH   3  22
HETATM   22  N   UNL     1      27.158  45.060  53.025  1.00  0.00    -0.323 N 
HETATM   23  C   UNL     1      28.261  44.230  53.129  1.00  0.00     0.256 C 
HETATM   24  O   UNL     1      28.630  43.406  52.300  1.00  0.00    -0.267 OA
HETATM   25  H   UNL     1      27.047  45.781  53.726  1.00  0.00     0.169 HD
BRANCH  23  26
HETATM   26  C   UNL     1      29.076  44.381  54.370  1.00  0.00     0.035 A 
HETATM   27  C   UNL     1      30.098  43.493  54.712  1.00  0.00     0.036 A 
HETATM   28  C   UNL     1      30.811  43.741  55.873  1.00  0.00     0.117 A 
HETATM   29  N   UNL     1      30.580  44.793  56.686  1.00  0.00    -0.273 NA
HETATM   30  C   UNL     1      29.604  45.650  56.321  1.00  0.00     0.117 A 
HETATM   31  C   UNL     1      28.833  45.490  55.184  1.00  0.00     0.036 A 
ENDBRANCH  23  26
ENDBRANCH   3  22
BRANCH   1  32
HETATM   32  C   UNL     1      23.641  42.789  50.265  1.00  0.00     0.293 C 
HETATM   33  O   UNL     1      22.425  42.739  50.370  1.00  0.00    -0.259 OA
BRANCH  32  34
HETATM   34  O   UNL     1      24.442  41.797  49.810  1.00  0.00    -0.323 OA
HETATM   35  C   UNL     1      24.181  41.401  48.463  1.00  0.00     0.213 C 
ENDBRANCH  32  34
ENDBRANCH   1  32
TORSDOF 7
ENDMDL
MODEL 2
REMARK VINA RESULT:      -9.8      3.563      4.759
REMARK  7 active torsions:
REMARK  status: ('A' for Active; 'I' for Inactive)
REMARK    1  A    between atoms: O_2  and  C_3 
REMARK    2  A    between atoms: C_3  and  C_4 
REMARK    3  A    between atoms: C_6  and  N_7 
REMARK       I    between atoms: N_7  and  C_8 
REMARK    4  A    between atoms: C_8  and  C_9 
REMARK    5  A    between atoms: C_17  and  C_18 
REMARK    6  A    between atoms: C_18  and  N_19 
REMARK       I    between atoms: N_19  and  C_20 
REMARK    7  A    between atoms: C_20  and  C_21 
ROOT
HETATM    1  C   UNL     1      27.861  41.441  51.072  1.00  0.00     0.042 A 
HETATM    2  C   UNL     1      28.641  41.735  52.201  1.00  0.00     0.047 A 
HETATM    3  C   UNL     1      28.197  42.665  53.145  1.00  0.00     0.036 A 
HETATM    4  C   UNL     1      26.961  43.296  52.949  1.00  0.00     0.038 A 
HETATM    5  C   UNL     1      26.153  42.993  51.841  1.00  0.00    -0.037 A 
HETATM    6  C   UNL     1      26.624  42.077  50.894  1.00  0.00     0.026 A 
ENDROOT
BRANCH   5   7
HETATM    7  C   UNL     1      24.793  43.619  51.691  1.00  0.00     0.161 C 
BRANCH   7   8
HETATM    8  N   UNL     1      24.814  44.784  50.843  1.00  0.00    -0.351 N 
HETATM    9  C   UNL     1      24.966  46.051  51.348  1.00  0.00     0.270 C 
HETATM   10  O   UNL     1      25.239  46.257  52.527  1.00  0.00    -0.266 OA
HETATM   11  H   UNL     1      24.766  44.650  49.847  1.00  0.00     0.163 HD
BRANCH   9  12
HETATM   12  C   UNL     1      24.782  47.131  50.410  1.00  0.00     0.126 A 
HETATM   13  N   UNL     1      23.542  47.363  49.864  1.00  0.00    -0.272 N 
HETATM   14  H   UNL     1      22.691  46.844  50.056  1.00  0.00     0.189 HD
HETATM   15  N   UNL     1      23.498  48.378  48.984  1.00  0.00    -0.178 NA
HETATM   16  C   UNL     1      24.759  48.803  48.945  1.00  0.00     0.063 A 
HETATM   17  C   UNL     1      25.611  48.065  49.808  1.00  0.00     0.002 A 
HETATM   18  C   UNL     1      25.218  49.891  48.038  1.00  0.00     0.062 C 
HETATM   19  C   UNL     1      27.069  48.347  49.915  1.00  0.00     0.043 C 
HETATM   20  C   UNL     1      27.569  49.212  48.743  1.00  0.00     0.005 C 
HETATM   21  C   UNL     1      26.619  50.382  48.434  1.00  0.00     0.006 C 
ENDBRANCH   9  12
ENDBRANCH   7   8
ENDBRANCH   5   7
BRANCH   3  22
HETATM   22  N   UNL     1      28.903  42.991  54.325  1.00  0.00    -0.323 N 
HETATM   23  C   UNL     1      29.171  44.257  54.818  1.00  0.00     0.256 C 
HETATM   24  O   UNL     1      28.740  45.316  54.374  1.00  0.00    -0.267 OA
HETATM   25  H   UNL     1      29.223  42.201  54.868  1.00  0.00     0.169 HD
BRANCH  23  26
HETATM   26  C   UNL     1      30.059  44.316  56.016  1.00  0.00     0.035 A 
HETATM   27  C   UNL     1      31.053  43.366  56.264  1.00  0.00     0.036 A 
HETATM   28  C   UNL     1      31.839  43.530  57.391  1.00  0.00     0.117 A 
HETATM   29  N   UNL     1      31.707  44.555  58.258  1.00  0.00    -0.273 NA
HETATM   30  C   UNL     1      30.757  45.473  57.983  1.00  0.00     0.117 A 
HETATM   31  C   UNL     1      29.918  45.399  56.887  1.00  0.00     0.036 A 
ENDBRANCH  23  26
ENDBRANCH   3  22
BRANCH   1  32
HETATM   32  C   UNL     1      28.286  40.450  50.047  1.00  0.00     0.293 C 
HETATM   33  O   UNL     1      28.116  40.614  48.848  1.00  0.00    -0.259 OA
BRANCH  32  34
HETATM   34  O   UNL     1      28.835  39.357  50.630  1.00  0.00    -0.323 OA
HETATM   35  C   UNL     1      29.267  38.355  49.710  1.00  0.00     0.213 C 
ENDBRANCH  32  34
ENDBRANCH   1  32
TORSDOF 7
ENDMDL
MODEL 3
REMARK VINA RESULT:      -9.6      2.500      4.786
REMARK  7 active torsions:
REMARK  status: ('A' for Active; 'I' for Inactive)
REMARK    1  A    between atoms: O_2  and  C_3 
REMARK    2  A    between atoms: C_3  and  C_4 
REMARK    3  A    between atoms: C_6  and  N_7 
REMARK       I    between atoms: N_7  and  C_8 
REMARK    4  A    between atoms: C_8  and  C_9 
REMARK    5  A    between atoms: C_17  and  C_18 
REMARK    6  A    between atoms: C_18  and  N_19 
REMARK       I    between atoms: N_19  and  C_20 
REMARK    7  A    between atoms: C_20  and  C_21 
ROOT
HETATM    1  C   UNL     1      26.053  46.192  52.739  1.00  0.00     0.042 A 
HETATM    2  C   UNL     1      26.451  44.952  52.216  1.00  0.00     0.047 A 
HETATM    3  C   UNL     1      26.255  44.658  50.865  1.00  0.00     0.036 A 
HETATM    4  C   UNL     1      25.656  45.620  50.039  1.00  0.00     0.038 A 
HETATM    5  C   UNL     1      25.278  46.878  50.538  1.00  0.00    -0.037 A 
HETATM    6  C   UNL     1      25.462  47.146  51.899  1.00  0.00     0.026 A 
ENDROOT
BRANCH   5   7
HETATM    7  C   UNL     1      24.713  47.927  49.619  1.00  0.00     0.161 C 
BRANCH   7   8
HETATM    8  N   UNL     1      23.318  48.185  49.870  1.00  0.00    -0.351 N 
HETATM    9  C   UNL     1      22.420  48.394  48.854  1.00  0.00     0.270 C 
HETATM   10  O   UNL     1      22.717  48.229  47.675  1.00  0.00    -0.266 OA
HETATM   11  H   UNL     1      22.993  48.160  50.822  1.00  0.00     0.163 HD
BRANCH   9  12
HETATM   12  C   UNL     1      21.103  48.824  49.254  1.00  0.00     0.126 A 
HETATM   13  N   UNL     1      20.210  47.915  49.771  1.00  0.00    -0.272 N 
HETATM   14  H   UNL     1      20.377  46.925  49.922  1.00  0.00     0.189 HD
HETATM   15  N   UNL     1      19.008  48.425  50.083  1.00  0.00    -0.178 NA
HETATM   16  C   UNL     1      19.119  49.706  49.736  1.00  0.00     0.063 A 
HETATM   17  C   UNL     1      20.399  50.018  49.208  1.00  0.00     0.002 A 
HETATM   18  C   UNL     1      17.991  50.672  49.835  1.00  0.00     0.062 C 
HETATM   19  C   UNL     1      20.750  51.385  48.732  1.00  0.00     0.043 C 
HETATM   20  C   UNL     1      19.495  52.253  48.521  1.00  0.00     0.005 C 
HETATM   21  C   UNL     1      18.490  52.117  49.678  1.00  0.00     0.006 C 
ENDBRANCH   9  12
ENDBRANCH   7   8
ENDBRANCH   5   7
BRANCH   3  22
HETATM   22  N   UNL     1      26.658  43.450  50.252  1.00  0.00    -0.323 N 
HETATM   23  C   UNL     1      25.983  42.241  50.257  1.00  0.00     0.256 C 
HETATM   24  O   UNL     1      24.857  42.040  50.698  1.00  0.00    -0.267 OA
HETATM   25  H   UNL     1      27.529  43.497  49.740  1.00  0.00     0.169 HD
BRANCH  23  26
HETATM   26  C   UNL     1      26.707  41.087  49.646  1.00  0.00     0.035 A 
HETATM   27  C   UNL     1      26.554  39.776  50.102  1.00  0.00     0.036 A 
HETATM   28  C   UNL     1      27.252  38.777  49.446  1.00  0.00     0.117 A 
HETATM   29  N   UNL     1      28.063  38.995  48.390  1.00  0.00    -0.273 NA
HETATM   30  C   UNL     1      28.174  40.266  47.953  1.00  0.00     0.117 A 
HETATM   31  C   UNL     1      27.524  41.335  48.540  1.00  0.00     0.036 A 
ENDBRANCH  23  26
ENDBRANCH   3  22
BRANCH   1  32
HETATM   32  C   UNL     1      26.254  46.555  54.168  1.00  0.00     0.293 C 
HETATM   33  O   UNL     1      25.798  47.573  54.668  1.00  0.00    -0.259 OA
BRANCH  32  34
HETATM   34  O   UNL     1      27.025  45.636  54.796  1.00  0.00    -0.323 OA
HETATM   35  C   UNL     1      28.312  46.115  55.185  1.00  0.00     0.213 C 
ENDBRANCH  32  34
ENDBRANCH   1  32
TORSDOF 7
ENDMDL
MODEL 4
REMARK VINA RESULT:      -9.5      2.205     10.052
REMARK  7 active torsions:
REMARK  status: ('A' for Active; 'I' for Inactive)
REMARK    1  A    between atoms: O_2  and  C_3 
REMARK    2  A    between atoms: C_3  and  C_4 
REMARK    3  A    between atoms: C_6  and  N_7 
REMARK       I    between atoms: N_7  and  C_8 
REMARK    4  A    between atoms: C_8  and  C_9 
REMARK    5  A    between atoms: C_17  and  C_18 
REMARK    6  A    between atoms: C_18  and  N_19 
REMARK       I    between atoms: N_19  and  C_20 
REMARK    7  A    between atoms: C_20  and  C_21 
ROOT
HETATM    1  C   UNL     1      26.317  47.300  49.493  1.00  0.00     0.042 A 
HETATM    2  C   UNL     1      25.186  48.127  49.426  1.00  0.00     0.047 A 
HETATM    3  C   UNL     1      23.920  47.622  49.731  1.00  0.00     0.036 A 
HETATM    4  C   UNL     1      23.798  46.276  50.109  1.00  0.00     0.038 A 
HETATM    5  C   UNL     1      24.922  45.441  50.210  1.00  0.00    -0.037 A 
HETATM    6  C   UNL     1      26.178  45.959  49.878  1.00  0.00     0.026 A 
ENDROOT
BRANCH   5   7
HETATM    7  C   UNL     1      24.781  44.024  50.697  1.00  0.00     0.161 C 
BRANCH   7   8
HETATM    8  N   UNL     1      25.927  43.585  51.451  1.00  0.00    -0.351 N 
HETATM    9  C   UNL     1      26.012  43.747  52.812  1.00  0.00     0.270 C 
HETATM   10  O   UNL     1      25.062  44.137  53.484  1.00  0.00    -0.266 OA
HETATM   11  H   UNL     1      26.662  43.100  50.963  1.00  0.00     0.163 HD
BRANCH   9  12
HETATM   12  C   UNL     1      27.286  43.433  53.407  1.00  0.00     0.126 A 
HETATM   13  N   UNL     1      27.855  42.197  53.204  1.00  0.00    -0.272 N 
HETATM   14  H   UNL     1      27.469  41.440  52.649  1.00  0.00     0.189 HD
HETATM   15  N   UNL     1      29.029  42.011  53.829  1.00  0.00    -0.178 NA
HETATM   16  C   UNL     1      29.217  43.159  54.476  1.00  0.00     0.063 A 
HETATM   17  C   UNL     1      28.165  44.086  54.258  1.00  0.00     0.002 A 
HETATM   18  C   UNL     1      30.377  43.399  55.378  1.00  0.00     0.062 C 
HETATM   19  C   UNL     1      28.147  45.431  54.897  1.00  0.00     0.043 C 
HETATM   20  C   UNL     1      29.144  45.518  56.068  1.00  0.00     0.005 C 
HETATM   21  C   UNL     1      30.506  44.891  55.722  1.00  0.00     0.006 C 
ENDBRANCH   9  12
ENDBRANCH   7   8
ENDBRANCH   5   7
BRANCH   3  22
HETATM   22  N   UNL     1      22.737  48.395  49.723  1.00  0.00    -0.323 N 
HETATM   23  C   UNL     1      21.959  48.726  48.626  1.00  0.00     0.256 C 
HETATM   24  O   UNL     1      22.100  48.306  47.483  1.00  0.00    -0.267 OA
HETATM   25  H   UNL     1      22.426  48.716  50.631  1.00  0.00     0.169 HD
BRANCH  23  26
HETATM   26  C   UNL     1      20.835  49.673  48.886  1.00  0.00     0.035 A 
HETATM   27  C   UNL     1      19.702  49.314  49.618  1.00  0.00     0.036 A 
HETATM   28  C   UNL     1      18.731  50.279  49.823  1.00  0.00     0.117 A 
HETATM   29  N   UNL     1      18.820  51.545  49.365  1.00  0.00    -0.273 NA
HETATM   30  C   UNL     1      19.936  51.874  48.683  1.00  0.00     0.117 A 
HETATM   31  C   UNL     1      20.961  50.984  48.420  1.00  0.00     0.036 A 
ENDBRANCH  23  26
ENDBRANCH   3  22
BRANCH   1  32
HETATM   32  C   UNL     1      27.686  47.797  49.189  1.00  0.00     0.293 C 
HETATM   33  O   UNL     1      28.539  47.112  48.644  1.00  0.00    -0.259 OA
BRANCH  32  34
HETATM   34  O   UNL     1      27.848  49.067  49.629  1.00  0.00    -0.323 OA
HETATM   35  C   UNL     1      27.518  50.069  48.667  1.00  0.00     0.213 C 
ENDBRANCH  32  34
ENDBRANCH   1  32
TORSDOF 7
ENDMDL
MODEL 5
REMARK VINA RESULT:      -9.3      1.839     10.193
REMARK  7 active torsions:
REMARK  status: ('A' for Active; 'I' for Inactive)
REMARK    1  A    between atoms: O_2  and  C_3 
REMARK    2  A    between atoms: C_3  and  C_4 
REMARK    3  A    between atoms: C_6  and  N_7 
REMARK       I    between atoms: N_7  and  C_8 
REMARK    4  A    between atoms: C_8  and  C_9 
REMARK    5  A    between atoms: C_17  and  C_18 
REMARK    6  A    between atoms: C_18  and  N_19 
REMARK       I    between atoms: N_19  and  C_20 
REMARK    7  A    between atoms: C_20  and  C_21 
ROOT
HETATM    1  C   UNL     1      25.483  44.696  49.987  1.00  0.00     0.042 A 
HETATM    2  C   UNL     1      24.498  45.464  49.350  1.00  0.00     0.047 A 
HETATM    3  C   UNL     1      24.065  46.668  49.910  1.00  0.00     0.036 A 
HETATM    4  C   UNL     1      24.633  47.098  51.119  1.00  0.00     0.038 A 
HETATM    5  C   UNL     1      25.642  46.358  51.756  1.00  0.00    -0.037 A 
HETATM    6  C   UNL     1      26.046  45.143  51.191  1.00  0.00     0.026 A 
ENDROOT
BRANCH   5   7
HETATM    7  C   UNL     1      26.297  46.877  53.007  1.00  0.00     0.161 C 
BRANCH   7   8
HETATM    8  N   UNL     1      27.206  45.922  53.589  1.00  0.00    -0.351 N 
HETATM    9  C   UNL     1      27.947  46.208  54.709  1.00  0.00     0.270 C 
HETATM   10  O   UNL     1      27.774  47.231  55.364  1.00  0.00    -0.266 OA
HETATM   11  H   UNL     1      27.255  45.002  53.184  1.00  0.00     0.163 HD
BRANCH   9  12
HETATM   12  C   UNL     1      28.947  45.234  55.069  1.00  0.00     0.126 A 
HETATM   13  N   UNL     1      29.158  44.135  54.268  1.00  0.00    -0.272 N 
HETATM   14  H   UNL     1      28.674  43.918  53.403  1.00  0.00     0.189 HD
HETATM   15  N   UNL     1      30.095  43.285  54.719  1.00  0.00    -0.178 NA
HETATM   16  C   UNL     1      30.490  43.842  55.861  1.00  0.00     0.063 A 
HETATM   17  C   UNL     1      29.811  45.057  56.139  1.00  0.00     0.002 A 
HETATM   18  C   UNL     1      31.489  43.210  56.767  1.00  0.00     0.062 C 
HETATM   19  C   UNL     1      30.072  45.848  57.374  1.00  0.00     0.043 C 
HETATM   20  C   UNL     1      30.824  45.019  58.432  1.00  0.00     0.005 C 
HETATM   21  C   UNL     1      31.983  44.210  57.823  1.00  0.00     0.006 C 
ENDBRANCH   9  12
ENDBRANCH   7   8
ENDBRANCH   5   7
BRANCH   3  22
HETATM   22  N   UNL     1      23.105  47.517  49.316  1.00  0.00    -0.323 N 
HETATM   23  C   UNL     1      23.232  48.871  49.052  1.00  0.00     0.256 C 
HETATM   24  O   UNL     1      24.248  49.544  49.184  1.00  0.00    -0.267 OA
HETATM   25  H   UNL     1      22.243  47.066  49.039  1.00  0.00     0.169 HD
BRANCH  23  26
HETATM   26  C   UNL     1      22.006  49.554  48.543  1.00  0.00     0.035 A 
HETATM   27  C   UNL     1      21.083  48.920  47.708  1.00  0.00     0.036 A 
HETATM   28  C   UNL     1      19.965  49.636  47.316  1.00  0.00     0.117 A 
HETATM   29  N   UNL     1      19.713  50.905  47.699  1.00  0.00    -0.273 NA
HETATM   30  C   UNL     1      20.607  51.486  48.526  1.00  0.00     0.117 A 
HETATM   31  C   UNL     1      21.755  50.859  48.972  1.00  0.00     0.036 A 
ENDBRANCH  23  26
ENDBRANCH   3  22
BRANCH   1  32
HETATM   32  C   UNL     1      25.985  43.414  49.422  1.00  0.00     0.293 C 
HETATM   33  O   UNL     1      27.169  43.188  49.227  1.00  0.00    -0.259 OA
BRANCH  32  34
HETATM   34  O   UNL     1      24.957  42.581  49.130  1.00  0.00    -0.323 OA
HETATM   35  C   UNL     1      25.251  41.618  48.117  1.00  0.00     0.213 C 
ENDBRANCH  32  34
ENDBRANCH   1  32
TORSDOF 7
ENDMDL
MODEL 6
REMARK VINA RESULT:      -9.3      2.312      3.711
REMARK  7 active torsions:
REMARK  status: ('A' for Active; 'I' for Inactive)
REMARK    1  A    between atoms: O_2  and  C_3 
REMARK    2  A    between atoms: C_3  and  C_4 
REMARK    3  A    between atoms: C_6  and  N_7 
REMARK       I    between atoms: N_7  and  C_8 
REMARK    4  A    between atoms: C_8  and  C_9 
REMARK    5  A    between atoms: C_17  and  C_18 
REMARK    6  A    between atoms: C_18  and  N_19 
REMARK       I    between atoms: N_19  and  C_20 
REMARK    7  A    between atoms: C_20  and  C_21 
ROOT
HETATM    1  C   UNL     1      24.975  47.236  50.135  1.00  0.00     0.042 A 
HETATM    2  C   UNL     1      25.970  46.879  51.057  1.00  0.00     0.047 A 
HETATM    3  C   UNL     1      25.974  45.609  51.639  1.00  0.00     0.036 A 
HETATM    4  C   UNL     1      24.969  44.697  51.286  1.00  0.00     0.038 A 
HETATM    5  C   UNL     1      23.981  45.025  50.343  1.00  0.00    -0.037 A 
HETATM    6  C   UNL     1      23.981  46.310  49.788  1.00  0.00     0.026 A 
ENDROOT
BRANCH   5   7
HETATM    7  C   UNL     1      22.961  44.005  49.916  1.00  0.00     0.161 C 
BRANCH   7   8
HETATM    8  N   UNL     1      21.646  44.573  49.762  1.00  0.00    -0.351 N 
HETATM    9  C   UNL     1      21.072  44.762  48.530  1.00  0.00     0.270 C 
HETATM   10  O   UNL     1      21.577  44.326  47.500  1.00  0.00    -0.266 OA
HETATM   11  H   UNL     1      21.120  44.789  50.593  1.00  0.00     0.163 HD
BRANCH   9  12
HETATM   12  C   UNL     1      19.838  45.507  48.516  1.00  0.00     0.126 A 
HETATM   13  N   UNL     1      18.650  44.867  48.253  1.00  0.00    -0.272 N 
HETATM   14  H   UNL     1      18.527  43.877  48.064  1.00  0.00     0.189 HD
HETATM   15  N   UNL     1      17.572  45.668  48.240  1.00  0.00    -0.178 NA
HETATM   16  C   UNL     1      18.083  46.873  48.484  1.00  0.00     0.063 A 
HETATM   17  C   UNL     1      19.491  46.842  48.662  1.00  0.00     0.002 A 
HETATM   18  C   UNL     1      17.259  48.113  48.499  1.00  0.00     0.062 C 
HETATM   19  C   UNL     1      20.285  48.074  48.924  1.00  0.00     0.043 C 
HETATM   20  C   UNL     1      19.485  49.348  48.591  1.00  0.00     0.005 C 
HETATM   21  C   UNL     1      18.040  49.283  49.116  1.00  0.00     0.006 C 
ENDBRANCH   9  12
ENDBRANCH   7   8
ENDBRANCH   5   7
BRANCH   3  22
HETATM   22  N   UNL     1      26.958  45.159  52.548  1.00  0.00    -0.323 N 
HETATM   23  C   UNL     1      27.100  45.520  53.877  1.00  0.00     0.256 C 
HETATM   24  O   UNL     1      26.323  46.208  54.529  1.00  0.00    -0.267 OA
HETATM   25  H   UNL     1      27.610  44.481  52.175  1.00  0.00     0.169 HD
BRANCH  23  26
HETATM   26  C   UNL     1      28.315  44.997  54.568  1.00  0.00     0.035 A 
HETATM   27  C   UNL     1      28.884  43.760  54.257  1.00  0.00     0.036 A 
HETATM   28  C   UNL     1      30.028  43.383  54.940  1.00  0.00     0.117 A 
HETATM   29  N   UNL     1      30.627  44.142  55.881  1.00  0.00    -0.273 NA
HETATM   30  C   UNL     1      30.072  45.344  56.145  1.00  0.00     0.117 A 
HETATM   31  C   UNL     1      28.930  45.811  55.523  1.00  0.00     0.036 A 
ENDBRANCH  23  26
ENDBRANCH   3  22
BRANCH   1  32
HETATM   32  C   UNL     1      24.938  48.571  49.479  1.00  0.00     0.293 C 
HETATM   33  O   UNL     1      23.940  49.275  49.454  1.00  0.00    -0.259 OA
BRANCH  32  34
HETATM   34  O   UNL     1      26.129  48.858  48.900  1.00  0.00    -0.323 OA
HETATM   35  C   UNL     1      26.092  49.965  47.999  1.00  0.00     0.213 C 
ENDBRANCH  32  34
ENDBRANCH   1  32
TORSDOF 7
ENDMDL
MODEL 7
REMARK VINA RESULT:      -9.1      2.214     10.286
REMARK  7 active torsions:
REMARK  status: ('A' for Active; 'I' for Inactive)
REMARK    1  A    between atoms: O_2  and  C_3 
REMARK    2  A    between atoms: C_3  and  C_4 
REMARK    3  A    between atoms: C_6  and  N_7 
REMARK       I    between atoms: N_7  and  C_8 
REMARK    4  A    between atoms: C_8  and  C_9 
REMARK    5  A    between atoms: C_17  and  C_18 
REMARK    6  A    between atoms: C_18  and  N_19 
REMARK       I    between atoms: N_19  and  C_20 
REMARK    7  A    between atoms: C_20  and  C_21 
ROOT
HETATM    1  C   UNL     1      26.170  47.886  49.442  1.00  0.00     0.042 A 
HETATM    2  C   UNL     1      24.934  48.499  49.187  1.00  0.00     0.047 A 
HETATM    3  C   UNL     1      23.749  47.927  49.657  1.00  0.00     0.036 A 
HETATM    4  C   UNL     1      23.815  46.733  50.389  1.00  0.00     0.038 A 
HETATM    5  C   UNL     1      25.045  46.120  50.681  1.00  0.00    -0.037 A 
HETATM    6  C   UNL     1      26.218  46.695  50.182  1.00  0.00     0.026 A 
ENDROOT
BRANCH   5   7
HETATM    7  C   UNL     1      25.100  44.885  51.538  1.00  0.00     0.161 C 
BRANCH   7   8
HETATM    8  N   UNL     1      26.220  44.895  52.445  1.00  0.00    -0.351 N 
HETATM    9  C   UNL     1      26.060  44.799  53.805  1.00  0.00     0.270 C 
HETATM   10  O   UNL     1      24.973  44.551  54.319  1.00  0.00    -0.266 OA
HETATM   11  H   UNL     1      27.148  44.923  52.056  1.00  0.00     0.163 HD
BRANCH   9  12
HETATM   12  C   UNL     1      27.246  45.009  54.597  1.00  0.00     0.126 A 
HETATM   13  N   UNL     1      27.370  46.146  55.361  1.00  0.00    -0.272 N 
HETATM   14  H   UNL     1      26.688  46.893  55.446  1.00  0.00     0.189 HD
HETATM   15  N   UNL     1      28.528  46.245  56.034  1.00  0.00    -0.178 NA
HETATM   16  C   UNL     1      29.185  45.144  55.677  1.00  0.00     0.063 A 
HETATM   17  C   UNL     1      28.442  44.333  54.779  1.00  0.00     0.002 A 
HETATM   18  C   UNL     1      30.573  44.847  56.128  1.00  0.00     0.062 C 
HETATM   19  C   UNL     1      28.983  43.060  54.226  1.00  0.00     0.043 C 
HETATM   20  C   UNL     1      30.508  42.958  54.421  1.00  0.00     0.005 C 
HETATM   21  C   UNL     1      30.945  43.386  55.833  1.00  0.00     0.006 C 
ENDBRANCH   9  12
ENDBRANCH   7   8
ENDBRANCH   5   7
BRANCH   3  22
HETATM   22  N   UNL     1      22.469  48.497  49.474  1.00  0.00    -0.323 N 
HETATM   23  C   UNL     1      22.108  49.822  49.655  1.00  0.00     0.256 C 
HETATM   24  O   UNL     1      22.867  50.755  49.893  1.00  0.00    -0.267 OA
HETATM   25  H   UNL     1      21.754  47.857  49.156  1.00  0.00     0.169 HD
BRANCH  23  26
HETATM   26  C   UNL     1      20.652  50.124  49.526  1.00  0.00     0.035 A 
HETATM   27  C   UNL     1      20.174  51.395  49.203  1.00  0.00     0.036 A 
HETATM   28  C   UNL     1      18.804  51.561  49.081  1.00  0.00     0.117 A 
HETATM   29  N   UNL     1      17.909  50.565  49.249  1.00  0.00    -0.273 NA
HETATM   30  C   UNL     1      18.399  49.341  49.535  1.00  0.00     0.117 A 
HETATM   31  C   UNL     1      19.747  49.072  49.682  1.00  0.00     0.036 A 
ENDBRANCH  23  26
ENDBRANCH   3  22
BRANCH   1  32
HETATM   32  C   UNL     1      27.458  48.464  48.973  1.00  0.00     0.293 C 
HETATM   33  O   UNL     1      28.404  47.781  48.610  1.00  0.00    -0.259 OA
BRANCH  32  34
HETATM   34  O   UNL     1      27.435  49.816  49.046  1.00  0.00    -0.323 OA
HETATM   35  C   UNL     1      26.628  50.445  48.051  1.00  0.00     0.213 C 
ENDBRANCH  32  34
ENDBRANCH   1  32
TORSDOF 7
ENDMDL
MODEL 8
REMARK VINA RESULT:      -9.1      4.086      8.302
REMARK  7 active torsions:
REMARK  status: ('A' for Active; 'I' for Inactive)
REMARK    1  A    between atoms: O_2  and  C_3 
REMARK    2  A    between atoms: C_3  and  C_4 
REMARK    3  A    between atoms: C_6  and  N_7 
REMARK       I    between atoms: N_7  and  C_8 
REMARK    4  A    between atoms: C_8  and  C_9 
REMARK    5  A    between atoms: C_17  and  C_18 
REMARK    6  A    between atoms: C_18  and  N_19 
REMARK       I    between atoms: N_19  and  C_20 
REMARK    7  A    between atoms: C_20  and  C_21 
ROOT
HETATM    1  C   UNL     1      25.361  46.508  51.016  1.00  0.00     0.042 A 
HETATM    2  C   UNL     1      26.340  46.478  52.020  1.00  0.00     0.047 A 
HETATM    3  C   UNL     1      26.596  45.300  52.725  1.00  0.00     0.036 A 
HETATM    4  C   UNL     1      25.861  44.147  52.411  1.00  0.00     0.038 A 
HETATM    5  C   UNL     1      24.898  44.150  51.389  1.00  0.00    -0.037 A 
HETATM    6  C   UNL     1      24.639  45.346  50.710  1.00  0.00     0.026 A 
ENDROOT
BRANCH   5   7
HETATM    7  C   UNL     1      24.179  42.883  51.012  1.00  0.00     0.161 C 
BRANCH   7   8
HETATM    8  N   UNL     1      25.086  41.804  50.712  1.00  0.00    -0.351 N 
HETATM    9  C   UNL     1      25.395  41.447  49.423  1.00  0.00     0.270 C 
HETATM   10  O   UNL     1      25.037  42.114  48.457  1.00  0.00    -0.266 OA
HETATM   11  H   UNL     1      25.541  41.337  51.479  1.00  0.00     0.163 HD
BRANCH   9  12
HETATM   12  C   UNL     1      26.164  40.238  49.270  1.00  0.00     0.126 A 
HETATM   13  N   UNL     1      25.703  39.226  48.461  1.00  0.00    -0.272 N 
HETATM   14  H   UNL     1      24.843  39.231  47.921  1.00  0.00     0.189 HD
HETATM   15  N   UNL     1      26.491  38.140  48.417  1.00  0.00    -0.178 NA
HETATM   16  C   UNL     1      27.487  38.450  49.244  1.00  0.00     0.063 A 
HETATM   17  C   UNL     1      27.341  39.743  49.812  1.00  0.00     0.002 A 
HETATM   18  C   UNL     1      28.588  37.505  49.575  1.00  0.00     0.062 C 
HETATM   19  C   UNL     1      28.323  40.298  50.783  1.00  0.00     0.043 C 
HETATM   20  C   UNL     1      29.233  39.199  51.363  1.00  0.00     0.005 C 
HETATM   21  C   UNL     1      29.743  38.232  50.281  1.00  0.00     0.006 C 
ENDBRANCH   9  12
ENDBRANCH   7   8
ENDBRANCH   5   7
BRANCH   3  22
HETATM   22  N   UNL     1      27.587  45.175  53.724  1.00  0.00    -0.323 N 
HETATM   23  C   UNL     1      28.710  44.365  53.695  1.00  0.00     0.256 C 
HETATM   24  O   UNL     1      29.100  43.699  52.743  1.00  0.00    -0.267 OA
HETATM   25  H   UNL     1      27.458  45.766  54.535  1.00  0.00     0.169 HD
BRANCH  23  26
HETATM   26  C   UNL     1      29.518  44.326  54.949  1.00  0.00     0.035 A 
HETATM   27  C   UNL     1      30.415  43.294  55.235  1.00  0.00     0.036 A 
HETATM   28  C   UNL     1      31.135  43.370  56.414  1.00  0.00     0.117 A 
HETATM   29  N   UNL     1      31.027  44.384  57.298  1.00  0.00    -0.273 NA
HETATM   30  C   UNL     1      30.172  45.381  56.987  1.00  0.00     0.117 A 
HETATM   31  C   UNL     1      29.405  45.398  55.838  1.00  0.00     0.036 A 
ENDBRANCH  23  26
ENDBRANCH   3  22
BRANCH   1  32
HETATM   32  C   UNL     1      25.063  47.736  50.230  1.00  0.00     0.293 C 
HETATM   33  O   UNL     1      23.935  48.186  50.096  1.00  0.00    -0.259 OA
BRANCH  32  34
HETATM   34  O   UNL     1      26.191  48.239  49.673  1.00  0.00    -0.323 OA
HETATM   35  C   UNL     1      25.965  49.296  48.740  1.00  0.00     0.213 C 
ENDBRANCH  32  34
ENDBRANCH   1  32
TORSDOF 7
ENDMDL
MODEL 9
REMARK VINA RESULT:      -9.0      2.754      4.303
REMARK  7 active torsions:
REMARK  status: ('A' for Active; 'I' for Inactive)
REMARK    1  A    between atoms: O_2  and  C_3 
REMARK    2  A    between atoms: C_3  and  C_4 
REMARK    3  A    between atoms: C_6  and  N_7 
REMARK       I    between atoms: N_7  and  C_8 
REMARK    4  A    between atoms: C_8  and  C_9 
REMARK    5  A    between atoms: C_17  and  C_18 
REMARK    6  A    between atoms: C_18  and  N_19 
REMARK       I    between atoms: N_19  and  C_20 
REMARK    7  A    between atoms: C_20  and  C_21 
ROOT
HETATM    1  C   UNL     1      27.559  40.393  50.090  1.00  0.00     0.042 A 
HETATM    2  C   UNL     1      28.287  41.018  51.114  1.00  0.00     0.047 A 
HETATM    3  C   UNL     1      27.962  42.313  51.525  1.00  0.00     0.036 A 
HETATM    4  C   UNL     1      26.896  42.977  50.901  1.00  0.00     0.038 A 
HETATM    5  C   UNL     1      26.138  42.357  49.895  1.00  0.00    -0.037 A 
HETATM    6  C   UNL     1      26.493  41.069  49.481  1.00  0.00     0.026 A 
ENDROOT
BRANCH   5   7
HETATM    7  C   UNL     1      24.946  43.054  49.295  1.00  0.00     0.161 C 
BRANCH   7   8
HETATM    8  N   UNL     1      25.075  44.489  49.329  1.00  0.00    -0.351 N 
HETATM    9  C   UNL     1      23.994  45.315  49.510  1.00  0.00     0.270 C 
HETATM   10  O   UNL     1      22.883  44.883  49.801  1.00  0.00    -0.266 OA
HETATM   11  H   UNL     1      25.998  44.887  49.267  1.00  0.00     0.163 HD
BRANCH   9  12
HETATM   12  C   UNL     1      24.240  46.725  49.336  1.00  0.00     0.126 A 
HETATM   13  N   UNL     1      25.415  47.279  49.788  1.00  0.00    -0.272 N 
HETATM   14  H   UNL     1      26.175  46.789  50.248  1.00  0.00     0.189 HD
HETATM   15  N   UNL     1      25.520  48.604  49.594  1.00  0.00    -0.178 NA
HETATM   16  C   UNL     1      24.365  48.922  49.015  1.00  0.00     0.063 A 
HETATM   17  C   UNL     1      23.520  47.796  48.829  1.00  0.00     0.002 A 
HETATM   18  C   UNL     1      23.991  50.321  48.669  1.00  0.00     0.062 C 
HETATM   19  C   UNL     1      22.166  47.912  48.220  1.00  0.00     0.043 C 
HETATM   20  C   UNL     1      21.675  49.371  48.198  1.00  0.00     0.005 C 
HETATM   21  C   UNL     1      22.770  50.348  47.736  1.00  0.00     0.006 C 
ENDBRANCH   9  12
ENDBRANCH   7   8
ENDBRANCH   5   7
BRANCH   3  22
HETATM   22  N   UNL     1      28.620  42.999  52.571  1.00  0.00    -0.323 N 
HETATM   23  C   UNL     1      28.207  43.116  53.887  1.00  0.00     0.256 C 
HETATM   24  O   UNL     1      27.252  42.545  54.401  1.00  0.00    -0.267 OA
HETATM   25  H   UNL     1      29.500  43.428  52.317  1.00  0.00     0.169 HD
BRANCH  23  26
HETATM   26  C   UNL     1      29.026  44.018  54.750  1.00  0.00     0.035 A 
HETATM   27  C   UNL     1      28.576  45.271  55.170  1.00  0.00     0.036 A 
HETATM   28  C   UNL     1      29.405  46.015  55.992  1.00  0.00     0.117 A 
HETATM   29  N   UNL     1      30.616  45.597  56.415  1.00  0.00    -0.273 NA
HETATM   30  C   UNL     1      31.017  44.372  56.016  1.00  0.00     0.117 A 
HETATM   31  C   UNL     1      30.266  43.553  55.194  1.00  0.00     0.036 A 
ENDBRANCH  23  26
ENDBRANCH   3  22
BRANCH   1  32
HETATM   32  C   UNL     1      27.860  39.011  49.628  1.00  0.00     0.293 C 
HETATM   33  O   UNL     1      27.021  38.124  49.582  1.00  0.00    -0.259 OA
BRANCH  32  34
HETATM   34  O   UNL     1      29.171  38.882  49.313  1.00  0.00    -0.323 OA
HETATM   35  C   UNL     1      29.833  37.807  49.982  1.00  0.00     0.213 C 
ENDBRANCH  32  34
ENDBRANCH   1  32
TORSDOF 7
ENDMDL
MODEL 10
REMARK VINA RESULT:      -8.9      2.597     10.209
REMARK  7 active torsions:
REMARK  status: ('A' for Active; 'I' for Inactive)
REMARK    1  A    between atoms: O_2  and  C_3 
REMARK    2  A    between atoms: C_3  and  C_4 
REMARK    3  A    between atoms: C_6  and  N_7 
REMARK       I    between atoms: N_7  and  C_8 
REMARK    4  A    between atoms: C_8  and  C_9 
REMARK    5  A    between atoms: C_17  and  C_18 
REMARK    6  A    between atoms: C_18  and  N_19 
REMARK       I    between atoms: N_19  and  C_20 
REMARK    7  A    between atoms: C_20  and  C_21 
ROOT
HETATM    1  C   UNL     1      25.611  47.440  49.530  1.00  0.00     0.042 A 
HETATM    2  C   UNL     1      24.244  47.513  49.223  1.00  0.00     0.047 A 
HETATM    3  C   UNL     1      23.416  46.404  49.412  1.00  0.00     0.036 A 
HETATM    4  C   UNL     1      23.971  45.219  49.915  1.00  0.00     0.038 A 
HETATM    5  C   UNL     1      25.331  45.136  50.256  1.00  0.00    -0.037 A 
HETATM    6  C   UNL     1      26.149  46.249  50.038  1.00  0.00     0.026 A 
ENDROOT
BRANCH   5   7
HETATM    7  C   UNL     1      25.890  43.882  50.872  1.00  0.00     0.161 C 
BRANCH   7   8
HETATM    8  N   UNL     1      26.791  44.159  51.962  1.00  0.00    -0.351 N 
HETATM    9  C   UNL     1      26.343  44.403  53.236  1.00  0.00     0.270 C 
HETATM   10  O   UNL     1      25.166  44.256  53.554  1.00  0.00    -0.266 OA
HETATM   11  H   UNL     1      27.781  44.120  51.784  1.00  0.00     0.163 HD
BRANCH   9  12
HETATM   12  C   UNL     1      27.336  44.848  54.180  1.00  0.00     0.126 A 
HETATM   13  N   UNL     1      27.217  46.082  54.775  1.00  0.00    -0.272 N 
HETATM   14  H   UNL     1      26.469  46.753  54.628  1.00  0.00     0.189 HD
HETATM   15  N   UNL     1      28.216  46.398  55.616  1.00  0.00    -0.178 NA
HETATM   16  C   UNL     1      29.020  45.339  55.548  1.00  0.00     0.063 A 
HETATM   17  C   UNL     1      28.531  44.339  54.667  1.00  0.00     0.002 A 
HETATM   18  C   UNL     1      30.318  45.262  56.272  1.00  0.00     0.062 C 
HETATM   19  C   UNL     1      29.274  43.073  54.413  1.00  0.00     0.043 C 
HETATM   20  C   UNL     1      30.738  43.169  54.882  1.00  0.00     0.005 C 
HETATM   21  C   UNL     1      30.864  43.826  56.268  1.00  0.00     0.006 C 
ENDBRANCH   9  12
ENDBRANCH   7   8
ENDBRANCH   5   7
BRANCH   3  22
HETATM   22  N   UNL     1      22.025  46.405  49.162  1.00  0.00    -0.323 N 
HETATM   23  C   UNL     1      21.393  46.531  47.936  1.00  0.00     0.256 C 
HETATM   24  O   UNL     1      21.937  46.547  46.838  1.00  0.00    -0.267 OA
HETATM   25  H   UNL     1      21.441  46.278  49.978  1.00  0.00     0.169 HD
BRANCH  23  26
HETATM   26  C   UNL     1      19.905  46.639  47.978  1.00  0.00     0.035 A 
HETATM   27  C   UNL     1      19.067  45.525  47.893  1.00  0.00     0.036 A 
HETATM   28  C   UNL     1      17.701  45.735  47.969  1.00  0.00     0.117 A 
HETATM   29  N   UNL     1      17.134  46.949  48.128  1.00  0.00    -0.273 NA
HETATM   30  C   UNL     1      17.966  48.006  48.233  1.00  0.00     0.117 A 
HETATM   31  C   UNL     1      19.343  47.904  48.165  1.00  0.00     0.036 A 
ENDBRANCH  23  26
ENDBRANCH   3  22
BRANCH   1  32
HETATM   32  C   UNL     1      26.530  48.598  49.357  1.00  0.00     0.293 C 
HETATM   33  O   UNL     1      27.744  48.508  49.457  1.00  0.00    -0.259 OA
BRANCH  32  34
HETATM   34  O   UNL     1      25.834  49.735  49.120  1.00  0.00    -0.323 OA
HETATM   35  C   UNL     1      25.875  50.177  47.763  1.00  0.00     0.213 C 
ENDBRANCH  32  34
ENDBRANCH   1  32
TORSDOF 7
ENDMDL
