MODEL 1
REMARK VINA RESULT:      -9.7      0.000      0.000
REMARK  4 active torsions:
REMARK  status: ('A' for Active; 'I' for Inactive)
REMARK    1  A    between atoms: C_3  and  N_4 
REMARK       I    between atoms: N_4  and  C_5 
REMARK    2  A    between atoms: C_5  and  C_6 
REMARK    3  A    between atoms: C_7  and  C_8 
REMARK    4  A    between atoms: C_19  and  C_20 
ROOT
HETATM    1  N   UNL     1      27.451  45.012  52.451  1.00  0.00    -0.324 N 
HETATM    2  C   UNL     1      26.089  44.801  52.371  1.00  0.00     0.245 C 
HETATM    3  O   UNL     1      25.448  43.900  52.897  1.00  0.00    -0.268 OA
HETATM    4  H   UNL     1      27.823  45.831  51.991  1.00  0.00     0.169 HD
ENDROOT
BRANCH   1   5
HETATM    5  C   UNL     1      28.404  44.194  53.100  1.00  0.00     0.035 A 
HETATM    6  C   UNL     1      28.877  42.988  52.581  1.00  0.00     0.029 A 
HETATM    7  C   UNL     1      29.840  42.249  53.270  1.00  0.00     0.003 A 
HETATM    8  C   UNL     1      30.339  42.708  54.489  1.00  0.00     0.012 A 
HETATM    9  C   UNL     1      29.876  43.910  55.034  1.00  0.00    -0.021 A 
HETATM   10  C   UNL     1      28.910  44.646  54.329  1.00  0.00     0.042 A 
BRANCH   9  11
HETATM   11  C   UNL     1      30.405  44.380  56.303  1.00  0.00     0.010 A 
HETATM   12  C   UNL     1      31.350  43.801  57.182  1.00  0.00     0.152 A 
HETATM   13  N   UNL     1      31.562  44.540  58.275  1.00  0.00    -0.187 NA
HETATM   14  N   UNL     1      30.745  45.591  58.106  1.00  0.00    -0.289 N 
HETATM   15  H   UNL     1      30.722  46.301  58.830  1.00  0.00     0.188 HD
HETATM   16  C   UNL     1      30.033  45.545  56.942  1.00  0.00     0.123 A 
ENDBRANCH   9  11
ENDBRANCH   1   5
BRANCH   2  17
HETATM   17  C   UNL     1      25.415  45.828  51.525  1.00  0.00     0.075 C 
HETATM   18  C   UNL     1      26.158  46.722  50.852  1.00  0.00     0.017 C 
BRANCH  18  19
HETATM   19  C   UNL     1      25.617  47.802  50.016  1.00  0.00    -0.035 A 
HETATM   20  C   UNL     1      24.222  47.927  49.907  1.00  0.00     0.021 A 
HETATM   21  C   UNL     1      23.704  48.899  49.066  1.00  0.00    -0.022 A 
HETATM   22  C   UNL     1      24.539  49.739  48.350  1.00  0.00     0.075 A 
HETATM   23  C   UNL     1      22.297  49.278  48.810  1.00  0.00     0.068 C 
HETATM   24  O   UNL     1      23.870  50.646  47.571  1.00  0.00    -0.350 OA
HETATM   25  C   UNL     1      25.911  49.649  48.437  1.00  0.00     0.038 A 
HETATM   26  C   UNL     1      22.508  50.154  47.575  1.00  0.00     0.180 C 
HETATM   27  C   UNL     1      26.451  48.662  49.268  1.00  0.00     0.014 A 
ENDBRANCH  18  19
ENDBRANCH   2  17
TORSDOF 4
ENDMDL
MODEL 2
REMARK VINA RESULT:      -8.8      6.032      9.707
REMARK  4 active torsions:
REMARK  status: ('A' for Active; 'I' for Inactive)
REMARK    1  A    between atoms: C_3  and  N_4 
REMARK       I    between atoms: N_4  and  C_5 
REMARK    2  A    between atoms: C_5  and  C_6 
REMARK    3  A    between atoms: C_7  and  C_8 
REMARK    4  A    between atoms: C_19  and  C_20 
ROOT
HETATM    1  N   UNL     1      28.819  40.150  51.104  1.00  0.00    -0.324 N 
HETATM    2  C   UNL     1      27.837  40.859  51.767  1.00  0.00     0.245 C 
HETATM    3  O   UNL     1      26.659  40.962  51.451  1.00  0.00    -0.268 OA
HETATM    4  H   UNL     1      29.739  40.128  51.521  1.00  0.00     0.169 HD
ENDROOT
BRANCH   1   5
HETATM    5  C   UNL     1      28.688  39.450  49.882  1.00  0.00     0.035 A 
HETATM    6  C   UNL     1      28.974  38.094  49.728  1.00  0.00     0.029 A 
HETATM    7  C   UNL     1      28.794  37.467  48.494  1.00  0.00     0.003 A 
HETATM    8  C   UNL     1      28.329  38.193  47.398  1.00  0.00     0.012 A 
HETATM    9  C   UNL     1      28.041  39.556  47.524  1.00  0.00    -0.021 A 
HETATM   10  C   UNL     1      28.222  40.174  48.773  1.00  0.00     0.042 A 
BRANCH   9  11
HETATM   11  C   UNL     1      27.553  40.303  46.378  1.00  0.00     0.010 A 
HETATM   12  C   UNL     1      28.225  40.760  45.219  1.00  0.00     0.152 A 
HETATM   13  N   UNL     1      27.426  41.439  44.391  1.00  0.00    -0.187 NA
HETATM   14  N   UNL     1      26.241  41.429  45.021  1.00  0.00    -0.289 N 
HETATM   15  H   UNL     1      25.460  41.903  44.579  1.00  0.00     0.188 HD
HETATM   16  C   UNL     1      26.263  40.761  46.211  1.00  0.00     0.123 A 
ENDBRANCH   9  11
ENDBRANCH   1   5
BRANCH   2  17
HETATM   17  C   UNL     1      28.368  41.542  52.983  1.00  0.00     0.075 C 
HETATM   18  C   UNL     1      28.539  42.874  52.970  1.00  0.00     0.017 C 
BRANCH  18  19
HETATM   19  C   UNL     1      29.085  43.658  54.086  1.00  0.00    -0.035 A 
HETATM   20  C   UNL     1      30.114  43.095  54.859  1.00  0.00     0.021 A 
HETATM   21  C   UNL     1      30.586  43.799  55.955  1.00  0.00    -0.022 A 
HETATM   22  C   UNL     1      30.064  45.039  56.283  1.00  0.00     0.075 A 
HETATM   23  C   UNL     1      31.683  43.470  56.892  1.00  0.00     0.068 C 
HETATM   24  O   UNL     1      30.643  45.604  57.389  1.00  0.00    -0.350 OA
HETATM   25  C   UNL     1      29.059  45.624  55.544  1.00  0.00     0.038 A 
HETATM   26  C   UNL     1      31.391  44.511  57.973  1.00  0.00     0.180 C 
HETATM   27  C   UNL     1      28.559  44.919  54.444  1.00  0.00     0.014 A 
ENDBRANCH  18  19
ENDBRANCH   2  17
TORSDOF 4
ENDMDL
MODEL 3
REMARK VINA RESULT:      -8.7      3.333      9.452
REMARK  4 active torsions:
REMARK  status: ('A' for Active; 'I' for Inactive)
REMARK    1  A    between atoms: C_3  and  N_4 
REMARK       I    between atoms: N_4  and  C_5 
REMARK    2  A    between atoms: C_5  and  C_6 
REMARK    3  A    between atoms: C_7  and  C_8 
REMARK    4  A    between atoms: C_19  and  C_20 
ROOT
HETATM    1  N   UNL     1      25.866  44.897  51.043  1.00  0.00    -0.324 N 
HETATM    2  C   UNL     1      26.937  44.117  50.652  1.00  0.00     0.245 C 
HETATM    3  O   UNL     1      27.119  43.608  49.554  1.00  0.00    -0.268 OA
HETATM    4  H   UNL     1      25.886  45.280  51.977  1.00  0.00     0.169 HD
ENDROOT
BRANCH   1   5
HETATM    5  C   UNL     1      24.719  45.214  50.280  1.00  0.00     0.035 A 
HETATM    6  C   UNL     1      23.710  44.300  49.974  1.00  0.00     0.029 A 
HETATM    7  C   UNL     1      22.593  44.697  49.238  1.00  0.00     0.003 A 
HETATM    8  C   UNL     1      22.475  46.014  48.794  1.00  0.00     0.012 A 
HETATM    9  C   UNL     1      23.476  46.948  49.081  1.00  0.00    -0.021 A 
HETATM   10  C   UNL     1      24.593  46.537  49.827  1.00  0.00     0.042 A 
BRANCH   9  11
HETATM   11  C   UNL     1      23.342  48.318  48.617  1.00  0.00     0.010 A 
HETATM   12  C   UNL     1      22.267  48.974  47.972  1.00  0.00     0.152 A 
HETATM   13  N   UNL     1      22.538  50.250  47.681  1.00  0.00    -0.187 NA
HETATM   14  N   UNL     1      23.792  50.413  48.130  1.00  0.00    -0.289 N 
HETATM   15  H   UNL     1      24.229  51.321  48.009  1.00  0.00     0.188 HD
HETATM   16  C   UNL     1      24.317  49.290  48.700  1.00  0.00     0.123 A 
ENDBRANCH   9  11
ENDBRANCH   1   5
BRANCH   2  17
HETATM   17  C   UNL     1      27.921  43.928  51.758  1.00  0.00     0.075 C 
HETATM   18  C   UNL     1      27.683  44.485  52.957  1.00  0.00     0.017 C 
BRANCH  18  19
HETATM   19  C   UNL     1      28.586  44.402  54.113  1.00  0.00    -0.035 A 
HETATM   20  C   UNL     1      28.401  45.307  55.171  1.00  0.00     0.021 A 
HETATM   21  C   UNL     1      29.290  45.282  56.233  1.00  0.00    -0.022 A 
HETATM   22  C   UNL     1      30.339  44.379  56.262  1.00  0.00     0.075 A 
HETATM   23  C   UNL     1      29.296  46.073  57.483  1.00  0.00     0.068 C 
HETATM   24  O   UNL     1      31.121  44.479  57.381  1.00  0.00    -0.350 OA
HETATM   25  C   UNL     1      30.547  43.472  55.244  1.00  0.00     0.038 A 
HETATM   26  C   UNL     1      30.705  45.734  57.972  1.00  0.00     0.180 C 
HETATM   27  C   UNL     1      29.668  43.496  54.156  1.00  0.00     0.014 A 
ENDBRANCH  18  19
ENDBRANCH   2  17
TORSDOF 4
ENDMDL
MODEL 4
REMARK VINA RESULT:      -8.7      4.547      8.046
REMARK  4 active torsions:
REMARK  status: ('A' for Active; 'I' for Inactive)
REMARK    1  A    between atoms: C_3  and  N_4 
REMARK       I    between atoms: N_4  and  C_5 
REMARK    2  A    between atoms: C_5  and  C_6 
REMARK    3  A    between atoms: C_7  and  C_8 
REMARK    4  A    between atoms: C_19  and  C_20 
ROOT
HETATM    1  N   UNL     1      23.440  50.072  48.357  1.00  0.00    -0.324 N 
HETATM    2  C   UNL     1      22.597  50.744  49.219  1.00  0.00     0.245 C 
HETATM    3  O   UNL     1      22.849  51.118  50.357  1.00  0.00    -0.268 OA
HETATM    4  H   UNL     1      23.093  49.871  47.429  1.00  0.00     0.169 HD
ENDROOT
BRANCH   1   5
HETATM    5  C   UNL     1      24.748  49.611  48.629  1.00  0.00     0.035 A 
HETATM    6  C   UNL     1      25.906  50.267  48.213  1.00  0.00     0.029 A 
HETATM    7  C   UNL     1      27.165  49.762  48.545  1.00  0.00     0.003 A 
HETATM    8  C   UNL     1      27.278  48.593  49.295  1.00  0.00     0.012 A 
HETATM    9  C   UNL     1      26.132  47.912  49.719  1.00  0.00    -0.021 A 
HETATM   10  C   UNL     1      24.872  48.432  49.383  1.00  0.00     0.042 A 
BRANCH   9  11
HETATM   11  C   UNL     1      26.261  46.696  50.504  1.00  0.00     0.010 A 
HETATM   12  C   UNL     1      26.671  45.395  50.130  1.00  0.00     0.152 A 
HETATM   13  N   UNL     1      26.637  44.528  51.147  1.00  0.00    -0.187 NA
HETATM   14  N   UNL     1      26.194  45.269  52.174  1.00  0.00    -0.289 N 
HETATM   15  H   UNL     1      26.072  44.816  53.074  1.00  0.00     0.188 HD
HETATM   16  C   UNL     1      25.956  46.572  51.844  1.00  0.00     0.123 A 
ENDBRANCH   9  11
ENDBRANCH   1   5
BRANCH   2  17
HETATM   17  C   UNL     1      21.257  50.990  48.610  1.00  0.00     0.075 C 
HETATM   18  C   UNL     1      20.260  51.463  49.376  1.00  0.00     0.017 C 
BRANCH  18  19
HETATM   19  C   UNL     1      18.890  51.714  48.907  1.00  0.00    -0.035 A 
HETATM   20  C   UNL     1      18.643  51.691  47.524  1.00  0.00     0.021 A 
HETATM   21  C   UNL     1      17.370  51.994  47.070  1.00  0.00    -0.022 A 
HETATM   22  C   UNL     1      16.353  52.307  47.956  1.00  0.00     0.075 A 
HETATM   23  C   UNL     1      16.830  51.990  45.692  1.00  0.00     0.068 C 
HETATM   24  O   UNL     1      15.156  52.575  47.347  1.00  0.00    -0.350 OA
HETATM   25  C   UNL     1      16.558  52.332  49.319  1.00  0.00     0.038 A 
HETATM   26  C   UNL     1      15.513  52.723  45.952  1.00  0.00     0.180 C 
HETATM   27  C   UNL     1      17.842  52.045  49.793  1.00  0.00     0.014 A 
ENDBRANCH  18  19
ENDBRANCH   2  17
TORSDOF 4
ENDMDL
MODEL 5
REMARK VINA RESULT:      -8.5      3.055      4.633
REMARK  4 active torsions:
REMARK  status: ('A' for Active; 'I' for Inactive)
REMARK    1  A    between atoms: C_3  and  N_4 
REMARK       I    between atoms: N_4  and  C_5 
REMARK    2  A    between atoms: C_5  and  C_6 
REMARK    3  A    between atoms: C_7  and  C_8 
REMARK    4  A    between atoms: C_19  and  C_20 
ROOT
HETATM    1  N   UNL     1      24.874  46.889  51.376  1.00  0.00    -0.324 N 
HETATM    2  C   UNL     1      25.182  47.538  50.197  1.00  0.00     0.245 C 
HETATM    3  O   UNL     1      26.292  47.877  49.809  1.00  0.00    -0.268 OA
HETATM    4  H   UNL     1      23.908  46.638  51.531  1.00  0.00     0.169 HD
ENDROOT
BRANCH   1   5
HETATM    5  C   UNL     1      25.766  46.540  52.417  1.00  0.00     0.035 A 
HETATM    6  C   UNL     1      25.986  47.326  53.548  1.00  0.00     0.029 A 
HETATM    7  C   UNL     1      26.864  46.900  54.547  1.00  0.00     0.003 A 
HETATM    8  C   UNL     1      27.535  45.684  54.422  1.00  0.00     0.012 A 
HETATM    9  C   UNL     1      27.337  44.881  53.294  1.00  0.00    -0.021 A 
HETATM   10  C   UNL     1      26.448  45.318  52.298  1.00  0.00     0.042 A 
BRANCH   9  11
HETATM   11  C   UNL     1      28.038  43.614  53.175  1.00  0.00     0.010 A 
HETATM   12  C   UNL     1      27.830  42.378  53.831  1.00  0.00     0.152 A 
HETATM   13  N   UNL     1      28.708  41.441  53.462  1.00  0.00    -0.187 NA
HETATM   14  N   UNL     1      29.489  42.077  52.574  1.00  0.00    -0.289 N 
HETATM   15  H   UNL     1      30.254  41.560  52.153  1.00  0.00     0.188 HD
HETATM   16  C   UNL     1      29.129  43.377  52.365  1.00  0.00     0.123 A 
ENDBRANCH   9  11
ENDBRANCH   1   5
BRANCH   2  17
HETATM   17  C   UNL     1      23.965  47.817  49.381  1.00  0.00     0.075 C 
HETATM   18  C   UNL     1      23.350  49.005  49.497  1.00  0.00     0.017 C 
BRANCH  18  19
HETATM   19  C   UNL     1      22.128  49.390  48.777  1.00  0.00    -0.035 A 
HETATM   20  C   UNL     1      21.581  50.660  49.022  1.00  0.00     0.021 A 
HETATM   21  C   UNL     1      20.392  51.005  48.400  1.00  0.00    -0.022 A 
HETATM   22  C   UNL     1      19.753  50.121  47.546  1.00  0.00     0.075 A 
HETATM   23  C   UNL     1      19.636  52.276  48.437  1.00  0.00     0.068 C 
HETATM   24  O   UNL     1      18.594  50.615  47.010  1.00  0.00    -0.350 OA
HETATM   25  C   UNL     1      20.264  48.869  47.279  1.00  0.00     0.038 A 
HETATM   26  C   UNL     1      18.329  51.794  47.808  1.00  0.00     0.180 C 
HETATM   27  C   UNL     1      21.456  48.500  47.911  1.00  0.00     0.014 A 
ENDBRANCH  18  19
ENDBRANCH   2  17
TORSDOF 4
ENDMDL
MODEL 6
REMARK VINA RESULT:      -8.4      4.957      7.080
REMARK  4 active torsions:
REMARK  status: ('A' for Active; 'I' for Inactive)
REMARK    1  A    between atoms: C_3  and  N_4 
REMARK       I    between atoms: N_4  and  C_5 
REMARK    2  A    between atoms: C_5  and  C_6 
REMARK    3  A    between atoms: C_7  and  C_8 
REMARK    4  A    between atoms: C_19  and  C_20 
ROOT
HETATM    1  N   UNL     1      28.599  42.721  52.589  1.00  0.00    -0.324 N 
HETATM    2  C   UNL     1      28.194  41.419  52.803  1.00  0.00     0.245 C 
HETATM    3  O   UNL     1      27.660  40.967  53.808  1.00  0.00    -0.268 OA
HETATM    4  H   UNL     1      28.986  42.945  51.683  1.00  0.00     0.169 HD
ENDROOT
BRANCH   1   5
HETATM    5  C   UNL     1      28.548  43.793  53.510  1.00  0.00     0.035 A 
HETATM    6  C   UNL     1      27.652  44.857  53.415  1.00  0.00     0.029 A 
HETATM    7  C   UNL     1      27.644  45.866  54.380  1.00  0.00     0.003 A 
HETATM    8  C   UNL     1      28.538  45.822  55.449  1.00  0.00     0.012 A 
HETATM    9  C   UNL     1      29.452  44.770  55.563  1.00  0.00    -0.021 A 
HETATM   10  C   UNL     1      29.446  43.758  54.588  1.00  0.00     0.042 A 
BRANCH   9  11
HETATM   11  C   UNL     1      30.377  44.732  56.683  1.00  0.00     0.010 A 
HETATM   12  C   UNL     1      31.407  43.815  56.999  1.00  0.00     0.152 A 
HETATM   13  N   UNL     1      32.033  44.112  58.142  1.00  0.00    -0.187 NA
HETATM   14  N   UNL     1      31.398  45.215  58.568  1.00  0.00    -0.289 N 
HETATM   15  H   UNL     1      31.696  45.631  59.445  1.00  0.00     0.188 HD
HETATM   16  C   UNL     1      30.402  45.628  57.731  1.00  0.00     0.123 A 
ENDBRANCH   9  11
ENDBRANCH   1   5
BRANCH   2  17
HETATM   17  C   UNL     1      28.485  40.544  51.630  1.00  0.00     0.075 C 
HETATM   18  C   UNL     1      28.017  40.886  50.419  1.00  0.00     0.017 C 
BRANCH  18  19
HETATM   19  C   UNL     1      28.204  40.095  49.195  1.00  0.00    -0.035 A 
HETATM   20  C   UNL     1      27.916  40.698  47.959  1.00  0.00     0.021 A 
HETATM   21  C   UNL     1      28.024  39.939  46.805  1.00  0.00    -0.022 A 
HETATM   22  C   UNL     1      28.415  38.612  46.861  1.00  0.00     0.075 A 
HETATM   23  C   UNL     1      27.837  40.331  45.391  1.00  0.00     0.068 C 
HETATM   24  O   UNL     1      28.477  38.005  45.634  1.00  0.00    -0.350 OA
HETATM   25  C   UNL     1      28.711  37.990  48.055  1.00  0.00     0.038 A 
HETATM   26  C   UNL     1      27.797  38.939  44.762  1.00  0.00     0.180 C 
HETATM   27  C   UNL     1      28.591  38.738  49.230  1.00  0.00     0.014 A 
ENDBRANCH  18  19
ENDBRANCH   2  17
TORSDOF 4
ENDMDL
MODEL 7
REMARK VINA RESULT:      -8.4      1.741      2.562
REMARK  4 active torsions:
REMARK  status: ('A' for Active; 'I' for Inactive)
REMARK    1  A    between atoms: C_3  and  N_4 
REMARK       I    between atoms: N_4  and  C_5 
REMARK    2  A    between atoms: C_5  and  C_6 
REMARK    3  A    between atoms: C_7  and  C_8 
REMARK    4  A    between atoms: C_19  and  C_20 
ROOT
HETATM    1  N   UNL     1      25.750  45.448  51.873  1.00  0.00    -0.324 N 
HETATM    2  C   UNL     1      25.855  46.158  50.694  1.00  0.00     0.245 C 
HETATM    3  O   UNL     1      26.676  45.992  49.801  1.00  0.00    -0.268 OA
HETATM    4  H   UNL     1      24.985  45.682  52.490  1.00  0.00     0.169 HD
ENDROOT
BRANCH   1   5
HETATM    5  C   UNL     1      26.609  44.423  52.331  1.00  0.00     0.035 A 
HETATM    6  C   UNL     1      26.603  43.121  51.832  1.00  0.00     0.029 A 
HETATM    7  C   UNL     1      27.503  42.171  52.318  1.00  0.00     0.003 A 
HETATM    8  C   UNL     1      28.418  42.514  53.313  1.00  0.00     0.012 A 
HETATM    9  C   UNL     1      28.440  43.811  53.836  1.00  0.00    -0.021 A 
HETATM   10  C   UNL     1      27.532  44.759  53.335  1.00  0.00     0.042 A 
BRANCH   9  11
HETATM   11  C   UNL     1      29.399  44.159  54.870  1.00  0.00     0.010 A 
HETATM   12  C   UNL     1      29.477  45.291  55.714  1.00  0.00     0.152 A 
HETATM   13  N   UNL     1      30.533  45.256  56.533  1.00  0.00    -0.187 NA
HETATM   14  N   UNL     1      31.141  44.105  56.209  1.00  0.00    -0.289 N 
HETATM   15  H   UNL     1      31.994  43.859  56.701  1.00  0.00     0.188 HD
HETATM   16  C   UNL     1      30.503  43.410  55.222  1.00  0.00     0.123 A 
ENDBRANCH   9  11
ENDBRANCH   1   5
BRANCH   2  17
HETATM   17  C   UNL     1      24.817  47.226  50.592  1.00  0.00     0.075 C 
HETATM   18  C   UNL     1      24.517  47.742  49.389  1.00  0.00     0.017 C 
BRANCH  18  19
HETATM   19  C   UNL     1      23.542  48.818  49.159  1.00  0.00    -0.035 A 
HETATM   20  C   UNL     1      22.176  48.494  49.164  1.00  0.00     0.021 A 
HETATM   21  C   UNL     1      21.254  49.488  48.881  1.00  0.00    -0.022 A 
HETATM   22  C   UNL     1      21.664  50.781  48.603  1.00  0.00     0.075 A 
HETATM   23  C   UNL     1      19.775  49.435  48.873  1.00  0.00     0.068 C 
HETATM   24  O   UNL     1      20.631  51.644  48.350  1.00  0.00    -0.350 OA
HETATM   25  C   UNL     1      22.996  51.136  48.595  1.00  0.00     0.038 A 
HETATM   26  C   UNL     1      19.494  50.765  48.171  1.00  0.00     0.180 C 
HETATM   27  C   UNL     1      23.940  50.140  48.864  1.00  0.00     0.014 A 
ENDBRANCH  18  19
ENDBRANCH   2  17
TORSDOF 4
ENDMDL
MODEL 8
REMARK VINA RESULT:      -8.3      4.318     10.794
REMARK  4 active torsions:
REMARK  status: ('A' for Active; 'I' for Inactive)
REMARK    1  A    between atoms: C_3  and  N_4 
REMARK       I    between atoms: N_4  and  C_5 
REMARK    2  A    between atoms: C_5  and  C_6 
REMARK    3  A    between atoms: C_7  and  C_8 
REMARK    4  A    between atoms: C_19  and  C_20 
ROOT
HETATM    1  N   UNL     1      22.930  48.805  49.721  1.00  0.00    -0.324 N 
HETATM    2  C   UNL     1      24.151  48.738  49.080  1.00  0.00     0.245 C 
HETATM    3  O   UNL     1      24.470  49.294  48.037  1.00  0.00    -0.268 OA
HETATM    4  H   UNL     1      22.840  48.319  50.603  1.00  0.00     0.169 HD
ENDROOT
BRANCH   1   5
HETATM    5  C   UNL     1      21.767  49.472  49.273  1.00  0.00     0.035 A 
HETATM    6  C   UNL     1      21.735  50.817  48.904  1.00  0.00     0.029 A 
HETATM    7  C   UNL     1      20.551  51.398  48.445  1.00  0.00     0.003 A 
HETATM    8  C   UNL     1      19.384  50.640  48.355  1.00  0.00     0.012 A 
HETATM    9  C   UNL     1      19.388  49.291  48.726  1.00  0.00    -0.021 A 
HETATM   10  C   UNL     1      20.587  48.717  49.181  1.00  0.00     0.042 A 
BRANCH   9  11
HETATM   11  C   UNL     1      18.168  48.509  48.625  1.00  0.00     0.010 A 
HETATM   12  C   UNL     1      16.824  48.913  48.449  1.00  0.00     0.152 A 
HETATM   13  N   UNL     1      15.972  47.883  48.425  1.00  0.00    -0.187 NA
HETATM   14  N   UNL     1      16.767  46.816  48.596  1.00  0.00    -0.289 N 
HETATM   15  H   UNL     1      16.336  45.897  48.624  1.00  0.00     0.188 HD
HETATM   16  C   UNL     1      18.089  47.135  48.718  1.00  0.00     0.123 A 
ENDBRANCH   9  11
ENDBRANCH   1   5
BRANCH   2  17
HETATM   17  C   UNL     1      25.117  47.867  49.811  1.00  0.00     0.075 C 
HETATM   18  C   UNL     1      24.745  47.291  50.966  1.00  0.00     0.017 C 
BRANCH  18  19
HETATM   19  C   UNL     1      25.611  46.443  51.796  1.00  0.00    -0.035 A 
HETATM   20  C   UNL     1      26.128  46.978  52.986  1.00  0.00     0.021 A 
HETATM   21  C   UNL     1      27.000  46.210  53.740  1.00  0.00    -0.022 A 
HETATM   22  C   UNL     1      27.354  44.933  53.337  1.00  0.00     0.075 A 
HETATM   23  C   UNL     1      27.639  46.503  55.042  1.00  0.00     0.068 C 
HETATM   24  O   UNL     1      28.219  44.306  54.194  1.00  0.00    -0.350 OA
HETATM   25  C   UNL     1      26.861  44.373  52.178  1.00  0.00     0.038 A 
HETATM   26  C   UNL     1      28.671  45.375  55.059  1.00  0.00     0.180 C 
HETATM   27  C   UNL     1      25.993  45.143  51.397  1.00  0.00     0.014 A 
ENDBRANCH  18  19
ENDBRANCH   2  17
TORSDOF 4
ENDMDL
MODEL 9
REMARK VINA RESULT:      -8.1     10.041     15.395
REMARK  4 active torsions:
REMARK  status: ('A' for Active; 'I' for Inactive)
REMARK    1  A    between atoms: C_3  and  N_4 
REMARK       I    between atoms: N_4  and  C_5 
REMARK    2  A    between atoms: C_5  and  C_6 
REMARK    3  A    between atoms: C_7  and  C_8 
REMARK    4  A    between atoms: C_19  and  C_20 
ROOT
HETATM    1  N   UNL     1      15.707  54.351  49.671  1.00  0.00    -0.324 N 
HETATM    2  C   UNL     1      15.231  53.110  50.044  1.00  0.00     0.245 C 
HETATM    3  O   UNL     1      14.139  52.853  50.532  1.00  0.00    -0.268 OA
HETATM    4  H   UNL     1      16.620  54.389  49.239  1.00  0.00     0.169 HD
ENDROOT
BRANCH   1   5
HETATM    5  C   UNL     1      15.060  55.597  49.837  1.00  0.00     0.035 A 
HETATM    6  C   UNL     1      14.121  56.112  48.943  1.00  0.00     0.029 A 
HETATM    7  C   UNL     1      13.505  57.340  49.191  1.00  0.00     0.003 A 
HETATM    8  C   UNL     1      13.826  58.069  50.335  1.00  0.00     0.012 A 
HETATM    9  C   UNL     1      14.770  57.579  51.243  1.00  0.00    -0.021 A 
HETATM   10  C   UNL     1      15.379  56.340  50.985  1.00  0.00     0.042 A 
BRANCH   9  11
HETATM   11  C   UNL     1      15.095  58.345  52.434  1.00  0.00     0.010 A 
HETATM   12  C   UNL     1      15.536  57.925  53.711  1.00  0.00     0.152 A 
HETATM   13  N   UNL     1      15.710  58.942  54.560  1.00  0.00    -0.187 NA
HETATM   14  N   UNL     1      15.371  60.018  53.832  1.00  0.00    -0.289 N 
HETATM   15  H   UNL     1      15.414  60.930  54.277  1.00  0.00     0.188 HD
HETATM   16  C   UNL     1      14.999  59.717  52.555  1.00  0.00     0.123 A 
ENDBRANCH   9  11
ENDBRANCH   1   5
BRANCH   2  17
HETATM   17  C   UNL     1      16.231  52.031  49.792  1.00  0.00     0.075 C 
HETATM   18  C   UNL     1      17.535  52.277  50.001  1.00  0.00     0.017 C 
BRANCH  18  19
HETATM   19  C   UNL     1      18.618  51.315  49.759  1.00  0.00    -0.035 A 
HETATM   20  C   UNL     1      19.797  51.775  49.150  1.00  0.00     0.021 A 
HETATM   21  C   UNL     1      20.796  50.861  48.855  1.00  0.00    -0.022 A 
HETATM   22  C   UNL     1      20.645  49.519  49.159  1.00  0.00     0.075 A 
HETATM   23  C   UNL     1      22.139  51.080  48.275  1.00  0.00     0.068 C 
HETATM   24  O   UNL     1      21.723  48.751  48.808  1.00  0.00    -0.350 OA
HETATM   25  C   UNL     1      19.505  49.033  49.762  1.00  0.00     0.038 A 
HETATM   26  C   UNL     1      22.500  49.628  47.957  1.00  0.00     0.180 C 
HETATM   27  C   UNL     1      18.480  49.940  50.051  1.00  0.00     0.014 A 
ENDBRANCH  18  19
ENDBRANCH   2  17
TORSDOF 4
ENDMDL
MODEL 10
REMARK VINA RESULT:      -8.0      3.822      9.697
REMARK  4 active torsions:
REMARK  status: ('A' for Active; 'I' for Inactive)
REMARK    1  A    between atoms: C_3  and  N_4 
REMARK       I    between atoms: N_4  and  C_5 
REMARK    2  A    between atoms: C_5  and  C_6 
REMARK    3  A    between atoms: C_7  and  C_8 
REMARK    4  A    between atoms: C_19  and  C_20 
ROOT
HETATM    1  N   UNL     1      25.269  43.795  51.745  1.00  0.00    -0.324 N 
HETATM    2  C   UNL     1      26.441  43.102  51.974  1.00  0.00     0.245 C 
HETATM    3  O   UNL     1      26.964  42.272  51.241  1.00  0.00    -0.268 OA
HETATM    4  H   UNL     1      24.994  44.482  52.433  1.00  0.00     0.169 HD
ENDROOT
BRANCH   1   5
HETATM    5  C   UNL     1      24.388  43.644  50.650  1.00  0.00     0.035 A 
HETATM    6  C   UNL     1      23.946  42.410  50.172  1.00  0.00     0.029 A 
HETATM    7  C   UNL     1      23.053  42.343  49.102  1.00  0.00     0.003 A 
HETATM    8  C   UNL     1      22.595  43.512  48.494  1.00  0.00     0.012 A 
HETATM    9  C   UNL     1      23.028  44.761  48.950  1.00  0.00    -0.021 A 
HETATM   10  C   UNL     1      23.923  44.815  50.031  1.00  0.00     0.042 A 
BRANCH   9  11
HETATM   11  C   UNL     1      22.543  45.973  48.312  1.00  0.00     0.010 A 
HETATM   12  C   UNL     1      21.782  46.155  47.133  1.00  0.00     0.152 A 
HETATM   13  N   UNL     1      21.549  47.442  46.860  1.00  0.00    -0.187 NA
HETATM   14  N   UNL     1      22.169  48.091  47.859  1.00  0.00    -0.289 N 
HETATM   15  H   UNL     1      22.140  49.105  47.862  1.00  0.00     0.188 HD
HETATM   16  C   UNL     1      22.776  47.259  48.755  1.00  0.00     0.123 A 
ENDBRANCH   9  11
ENDBRANCH   1   5
BRANCH   2  17
HETATM   17  C   UNL     1      27.059  43.467  53.282  1.00  0.00     0.075 C 
HETATM   18  C   UNL     1      28.130  44.278  53.303  1.00  0.00     0.017 C 
BRANCH  18  19
HETATM   19  C   UNL     1      28.849  44.684  54.518  1.00  0.00    -0.035 A 
HETATM   20  C   UNL     1      29.918  43.887  54.959  1.00  0.00     0.021 A 
HETATM   21  C   UNL     1      30.557  44.224  56.141  1.00  0.00    -0.022 A 
HETATM   22  C   UNL     1      30.160  45.329  56.876  1.00  0.00     0.075 A 
HETATM   23  C   UNL     1      31.728  43.601  56.797  1.00  0.00     0.068 C 
HETATM   24  O   UNL     1      30.896  45.527  58.014  1.00  0.00    -0.350 OA
HETATM   25  C   UNL     1      29.119  46.136  56.470  1.00  0.00     0.038 A 
HETATM   26  C   UNL     1      31.631  44.288  58.159  1.00  0.00     0.180 C 
HETATM   27  C   UNL     1      28.452  45.800  55.287  1.00  0.00     0.014 A 
ENDBRANCH  18  19
ENDBRANCH   2  17
TORSDOF 4
ENDMDL
