MODEL 1
REMARK VINA RESULT:      -8.3      0.000      0.000
REMARK  4 active torsions:
REMARK  status: ('A' for Active; 'I' for Inactive)
REMARK    1  A    between atoms: C_2  and  C_3 
REMARK    2  A    between atoms: C_4  and  N_5 
REMARK       I    between atoms: N_5  and  C_6 
REMARK       I    between atoms: C_6  and  N_7 
REMARK    3  A    between atoms: C_8  and  C_9 
REMARK    4  A    between atoms: C_21  and  C_22 
ROOT
HETATM    1  N   UNL     1      26.894  44.299  52.365  1.00  0.00    -0.308 N 
HETATM    2  C   UNL     1      25.648  43.735  52.197  1.00  0.00     0.323 C 
HETATM    3  N   UNL     1      25.550  42.878  51.112  1.00  0.00    -0.325 N 
HETATM    4  C   UNL     1      26.469  42.810  49.974  1.00  0.00     0.126 C 
HETATM    5  C   UNL     1      25.506  42.716  48.779  1.00  0.00     0.032 C 
HETATM    6  C   UNL     1      24.365  41.869  49.326  1.00  0.00     0.022 C 
HETATM    7  C   UNL     1      24.224  42.396  50.744  1.00  0.00     0.128 C 
HETATM    8  O   UNL     1      24.685  43.953  52.927  1.00  0.00    -0.247 OA
HETATM    9  H   UNL     1      27.625  43.610  52.272  1.00  0.00     0.170 HD
ENDROOT
BRANCH   1  10
HETATM   10  C   UNL     1      27.125  45.339  53.303  1.00  0.00     0.049 A 
HETATM   11  C   UNL     1      28.021  45.104  54.375  1.00  0.00    -0.031 A 
HETATM   12  C   UNL     1      28.257  46.122  55.315  1.00  0.00     0.009 A 
HETATM   13  C   UNL     1      27.622  47.352  55.208  1.00  0.00     0.001 A 
HETATM   14  C   UNL     1      26.763  47.592  54.142  1.00  0.00     0.009 A 
HETATM   15  C   UNL     1      26.515  46.611  53.158  1.00  0.00    -0.031 A 
BRANCH  11  16
HETATM   16  C   UNL     1      28.722  43.782  54.602  1.00  0.00     0.036 C 
HETATM   17  C   UNL     1      30.106  43.965  55.204  1.00  0.00     0.010 C 
ENDBRANCH  11  16
BRANCH  15  18
HETATM   18  C   UNL     1      25.614  47.032  52.010  1.00  0.00     0.036 C 
HETATM   19  C   UNL     1      26.325  47.493  50.743  1.00  0.00     0.010 C 
ENDBRANCH  15  18
ENDBRANCH   1  10
BRANCH   4  20
HETATM   20  C   UNL     1      27.410  41.628  50.061  1.00  0.00     0.014 A 
HETATM   21  C   UNL     1      27.938  40.925  51.193  1.00  0.00     0.061 A 
HETATM   22  C   UNL     1      27.716  41.146  52.646  1.00  0.00     0.073 C 
HETATM   23  N   UNL     1      28.743  39.921  50.828  1.00  0.00    -0.179 NA
HETATM   24  N   UNL     1      28.727  39.946  49.496  1.00  0.00    -0.282 N 
HETATM   25  H   UNL     1      29.259  39.240  48.998  1.00  0.00     0.189 HD
HETATM   26  C   UNL     1      27.971  40.956  48.977  1.00  0.00     0.034 A 
HETATM   27  C   UNL     1      27.847  41.136  47.510  1.00  0.00     0.070 C 
ENDBRANCH   4  20
TORSDOF 4
ENDMDL
MODEL 2
REMARK VINA RESULT:      -8.1     11.861     13.520
REMARK  4 active torsions:
REMARK  status: ('A' for Active; 'I' for Inactive)
REMARK    1  A    between atoms: C_2  and  C_3 
REMARK    2  A    between atoms: C_4  and  N_5 
REMARK       I    between atoms: N_5  and  C_6 
REMARK       I    between atoms: C_6  and  N_7 
REMARK    3  A    between atoms: C_8  and  C_9 
REMARK    4  A    between atoms: C_21  and  C_22 
ROOT
HETATM    1  N   UNL     1      29.125  49.689  41.043  1.00  0.00    -0.308 N 
HETATM    2  C   UNL     1      29.450  49.146  39.819  1.00  0.00     0.323 C 
HETATM    3  N   UNL     1      28.524  48.236  39.333  1.00  0.00    -0.325 N 
HETATM    4  C   UNL     1      27.491  47.551  40.112  1.00  0.00     0.126 C 
HETATM    5  C   UNL     1      27.592  46.107  39.591  1.00  0.00     0.032 C 
HETATM    6  C   UNL     1      27.915  46.298  38.116  1.00  0.00     0.022 C 
HETATM    7  C   UNL     1      28.883  47.468  38.147  1.00  0.00     0.128 C 
HETATM    8  O   UNL     1      30.467  49.421  39.187  1.00  0.00    -0.247 OA
HETATM    9  H   UNL     1      28.158  49.976  41.073  1.00  0.00     0.170 HD
ENDROOT
BRANCH   1  10
HETATM   10  C   UNL     1      30.042  50.488  41.775  1.00  0.00     0.049 A 
HETATM   11  C   UNL     1      29.815  51.884  41.859  1.00  0.00    -0.031 A 
HETATM   12  C   UNL     1      30.716  52.689  42.576  1.00  0.00     0.009 A 
HETATM   13  C   UNL     1      31.826  52.136  43.200  1.00  0.00     0.001 A 
HETATM   14  C   UNL     1      32.035  50.763  43.140  1.00  0.00     0.009 A 
HETATM   15  C   UNL     1      31.144  49.910  42.455  1.00  0.00    -0.031 A 
BRANCH  11  16
HETATM   16  C   UNL     1      28.661  52.584  41.172  1.00  0.00     0.036 C 
HETATM   17  C   UNL     1      29.049  53.109  39.798  1.00  0.00     0.010 C 
ENDBRANCH  11  16
BRANCH  15  18
HETATM   18  C   UNL     1      31.453  48.425  42.532  1.00  0.00     0.036 C 
HETATM   19  C   UNL     1      32.557  47.928  41.606  1.00  0.00     0.010 C 
ENDBRANCH  15  18
ENDBRANCH   1  10
BRANCH   4  20
HETATM   20  C   UNL     1      26.117  48.151  39.905  1.00  0.00     0.014 A 
HETATM   21  C   UNL     1      25.686  49.268  39.117  1.00  0.00     0.061 A 
HETATM   22  C   UNL     1      26.469  50.187  38.250  1.00  0.00     0.073 C 
HETATM   23  N   UNL     1      24.366  49.465  39.207  1.00  0.00    -0.179 NA
HETATM   24  N   UNL     1      23.937  48.493  40.011  1.00  0.00    -0.282 N 
HETATM   25  H   UNL     1      22.941  48.433  40.200  1.00  0.00     0.189 HD
HETATM   26  C   UNL     1      24.935  47.691  40.481  1.00  0.00     0.034 A 
HETATM   27  C   UNL     1      24.636  46.561  41.394  1.00  0.00     0.070 C 
ENDBRANCH   4  20
TORSDOF 4
ENDMDL
MODEL 3
REMARK VINA RESULT:      -8.1      0.108      2.614
REMARK  4 active torsions:
REMARK  status: ('A' for Active; 'I' for Inactive)
REMARK    1  A    between atoms: C_2  and  C_3 
REMARK    2  A    between atoms: C_4  and  N_5 
REMARK       I    between atoms: N_5  and  C_6 
REMARK       I    between atoms: C_6  and  N_7 
REMARK    3  A    between atoms: C_8  and  C_9 
REMARK    4  A    between atoms: C_21  and  C_22 
ROOT
HETATM    1  N   UNL     1      26.881  44.301  52.312  1.00  0.00    -0.308 N 
HETATM    2  C   UNL     1      25.637  43.726  52.160  1.00  0.00     0.323 C 
HETATM    3  N   UNL     1      25.531  42.872  51.074  1.00  0.00    -0.325 N 
HETATM    4  C   UNL     1      26.435  42.814  49.924  1.00  0.00     0.126 C 
HETATM    5  C   UNL     1      25.456  42.714  48.742  1.00  0.00     0.032 C 
HETATM    6  C   UNL     1      24.329  41.857  49.303  1.00  0.00     0.022 C 
HETATM    7  C   UNL     1      24.204  42.379  50.724  1.00  0.00     0.128 C 
HETATM    8  O   UNL     1      24.682  43.935  52.904  1.00  0.00    -0.247 OA
HETATM    9  H   UNL     1      27.616  43.617  52.207  1.00  0.00     0.170 HD
ENDROOT
BRANCH   1  10
HETATM   10  C   UNL     1      27.116  45.340  53.249  1.00  0.00     0.049 A 
HETATM   11  C   UNL     1      26.480  46.591  53.054  1.00  0.00    -0.031 A 
HETATM   12  C   UNL     1      26.705  47.633  53.970  1.00  0.00     0.009 A 
HETATM   13  C   UNL     1      27.545  47.453  55.061  1.00  0.00     0.001 A 
HETATM   14  C   UNL     1      28.149  46.218  55.267  1.00  0.00     0.009 A 
HETATM   15  C   UNL     1      27.933  45.134  54.390  1.00  0.00    -0.031 A 
BRANCH  11  16
HETATM   16  C   UNL     1      25.587  46.897  51.870  1.00  0.00     0.036 C 
HETATM   17  C   UNL     1      26.355  47.544  50.728  1.00  0.00     0.010 C 
ENDBRANCH  11  16
BRANCH  15  18
HETATM   18  C   UNL     1      28.596  43.824  54.775  1.00  0.00     0.036 C 
HETATM   19  C   UNL     1      30.069  43.912  55.159  1.00  0.00     0.010 C 
ENDBRANCH  15  18
ENDBRANCH   1  10
BRANCH   4  20
HETATM   20  C   UNL     1      27.387  41.639  49.995  1.00  0.00     0.014 A 
HETATM   21  C   UNL     1      27.948  40.948  51.118  1.00  0.00     0.061 A 
HETATM   22  C   UNL     1      27.760  41.177  52.574  1.00  0.00     0.073 C 
HETATM   23  N   UNL     1      28.751  39.947  50.739  1.00  0.00    -0.179 NA
HETATM   24  N   UNL     1      28.701  39.963  49.408  1.00  0.00    -0.282 N 
HETATM   25  H   UNL     1      29.226  39.258  48.901  1.00  0.00     0.189 HD
HETATM   26  C   UNL     1      27.925  40.964  48.901  1.00  0.00     0.034 A 
HETATM   27  C   UNL     1      27.763  41.133  47.437  1.00  0.00     0.070 C 
ENDBRANCH   4  20
TORSDOF 4
ENDMDL
MODEL 4
REMARK VINA RESULT:      -8.0     11.826     13.284
REMARK  4 active torsions:
REMARK  status: ('A' for Active; 'I' for Inactive)
REMARK    1  A    between atoms: C_2  and  C_3 
REMARK    2  A    between atoms: C_4  and  N_5 
REMARK       I    between atoms: N_5  and  C_6 
REMARK       I    between atoms: C_6  and  N_7 
REMARK    3  A    between atoms: C_8  and  C_9 
REMARK    4  A    between atoms: C_21  and  C_22 
ROOT
HETATM    1  N   UNL     1      29.149  49.709  41.066  1.00  0.00    -0.308 N 
HETATM    2  C   UNL     1      29.475  49.178  39.837  1.00  0.00     0.323 C 
HETATM    3  N   UNL     1      28.564  48.252  39.354  1.00  0.00    -0.325 N 
HETATM    4  C   UNL     1      27.552  47.541  40.137  1.00  0.00     0.126 C 
HETATM    5  C   UNL     1      27.679  46.103  39.609  1.00  0.00     0.032 C 
HETATM    6  C   UNL     1      27.987  46.307  38.132  1.00  0.00     0.022 C 
HETATM    7  C   UNL     1      28.930  47.497  38.161  1.00  0.00     0.128 C 
HETATM    8  O   UNL     1      30.481  49.477  39.198  1.00  0.00    -0.247 OA
HETATM    9  H   UNL     1      28.176  49.976  41.104  1.00  0.00     0.170 HD
ENDROOT
BRANCH   1  10
HETATM   10  C   UNL     1      30.055  50.523  41.794  1.00  0.00     0.049 A 
HETATM   11  C   UNL     1      31.140  49.905  42.464  1.00  0.00    -0.031 A 
HETATM   12  C   UNL     1      32.044  50.697  43.194  1.00  0.00     0.009 A 
HETATM   13  C   UNL     1      31.886  52.074  43.269  1.00  0.00     0.001 A 
HETATM   14  C   UNL     1      30.837  52.683  42.590  1.00  0.00     0.009 A 
HETATM   15  C   UNL     1      29.919  51.934  41.823  1.00  0.00    -0.031 A 
BRANCH  11  16
HETATM   16  C   UNL     1      31.366  48.408  42.481  1.00  0.00     0.036 C 
HETATM   17  C   UNL     1      32.553  48.001  41.621  1.00  0.00     0.010 C 
ENDBRANCH  11  16
BRANCH  15  18
HETATM   18  C   UNL     1      28.867  52.735  41.076  1.00  0.00     0.036 C 
HETATM   19  C   UNL     1      29.173  53.030  39.611  1.00  0.00     0.010 C 
ENDBRANCH  15  18
ENDBRANCH   1  10
BRANCH   4  20
HETATM   20  C   UNL     1      26.164  48.114  39.944  1.00  0.00     0.014 A 
HETATM   21  C   UNL     1      25.704  49.224  39.163  1.00  0.00     0.061 A 
HETATM   22  C   UNL     1      26.460  50.161  38.292  1.00  0.00     0.073 C 
HETATM   23  N   UNL     1      24.381  49.394  39.265  1.00  0.00    -0.179 NA
HETATM   24  N   UNL     1      23.979  48.411  40.070  1.00  0.00    -0.282 N 
HETATM   25  H   UNL     1      22.986  48.330  40.267  1.00  0.00     0.189 HD
HETATM   26  C   UNL     1      24.997  47.628  40.529  1.00  0.00     0.034 A 
HETATM   27  C   UNL     1      24.729  46.490  41.441  1.00  0.00     0.070 C 
ENDBRANCH   4  20
TORSDOF 4
ENDMDL
MODEL 5
REMARK VINA RESULT:      -7.9     12.777     14.598
REMARK  4 active torsions:
REMARK  status: ('A' for Active; 'I' for Inactive)
REMARK    1  A    between atoms: C_2  and  C_3 
REMARK    2  A    between atoms: C_4  and  N_5 
REMARK       I    between atoms: N_5  and  C_6 
REMARK       I    between atoms: C_6  and  N_7 
REMARK    3  A    between atoms: C_8  and  C_9 
REMARK    4  A    between atoms: C_21  and  C_22 
ROOT
HETATM    1  N   UNL     1      32.283  51.356  41.046  1.00  0.00    -0.308 N 
HETATM    2  C   UNL     1      31.432  52.399  40.746  1.00  0.00     0.323 C 
HETATM    3  N   UNL     1      30.356  52.047  39.947  1.00  0.00    -0.325 N 
HETATM    4  C   UNL     1      30.243  50.839  39.127  1.00  0.00     0.126 C 
HETATM    5  C   UNL     1      29.672  51.390  37.810  1.00  0.00     0.032 C 
HETATM    6  C   UNL     1      28.736  52.496  38.278  1.00  0.00     0.022 C 
HETATM    7  C   UNL     1      29.521  53.119  39.420  1.00  0.00     0.128 C 
HETATM    8  O   UNL     1      31.588  53.553  41.135  1.00  0.00    -0.247 OA
HETATM    9  H   UNL     1      31.771  50.533  41.323  1.00  0.00     0.170 HD
ENDROOT
BRANCH   1  10
HETATM   10  C   UNL     1      33.530  51.569  41.688  1.00  0.00     0.049 A 
HETATM   11  C   UNL     1      33.586  51.517  43.103  1.00  0.00    -0.031 A 
HETATM   12  C   UNL     1      34.813  51.730  43.755  1.00  0.00     0.009 A 
HETATM   13  C   UNL     1      35.968  51.993  43.032  1.00  0.00     0.001 A 
HETATM   14  C   UNL     1      35.919  52.019  41.643  1.00  0.00     0.009 A 
HETATM   15  C   UNL     1      34.717  51.785  40.942  1.00  0.00    -0.031 A 
BRANCH  11  16
HETATM   16  C   UNL     1      32.373  51.284  43.978  1.00  0.00     0.036 C 
HETATM   17  C   UNL     1      32.200  52.381  45.017  1.00  0.00     0.010 C 
ENDBRANCH  11  16
BRANCH  15  18
HETATM   18  C   UNL     1      34.822  51.770  39.427  1.00  0.00     0.036 C 
HETATM   19  C   UNL     1      36.165  51.325  38.859  1.00  0.00     0.010 C 
ENDBRANCH  15  18
ENDBRANCH   1  10
BRANCH   4  20
HETATM   20  C   UNL     1      29.349  49.793  39.758  1.00  0.00     0.014 A 
HETATM   21  C   UNL     1      28.275  49.915  40.698  1.00  0.00     0.061 A 
HETATM   22  C   UNL     1      27.702  51.124  41.346  1.00  0.00     0.073 C 
HETATM   23  N   UNL     1      27.735  48.728  40.999  1.00  0.00    -0.179 NA
HETATM   24  N   UNL     1      28.418  47.854  40.261  1.00  0.00    -0.282 N 
HETATM   25  H   UNL     1      28.153  46.875  40.312  1.00  0.00     0.189 HD
HETATM   26  C   UNL     1      29.411  48.422  39.518  1.00  0.00     0.034 A 
HETATM   27  C   UNL     1      30.274  47.593  38.642  1.00  0.00     0.070 C 
ENDBRANCH   4  20
TORSDOF 4
ENDMDL
MODEL 6
REMARK VINA RESULT:      -7.8     12.721     14.583
REMARK  4 active torsions:
REMARK  status: ('A' for Active; 'I' for Inactive)
REMARK    1  A    between atoms: C_2  and  C_3 
REMARK    2  A    between atoms: C_4  and  N_5 
REMARK       I    between atoms: N_5  and  C_6 
REMARK       I    between atoms: C_6  and  N_7 
REMARK    3  A    between atoms: C_8  and  C_9 
REMARK    4  A    between atoms: C_21  and  C_22 
ROOT
HETATM    1  N   UNL     1      32.243  51.309  41.121  1.00  0.00    -0.308 N 
HETATM    2  C   UNL     1      31.391  52.346  40.807  1.00  0.00     0.323 C 
HETATM    3  N   UNL     1      30.334  51.990  39.985  1.00  0.00    -0.325 N 
HETATM    4  C   UNL     1      30.247  50.784  39.158  1.00  0.00     0.126 C 
HETATM    5  C   UNL     1      29.700  51.336  37.831  1.00  0.00     0.032 C 
HETATM    6  C   UNL     1      28.747  52.434  38.284  1.00  0.00     0.022 C 
HETATM    7  C   UNL     1      29.503  53.058  39.444  1.00  0.00     0.128 C 
HETATM    8  O   UNL     1      31.530  53.501  41.204  1.00  0.00    -0.247 OA
HETATM    9  H   UNL     1      31.731  50.481  41.385  1.00  0.00     0.170 HD
ENDROOT
BRANCH   1  10
HETATM   10  C   UNL     1      33.475  51.528  41.790  1.00  0.00     0.049 A 
HETATM   11  C   UNL     1      34.633  51.795  41.018  1.00  0.00    -0.031 A 
HETATM   12  C   UNL     1      35.862  52.010  41.665  1.00  0.00     0.009 A 
HETATM   13  C   UNL     1      35.957  51.962  43.049  1.00  0.00     0.001 A 
HETATM   14  C   UNL     1      34.817  51.726  43.808  1.00  0.00     0.009 A 
HETATM   15  C   UNL     1      33.555  51.531  43.206  1.00  0.00    -0.031 A 
BRANCH  11  16
HETATM   16  C   UNL     1      34.638  51.819  39.504  1.00  0.00     0.036 C 
HETATM   17  C   UNL     1      36.007  51.484  38.933  1.00  0.00     0.010 C 
ENDBRANCH  11  16
BRANCH  15  18
HETATM   18  C   UNL     1      32.383  51.357  44.156  1.00  0.00     0.036 C 
HETATM   19  C   UNL     1      32.088  52.542  45.069  1.00  0.00     0.010 C 
ENDBRANCH  15  18
ENDBRANCH   1  10
BRANCH   4  20
HETATM   20  C   UNL     1      29.348  49.729  39.767  1.00  0.00     0.014 A 
HETATM   21  C   UNL     1      28.261  49.840  40.694  1.00  0.00     0.061 A 
HETATM   22  C   UNL     1      27.676  51.040  41.346  1.00  0.00     0.073 C 
HETATM   23  N   UNL     1      27.721  48.648  40.975  1.00  0.00    -0.179 NA
HETATM   24  N   UNL     1      28.415  47.783  40.238  1.00  0.00    -0.282 N 
HETATM   25  H   UNL     1      28.153  46.803  40.275  1.00  0.00     0.189 HD
HETATM   26  C   UNL     1      29.416  48.361  39.514  1.00  0.00     0.034 A 
HETATM   27  C   UNL     1      30.294  47.543  38.641  1.00  0.00     0.070 C 
ENDBRANCH   4  20
TORSDOF 4
ENDMDL
MODEL 7
REMARK VINA RESULT:      -7.5      6.187      9.101
REMARK  4 active torsions:
REMARK  status: ('A' for Active; 'I' for Inactive)
REMARK    1  A    between atoms: C_2  and  C_3 
REMARK    2  A    between atoms: C_4  and  N_5 
REMARK       I    between atoms: N_5  and  C_6 
REMARK       I    between atoms: C_6  and  N_7 
REMARK    3  A    between atoms: C_8  and  C_9 
REMARK    4  A    between atoms: C_21  and  C_22 
ROOT
HETATM    1  N   UNL     1      22.431  47.157  49.065  1.00  0.00    -0.308 N 
HETATM    2  C   UNL     1      21.877  46.950  47.819  1.00  0.00     0.323 C 
HETATM    3  N   UNL     1      20.522  47.231  47.742  1.00  0.00    -0.325 N 
HETATM    4  C   UNL     1      19.596  47.350  48.870  1.00  0.00     0.126 C 
HETATM    5  C   UNL     1      18.374  46.558  48.376  1.00  0.00     0.032 C 
HETATM    6  C   UNL     1      18.343  46.871  46.886  1.00  0.00     0.022 C 
HETATM    7  C   UNL     1      19.818  46.853  46.523  1.00  0.00     0.128 C 
HETATM    8  O   UNL     1      22.503  46.551  46.840  1.00  0.00    -0.247 OA
HETATM    9  H   UNL     1      22.133  48.037  49.458  1.00  0.00     0.170 HD
ENDROOT
BRANCH   1  10
HETATM   10  C   UNL     1      23.753  46.743  49.374  1.00  0.00     0.049 A 
HETATM   11  C   UNL     1      24.788  47.710  49.368  1.00  0.00    -0.031 A 
HETATM   12  C   UNL     1      26.104  47.316  49.668  1.00  0.00     0.009 A 
HETATM   13  C   UNL     1      26.402  45.994  49.966  1.00  0.00     0.001 A 
HETATM   14  C   UNL     1      25.382  45.050  49.997  1.00  0.00     0.009 A 
HETATM   15  C   UNL     1      24.042  45.401  49.730  1.00  0.00    -0.031 A 
BRANCH  11  16
HETATM   16  C   UNL     1      24.570  49.164  49.008  1.00  0.00     0.036 C 
HETATM   17  C   UNL     1      25.798  49.782  48.358  1.00  0.00     0.010 C 
ENDBRANCH  11  16
BRANCH  15  18
HETATM   18  C   UNL     1      23.020  44.287  49.871  1.00  0.00     0.036 C 
HETATM   19  C   UNL     1      23.588  42.876  49.979  1.00  0.00     0.010 C 
ENDBRANCH  15  18
ENDBRANCH   1  10
BRANCH   4  20
HETATM   20  C   UNL     1      19.265  48.791  49.196  1.00  0.00     0.014 A 
HETATM   21  C   UNL     1      19.319  49.975  48.391  1.00  0.00     0.061 A 
HETATM   22  C   UNL     1      19.718  50.150  46.970  1.00  0.00     0.073 C 
HETATM   23  N   UNL     1      18.932  51.061  49.071  1.00  0.00    -0.179 NA
HETATM   24  N   UNL     1      18.611  50.602  50.279  1.00  0.00    -0.282 N 
HETATM   25  H   UNL     1      18.259  51.263  50.964  1.00  0.00     0.189 HD
HETATM   26  C   UNL     1      18.811  49.261  50.427  1.00  0.00     0.034 A 
HETATM   27  C   UNL     1      18.511  48.584  51.712  1.00  0.00     0.070 C 
ENDBRANCH   4  20
TORSDOF 4
ENDMDL
MODEL 8
REMARK VINA RESULT:      -7.4      6.282      8.987
REMARK  4 active torsions:
REMARK  status: ('A' for Active; 'I' for Inactive)
REMARK    1  A    between atoms: C_2  and  C_3 
REMARK    2  A    between atoms: C_4  and  N_5 
REMARK       I    between atoms: N_5  and  C_6 
REMARK       I    between atoms: C_6  and  N_7 
REMARK    3  A    between atoms: C_8  and  C_9 
REMARK    4  A    between atoms: C_21  and  C_22 
ROOT
HETATM    1  N   UNL     1      22.371  47.309  49.012  1.00  0.00    -0.308 N 
HETATM    2  C   UNL     1      21.825  47.051  47.773  1.00  0.00     0.323 C 
HETATM    3  N   UNL     1      20.453  47.237  47.704  1.00  0.00    -0.325 N 
HETATM    4  C   UNL     1      19.529  47.306  48.837  1.00  0.00     0.126 C 
HETATM    5  C   UNL     1      18.361  46.426  48.361  1.00  0.00     0.032 C 
HETATM    6  C   UNL     1      18.298  46.719  46.868  1.00  0.00     0.022 C 
HETATM    7  C   UNL     1      19.768  46.798  46.494  1.00  0.00     0.128 C 
HETATM    8  O   UNL     1      22.470  46.685  46.794  1.00  0.00    -0.247 OA
HETATM    9  H   UNL     1      22.017  48.171  49.398  1.00  0.00     0.170 HD
ENDROOT
BRANCH   1  10
HETATM   10  C   UNL     1      23.721  46.990  49.315  1.00  0.00     0.049 A 
HETATM   11  C   UNL     1      24.057  45.643  49.598  1.00  0.00    -0.031 A 
HETATM   12  C   UNL     1      25.388  45.312  49.905  1.00  0.00     0.009 A 
HETATM   13  C   UNL     1      26.376  46.287  49.937  1.00  0.00     0.001 A 
HETATM   14  C   UNL     1      26.052  47.604  49.634  1.00  0.00     0.009 A 
HETATM   15  C   UNL     1      24.735  47.981  49.294  1.00  0.00    -0.031 A 
BRANCH  11  16
HETATM   16  C   UNL     1      23.042  44.521  49.635  1.00  0.00     0.036 C 
HETATM   17  C   UNL     1      23.562  43.306  50.388  1.00  0.00     0.010 C 
ENDBRANCH  11  16
BRANCH  15  18
HETATM   18  C   UNL     1      24.537  49.438  48.915  1.00  0.00     0.036 C 
HETATM   19  C   UNL     1      25.559  50.016  47.942  1.00  0.00     0.010 C 
ENDBRANCH  15  18
ENDBRANCH   1  10
BRANCH   4  20
HETATM   20  C   UNL     1      19.102  48.724  49.151  1.00  0.00     0.014 A 
HETATM   21  C   UNL     1      19.022  49.888  48.319  1.00  0.00     0.061 A 
HETATM   22  C   UNL     1      19.336  50.059  46.877  1.00  0.00     0.073 C 
HETATM   23  N   UNL     1      18.586  50.957  48.996  1.00  0.00    -0.179 NA
HETATM   24  N   UNL     1      18.362  50.504  50.229  1.00  0.00    -0.282 N 
HETATM   25  H   UNL     1      17.993  51.152  50.917  1.00  0.00     0.189 HD
HETATM   26  C   UNL     1      18.674  49.186  50.393  1.00  0.00     0.034 A 
HETATM   27  C   UNL     1      18.493  48.519  51.705  1.00  0.00     0.070 C 
ENDBRANCH   4  20
TORSDOF 4
ENDMDL
MODEL 9
REMARK VINA RESULT:      -7.3     10.002     12.877
REMARK  4 active torsions:
REMARK  status: ('A' for Active; 'I' for Inactive)
REMARK    1  A    between atoms: C_2  and  C_3 
REMARK    2  A    between atoms: C_4  and  N_5 
REMARK       I    between atoms: N_5  and  C_6 
REMARK       I    between atoms: C_6  and  N_7 
REMARK    3  A    between atoms: C_8  and  C_9 
REMARK    4  A    between atoms: C_21  and  C_22 
ROOT
HETATM    1  N   UNL     1      17.787  50.997  47.287  1.00  0.00    -0.308 N 
HETATM    2  C   UNL     1      17.593  49.674  47.621  1.00  0.00     0.323 C 
HETATM    3  N   UNL     1      18.755  48.987  47.934  1.00  0.00    -0.325 N 
HETATM    4  C   UNL     1      20.121  49.395  47.597  1.00  0.00     0.126 C 
HETATM    5  C   UNL     1      20.742  48.079  47.101  1.00  0.00     0.032 C 
HETATM    6  C   UNL     1      20.094  47.034  47.998  1.00  0.00     0.022 C 
HETATM    7  C   UNL     1      18.666  47.542  48.103  1.00  0.00     0.128 C 
HETATM    8  O   UNL     1      16.497  49.119  47.648  1.00  0.00    -0.247 OA
HETATM    9  H   UNL     1      18.414  51.451  47.934  1.00  0.00     0.170 HD
ENDROOT
BRANCH   1  10
HETATM   10  C   UNL     1      16.740  51.797  46.759  1.00  0.00     0.049 A 
HETATM   11  C   UNL     1      16.668  51.987  45.357  1.00  0.00    -0.031 A 
HETATM   12  C   UNL     1      15.641  52.780  44.817  1.00  0.00     0.009 A 
HETATM   13  C   UNL     1      14.697  53.380  45.640  1.00  0.00     0.001 A 
HETATM   14  C   UNL     1      14.752  53.173  47.013  1.00  0.00     0.009 A 
HETATM   15  C   UNL     1      15.748  52.364  47.599  1.00  0.00    -0.031 A 
BRANCH  11  16
HETATM   16  C   UNL     1      17.678  51.414  44.385  1.00  0.00     0.036 C 
HETATM   17  C   UNL     1      17.537  52.015  42.995  1.00  0.00     0.010 C 
ENDBRANCH  11  16
BRANCH  15  18
HETATM   18  C   UNL     1      15.645  52.164  49.101  1.00  0.00     0.036 C 
HETATM   19  C   UNL     1      16.519  53.076  49.954  1.00  0.00     0.010 C 
ENDBRANCH  15  18
ENDBRANCH   1  10
BRANCH   4  20
HETATM   20  C   UNL     1      20.858  49.979  48.783  1.00  0.00     0.014 A 
HETATM   21  C   UNL     1      22.206  50.447  48.915  1.00  0.00     0.061 A 
HETATM   22  C   UNL     1      23.303  50.504  47.914  1.00  0.00     0.073 C 
HETATM   23  N   UNL     1      22.461  50.898  50.149  1.00  0.00    -0.179 NA
HETATM   24  N   UNL     1      21.308  50.753  50.802  1.00  0.00    -0.282 N 
HETATM   25  H   UNL     1      21.263  51.064  51.767  1.00  0.00     0.189 HD
HETATM   26  C   UNL     1      20.320  50.188  50.050  1.00  0.00     0.034 A 
HETATM   27  C   UNL     1      18.973  49.948  50.622  1.00  0.00     0.070 C 
ENDBRANCH   4  20
TORSDOF 4
ENDMDL
MODEL 10
REMARK VINA RESULT:      -7.2      9.972     12.750
REMARK  4 active torsions:
REMARK  status: ('A' for Active; 'I' for Inactive)
REMARK    1  A    between atoms: C_2  and  C_3 
REMARK    2  A    between atoms: C_4  and  N_5 
REMARK       I    between atoms: N_5  and  C_6 
REMARK       I    between atoms: C_6  and  N_7 
REMARK    3  A    between atoms: C_8  and  C_9 
REMARK    4  A    between atoms: C_21  and  C_22 
ROOT
HETATM    1  N   UNL     1      17.806  50.972  47.323  1.00  0.00    -0.308 N 
HETATM    2  C   UNL     1      17.635  49.641  47.641  1.00  0.00     0.323 C 
HETATM    3  N   UNL     1      18.810  48.970  47.941  1.00  0.00    -0.325 N 
HETATM    4  C   UNL     1      20.167  49.405  47.605  1.00  0.00     0.126 C 
HETATM    5  C   UNL     1      20.809  48.105  47.090  1.00  0.00     0.032 C 
HETATM    6  C   UNL     1      20.181  47.039  47.977  1.00  0.00     0.022 C 
HETATM    7  C   UNL     1      18.745  47.522  48.093  1.00  0.00     0.128 C 
HETATM    8  O   UNL     1      16.548  49.069  47.664  1.00  0.00    -0.247 OA
HETATM    9  H   UNL     1      18.428  51.428  47.973  1.00  0.00     0.170 HD
ENDROOT
BRANCH   1  10
HETATM   10  C   UNL     1      16.744  51.761  46.808  1.00  0.00     0.049 A 
HETATM   11  C   UNL     1      15.811  52.324  47.713  1.00  0.00    -0.031 A 
HETATM   12  C   UNL     1      14.752  53.104  47.219  1.00  0.00     0.009 A 
HETATM   13  C   UNL     1      14.606  53.327  45.857  1.00  0.00     0.001 A 
HETATM   14  C   UNL     1      15.535  52.796  44.970  1.00  0.00     0.009 A 
HETATM   15  C   UNL     1      16.631  52.029  45.420  1.00  0.00    -0.031 A 
BRANCH  11  16
HETATM   16  C   UNL     1      15.860  52.096  49.209  1.00  0.00     0.036 C 
HETATM   17  C   UNL     1      16.656  53.176  49.926  1.00  0.00     0.010 C 
ENDBRANCH  11  16
BRANCH  15  18
HETATM   18  C   UNL     1      17.609  51.574  44.351  1.00  0.00     0.036 C 
HETATM   19  C   UNL     1      17.433  52.210  42.976  1.00  0.00     0.010 C 
ENDBRANCH  15  18
ENDBRANCH   1  10
BRANCH   4  20
HETATM   20  C   UNL     1      20.899  49.986  48.795  1.00  0.00     0.014 A 
HETATM   21  C   UNL     1      22.245  50.459  48.933  1.00  0.00     0.061 A 
HETATM   22  C   UNL     1      23.344  50.526  47.936  1.00  0.00     0.073 C 
HETATM   23  N   UNL     1      22.494  50.905  50.170  1.00  0.00    -0.179 NA
HETATM   24  N   UNL     1      21.341  50.753  50.819  1.00  0.00    -0.282 N 
HETATM   25  H   UNL     1      21.292  51.058  51.786  1.00  0.00     0.189 HD
HETATM   26  C   UNL     1      20.357  50.186  50.062  1.00  0.00     0.034 A 
HETATM   27  C   UNL     1      19.009  49.937  50.630  1.00  0.00     0.070 C 
ENDBRANCH   4  20
TORSDOF 4
ENDMDL
