MODEL 1
REMARK VINA RESULT:      -8.5      0.000      0.000
REMARK  4 active torsions:
REMARK  status: ('A' for Active; 'I' for Inactive)
REMARK    1  A    between atoms: C_9  and  C_10 
REMARK    2  A    between atoms: C_18  and  C_19 
REMARK       I    between atoms: C_19  and  N_20 
REMARK    3  A    between atoms: N_20  and  C_21 
REMARK    4  A    between atoms: C_24  and  O_25 
ROOT
HETATM    1  C   UNL     1      29.228  39.717  51.587  1.00  0.00     0.070 C 
HETATM    2  C   UNL     1      28.044  40.468  51.034  1.00  0.00     0.037 A 
HETATM    3  N   UNL     1      27.560  40.007  49.812  1.00  0.00    -0.192 N 
HETATM    4  C   UNL     1      26.428  40.463  49.243  1.00  0.00     0.725 A 
HETATM    5  N   UNL     1      25.744  41.491  49.834  1.00  0.00    -0.084 N 
HETATM    6  N   UNL     1      24.597  41.762  49.175  1.00  0.00    -0.149 NA
HETATM    7  C   UNL     1      24.686  40.892  48.162  1.00  0.00     0.275 A 
HETATM    8  N   UNL     1      25.789  40.077  48.168  1.00  0.00    -0.054 NA
HETATM    9  C   UNL     1      26.143  42.119  51.099  1.00  0.00     0.204 A 
HETATM   10  C   UNL     1      27.410  41.488  51.664  1.00  0.00     0.062 A 
HETATM   11  H   UNL     1      28.027  39.211  49.386  1.00  0.00     0.184 HD
ENDROOT
BRANCH  10  12
HETATM   12  C   UNL     1      27.790  42.012  53.001  1.00  0.00     0.256 C 
HETATM   13  N   UNL     1      28.655  43.081  52.947  1.00  0.00    -0.323 N 
HETATM   14  H   UNL     1      28.944  43.396  52.029  1.00  0.00     0.169 HD
HETATM   15  O   UNL     1      27.276  41.508  53.992  1.00  0.00    -0.267 OA
BRANCH  13  16
HETATM   16  C   UNL     1      29.195  43.791  54.040  1.00  0.00     0.035 A 
HETATM   17  C   UNL     1      30.320  43.384  54.756  1.00  0.00     0.032 A 
HETATM   18  C   UNL     1      30.797  44.153  55.824  1.00  0.00     0.039 A 
HETATM   19  C   UNL     1      30.168  45.342  56.188  1.00  0.00     0.068 A 
HETATM   20  C   UNL     1      29.041  45.753  55.479  1.00  0.00     0.039 A 
HETATM   21  C   UNL     1      28.557  44.980  54.416  1.00  0.00     0.032 A 
BRANCH  19  22
HETATM   22  O   UNL     1      30.743  45.994  57.242  1.00  0.00    -0.356 OA
HETATM   23  C   UNL     1      30.783  45.305  58.484  1.00  0.00     0.210 C 
ENDBRANCH  19  22
ENDBRANCH  13  16
ENDBRANCH  10  12
BRANCH   9  24
HETATM   24  C   UNL     1      26.206  43.641  50.965  1.00  0.00    -0.006 A 
HETATM   25  C   UNL     1      25.700  44.547  51.916  1.00  0.00     0.044 A 
HETATM   26 CL   UNL     1      24.881  44.038  53.348  1.00  0.00    -0.084 Cl
HETATM   27  C   UNL     1      25.815  45.929  51.722  1.00  0.00     0.048 A 
HETATM   28  C   UNL     1      26.424  46.422  50.573  1.00  0.00     0.035 A 
HETATM   29 CL   UNL     1      26.560  48.121  50.341  1.00  0.00    -0.084 Cl
HETATM   30  C   UNL     1      26.917  45.551  49.610  1.00  0.00     0.024 A 
HETATM   31  C   UNL     1      26.809  44.172  49.805  1.00  0.00     0.013 A 
ENDBRANCH   9  24
TORSDOF 4
ENDMDL
MODEL 2
REMARK VINA RESULT:      -7.6      7.546     10.051
REMARK  4 active torsions:
REMARK  status: ('A' for Active; 'I' for Inactive)
REMARK    1  A    between atoms: C_9  and  C_10 
REMARK    2  A    between atoms: C_18  and  C_19 
REMARK       I    between atoms: C_19  and  N_20 
REMARK    3  A    between atoms: N_20  and  C_21 
REMARK    4  A    between atoms: C_24  and  O_25 
ROOT
HETATM    1  C   UNL     1      21.953  51.156  50.826  1.00  0.00     0.070 C 
HETATM    2  C   UNL     1      20.936  50.772  49.781  1.00  0.00     0.037 A 
HETATM    3  N   UNL     1      19.712  51.429  49.868  1.00  0.00    -0.192 N 
HETATM    4  C   UNL     1      18.742  51.317  48.940  1.00  0.00     0.725 A 
HETATM    5  N   UNL     1      18.913  50.455  47.890  1.00  0.00    -0.084 N 
HETATM    6  N   UNL     1      17.883  50.532  47.019  1.00  0.00    -0.149 NA
HETATM    7  C   UNL     1      17.103  51.424  47.641  1.00  0.00     0.275 A 
HETATM    8  N   UNL     1      17.593  51.930  48.817  1.00  0.00    -0.054 NA
HETATM    9  C   UNL     1      20.124  49.655  47.675  1.00  0.00     0.204 A 
HETATM   10  C   UNL     1      21.159  49.902  48.765  1.00  0.00     0.062 A 
HETATM   11  H   UNL     1      19.589  52.110  50.612  1.00  0.00     0.184 HD
ENDROOT
BRANCH  10  12
HETATM   12  C   UNL     1      22.449  49.201  48.530  1.00  0.00     0.256 C 
HETATM   13  N   UNL     1      22.728  48.234  49.468  1.00  0.00    -0.323 N 
HETATM   14  H   UNL     1      22.050  48.099  50.209  1.00  0.00     0.169 HD
HETATM   15  O   UNL     1      23.095  49.491  47.531  1.00  0.00    -0.267 OA
BRANCH  13  16
HETATM   16  C   UNL     1      23.868  47.404  49.518  1.00  0.00     0.035 A 
HETATM   17  C   UNL     1      25.153  47.861  49.808  1.00  0.00     0.032 A 
HETATM   18  C   UNL     1      26.230  46.968  49.846  1.00  0.00     0.039 A 
HETATM   19  C   UNL     1      26.043  45.608  49.605  1.00  0.00     0.068 A 
HETATM   20  C   UNL     1      24.761  45.145  49.311  1.00  0.00     0.039 A 
HETATM   21  C   UNL     1      23.684  46.039  49.264  1.00  0.00     0.032 A 
BRANCH  19  22
HETATM   22  O   UNL     1      27.178  44.851  49.682  1.00  0.00    -0.356 OA
HETATM   23  C   UNL     1      27.338  44.042  50.839  1.00  0.00     0.210 C 
ENDBRANCH  19  22
ENDBRANCH  13  16
ENDBRANCH  10  12
BRANCH   9  24
HETATM   24  C   UNL     1      19.782  48.181  47.457  1.00  0.00    -0.006 A 
HETATM   25  C   UNL     1      19.168  47.354  48.416  1.00  0.00     0.044 A 
HETATM   26 CL   UNL     1      18.772  47.902  50.005  1.00  0.00    -0.084 Cl
HETATM   27  C   UNL     1      18.874  46.016  48.128  1.00  0.00     0.048 A 
HETATM   28  C   UNL     1      19.200  45.484  46.884  1.00  0.00     0.035 A 
HETATM   29 CL   UNL     1      18.837  43.839  46.537  1.00  0.00    -0.084 Cl
HETATM   30  C   UNL     1      19.821  46.273  45.924  1.00  0.00     0.024 A 
HETATM   31  C   UNL     1      20.109  47.610  46.208  1.00  0.00     0.013 A 
ENDBRANCH   9  24
TORSDOF 4
ENDMDL
MODEL 3
REMARK VINA RESULT:      -7.5      6.748      9.564
REMARK  4 active torsions:
REMARK  status: ('A' for Active; 'I' for Inactive)
REMARK    1  A    between atoms: C_9  and  C_10 
REMARK    2  A    between atoms: C_18  and  C_19 
REMARK       I    between atoms: C_19  and  N_20 
REMARK    3  A    between atoms: N_20  and  C_21 
REMARK    4  A    between atoms: C_24  and  O_25 
ROOT
HETATM    1  C   UNL     1      25.265  48.268  49.567  1.00  0.00     0.070 C 
HETATM    2  C   UNL     1      24.583  46.925  49.514  1.00  0.00     0.037 A 
HETATM    3  N   UNL     1      25.307  45.863  50.048  1.00  0.00    -0.192 N 
HETATM    4  C   UNL     1      24.800  44.627  50.214  1.00  0.00     0.725 A 
HETATM    5  N   UNL     1      23.536  44.353  49.766  1.00  0.00    -0.084 N 
HETATM    6  N   UNL     1      23.163  43.096  50.087  1.00  0.00    -0.149 NA
HETATM    7  C   UNL     1      24.277  42.654  50.680  1.00  0.00     0.275 A 
HETATM    8  N   UNL     1      25.302  43.560  50.781  1.00  0.00    -0.054 NA
HETATM    9  C   UNL     1      22.656  45.346  49.140  1.00  0.00     0.204 A 
HETATM   10  C   UNL     1      23.326  46.712  49.050  1.00  0.00     0.062 A 
HETATM   11  H   UNL     1      26.228  46.062  50.432  1.00  0.00     0.184 HD
ENDROOT
BRANCH  10  12
HETATM   12  C   UNL     1      22.434  47.779  48.528  1.00  0.00     0.256 C 
HETATM   13  N   UNL     1      21.714  48.422  49.509  1.00  0.00    -0.323 N 
HETATM   14  H   UNL     1      21.854  48.113  50.463  1.00  0.00     0.169 HD
HETATM   15  O   UNL     1      22.459  48.025  47.328  1.00  0.00    -0.267 OA
BRANCH  13  16
HETATM   16  C   UNL     1      20.787  49.472  49.331  1.00  0.00     0.035 A 
HETATM   17  C   UNL     1      21.126  50.739  48.859  1.00  0.00     0.032 A 
HETATM   18  C   UNL     1      20.143  51.723  48.704  1.00  0.00     0.039 A 
HETATM   19  C   UNL     1      18.809  51.457  49.007  1.00  0.00     0.068 A 
HETATM   20  C   UNL     1      18.464  50.193  49.483  1.00  0.00     0.039 A 
HETATM   21  C   UNL     1      19.449  49.210  49.647  1.00  0.00     0.032 A 
BRANCH  19  22
HETATM   22  O   UNL     1      17.955  52.504  48.801  1.00  0.00    -0.356 OA
HETATM   23  C   UNL     1      16.984  52.753  49.809  1.00  0.00     0.210 C 
ENDBRANCH  19  22
ENDBRANCH  13  16
ENDBRANCH  10  12
BRANCH   9  24
HETATM   24  C   UNL     1      22.098  44.832  47.812  1.00  0.00    -0.006 A 
HETATM   25  C   UNL     1      20.730  44.800  47.480  1.00  0.00     0.044 A 
HETATM   26 CL   UNL     1      19.492  45.295  48.577  1.00  0.00    -0.084 Cl
HETATM   27  C   UNL     1      20.305  44.329  46.233  1.00  0.00     0.048 A 
HETATM   28  C   UNL     1      21.238  43.871  45.307  1.00  0.00     0.035 A 
HETATM   29 CL   UNL     1      20.708  43.291  43.777  1.00  0.00    -0.084 Cl
HETATM   30  C   UNL     1      22.592  43.875  45.614  1.00  0.00     0.024 A 
HETATM   31  C   UNL     1      23.018  44.353  46.856  1.00  0.00     0.013 A 
ENDBRANCH   9  24
TORSDOF 4
ENDMDL
MODEL 4
REMARK VINA RESULT:      -7.4     16.470     18.002
REMARK  4 active torsions:
REMARK  status: ('A' for Active; 'I' for Inactive)
REMARK    1  A    between atoms: C_9  and  C_10 
REMARK    2  A    between atoms: C_18  and  C_19 
REMARK       I    between atoms: C_19  and  N_20 
REMARK    3  A    between atoms: N_20  and  C_21 
REMARK    4  A    between atoms: C_24  and  O_25 
ROOT
HETATM    1  C   UNL     1      35.513  43.683  65.681  1.00  0.00     0.070 C 
HETATM    2  C   UNL     1      36.812  43.148  65.137  1.00  0.00     0.037 A 
HETATM    3  N   UNL     1      36.961  41.765  65.190  1.00  0.00    -0.192 N 
HETATM    4  C   UNL     1      37.989  41.106  64.622  1.00  0.00     0.725 A 
HETATM    5  N   UNL     1      38.996  41.816  64.027  1.00  0.00    -0.084 N 
HETATM    6  N   UNL     1      39.897  40.997  63.443  1.00  0.00    -0.149 NA
HETATM    7  C   UNL     1      39.392  39.803  63.775  1.00  0.00     0.275 A 
HETATM    8  N   UNL     1      38.225  39.825  64.494  1.00  0.00    -0.054 NA
HETATM    9  C   UNL     1      39.017  43.280  63.925  1.00  0.00     0.204 A 
HETATM   10  C   UNL     1      37.782  43.904  64.564  1.00  0.00     0.062 A 
HETATM   11  H   UNL     1      36.197  41.220  65.582  1.00  0.00     0.184 HD
ENDROOT
BRANCH  10  12
HETATM   12  C   UNL     1      37.700  45.377  64.385  1.00  0.00     0.256 C 
HETATM   13  N   UNL     1      38.288  46.089  65.406  1.00  0.00    -0.323 N 
HETATM   14  H   UNL     1      38.704  45.556  66.161  1.00  0.00     0.169 HD
HETATM   15  O   UNL     1      37.191  45.812  63.360  1.00  0.00    -0.267 OA
BRANCH  13  16
HETATM   16  C   UNL     1      38.371  47.492  65.524  1.00  0.00     0.035 A 
HETATM   17  C   UNL     1      39.408  48.258  64.994  1.00  0.00     0.032 A 
HETATM   18  C   UNL     1      39.411  49.650  65.148  1.00  0.00     0.039 A 
HETATM   19  C   UNL     1      38.378  50.298  65.823  1.00  0.00     0.068 A 
HETATM   20  C   UNL     1      37.340  49.538  66.359  1.00  0.00     0.039 A 
HETATM   21  C   UNL     1      37.341  48.144  66.212  1.00  0.00     0.032 A 
BRANCH  19  22
HETATM   22  O   UNL     1      38.504  51.657  65.892  1.00  0.00    -0.356 OA
HETATM   23  C   UNL     1      37.927  52.303  67.020  1.00  0.00     0.210 C 
ENDBRANCH  19  22
ENDBRANCH  13  16
ENDBRANCH  10  12
BRANCH   9  24
HETATM   24  C   UNL     1      40.342  43.852  64.431  1.00  0.00    -0.006 A 
HETATM   25  C   UNL     1      40.828  43.699  65.743  1.00  0.00     0.044 A 
HETATM   26 CL   UNL     1      39.942  42.879  66.977  1.00  0.00    -0.084 Cl
HETATM   27  C   UNL     1      42.063  44.242  66.118  1.00  0.00     0.048 A 
HETATM   28  C   UNL     1      42.820  44.954  65.194  1.00  0.00     0.035 A 
HETATM   29 CL   UNL     1      44.335  45.621  65.663  1.00  0.00    -0.084 Cl
HETATM   30  C   UNL     1      42.357  45.136  63.897  1.00  0.00     0.024 A 
HETATM   31  C   UNL     1      41.128  44.588  63.519  1.00  0.00     0.013 A 
ENDBRANCH   9  24
TORSDOF 4
ENDMDL
MODEL 5
REMARK VINA RESULT:      -7.3      9.384     12.100
REMARK  4 active torsions:
REMARK  status: ('A' for Active; 'I' for Inactive)
REMARK    1  A    between atoms: C_9  and  C_10 
REMARK    2  A    between atoms: C_18  and  C_19 
REMARK       I    between atoms: C_19  and  N_20 
REMARK    3  A    between atoms: N_20  and  C_21 
REMARK    4  A    between atoms: C_24  and  O_25 
ROOT
HETATM    1  C   UNL     1      22.757  50.068  48.201  1.00  0.00     0.070 C 
HETATM    2  C   UNL     1      22.112  48.705  48.187  1.00  0.00     0.037 A 
HETATM    3  N   UNL     1      22.971  47.633  48.413  1.00  0.00    -0.192 N 
HETATM    4  C   UNL     1      22.548  46.365  48.576  1.00  0.00     0.725 A 
HETATM    5  N   UNL     1      21.218  46.076  48.434  1.00  0.00    -0.084 N 
HETATM    6  N   UNL     1      20.965  44.779  48.711  1.00  0.00    -0.149 NA
HETATM    7  C   UNL     1      22.202  44.335  48.959  1.00  0.00     0.275 A 
HETATM    8  N   UNL     1      23.200  45.274  48.890  1.00  0.00    -0.054 NA
HETATM    9  C   UNL     1      20.187  47.081  48.151  1.00  0.00     0.204 A 
HETATM   10  C   UNL     1      20.784  48.478  48.033  1.00  0.00     0.062 A 
HETATM   11  H   UNL     1      23.954  47.837  48.572  1.00  0.00     0.184 HD
ENDROOT
BRANCH  10  12
HETATM   12  C   UNL     1      19.766  49.547  47.860  1.00  0.00     0.256 C 
HETATM   13  N   UNL     1      18.963  49.725  48.964  1.00  0.00    -0.323 N 
HETATM   14  H   UNL     1      19.136  49.126  49.763  1.00  0.00     0.169 HD
HETATM   15  O   UNL     1      19.767  50.190  46.818  1.00  0.00    -0.267 OA
BRANCH  13  16
HETATM   16  C   UNL     1      17.912  50.655  49.108  1.00  0.00     0.035 A 
HETATM   17  C   UNL     1      18.027  51.861  49.797  1.00  0.00     0.032 A 
HETATM   18  C   UNL     1      16.936  52.734  49.885  1.00  0.00     0.039 A 
HETATM   19  C   UNL     1      15.719  52.422  49.282  1.00  0.00     0.068 A 
HETATM   20  C   UNL     1      15.596  51.215  48.595  1.00  0.00     0.039 A 
HETATM   21  C   UNL     1      16.685  50.338  48.513  1.00  0.00     0.032 A 
BRANCH  19  22
HETATM   22  O   UNL     1      14.743  53.365  49.441  1.00  0.00    -0.356 OA
HETATM   23  C   UNL     1      14.075  53.400  50.695  1.00  0.00     0.210 C 
ENDBRANCH  19  22
ENDBRANCH  13  16
ENDBRANCH  10  12
BRANCH   9  24
HETATM   24  C   UNL     1      19.321  46.665  46.961  1.00  0.00    -0.006 A 
HETATM   25  C   UNL     1      17.931  46.453  47.021  1.00  0.00     0.044 A 
HETATM   26 CL   UNL     1      17.029  46.584  48.488  1.00  0.00    -0.084 Cl
HETATM   27  C   UNL     1      17.210  46.090  45.877  1.00  0.00     0.048 A 
HETATM   28  C   UNL     1      17.869  45.922  44.664  1.00  0.00     0.035 A 
HETATM   29 CL   UNL     1      16.978  45.474  43.263  1.00  0.00    -0.084 Cl
HETATM   30  C   UNL     1      19.243  46.109  44.579  1.00  0.00     0.024 A 
HETATM   31  C   UNL     1      19.962  46.478  45.718  1.00  0.00     0.013 A 
ENDBRANCH   9  24
TORSDOF 4
ENDMDL
MODEL 6
REMARK VINA RESULT:      -7.2     11.868     14.482
REMARK  4 active torsions:
REMARK  status: ('A' for Active; 'I' for Inactive)
REMARK    1  A    between atoms: C_9  and  C_10 
REMARK    2  A    between atoms: C_18  and  C_19 
REMARK       I    between atoms: C_19  and  N_20 
REMARK    3  A    between atoms: N_20  and  C_21 
REMARK    4  A    between atoms: C_24  and  O_25 
ROOT
HETATM    1  C   UNL     1      15.868  53.016  50.186  1.00  0.00     0.070 C 
HETATM    2  C   UNL     1      15.669  52.836  48.703  1.00  0.00     0.037 A 
HETATM    3  N   UNL     1      14.671  53.621  48.132  1.00  0.00    -0.192 N 
HETATM    4  C   UNL     1      14.453  53.695  46.805  1.00  0.00     0.725 A 
HETATM    5  N   UNL     1      15.182  52.904  45.958  1.00  0.00    -0.084 N 
HETATM    6  N   UNL     1      14.890  53.167  44.667  1.00  0.00    -0.149 NA
HETATM    7  C   UNL     1      13.934  54.092  44.815  1.00  0.00     0.275 A 
HETATM    8  N   UNL     1      13.639  54.446  46.107  1.00  0.00    -0.054 NA
HETATM    9  C   UNL     1      16.240  51.988  46.400  1.00  0.00     0.204 A 
HETATM   10  C   UNL     1      16.419  52.027  47.913  1.00  0.00     0.062 A 
HETATM   11  H   UNL     1      14.156  54.252  48.741  1.00  0.00     0.184 HD
ENDROOT
BRANCH  10  12
HETATM   12  C   UNL     1      17.556  51.203  48.399  1.00  0.00     0.256 C 
HETATM   13  N   UNL     1      18.789  51.746  48.118  1.00  0.00    -0.323 N 
HETATM   14  H   UNL     1      18.803  52.628  47.618  1.00  0.00     0.169 HD
HETATM   15  O   UNL     1      17.308  50.185  49.033  1.00  0.00    -0.267 OA
BRANCH  13  16
HETATM   16  C   UNL     1      20.050  51.204  48.446  1.00  0.00     0.035 A 
HETATM   17  C   UNL     1      20.905  50.606  47.522  1.00  0.00     0.032 A 
HETATM   18  C   UNL     1      22.145  50.101  47.929  1.00  0.00     0.039 A 
HETATM   19  C   UNL     1      22.555  50.191  49.258  1.00  0.00     0.068 A 
HETATM   20  C   UNL     1      21.703  50.784  50.188  1.00  0.00     0.039 A 
HETATM   21  C   UNL     1      20.457  51.283  49.783  1.00  0.00     0.032 A 
BRANCH  19  22
HETATM   22  O   UNL     1      23.790  49.664  49.514  1.00  0.00    -0.356 OA
HETATM   23  C   UNL     1      24.729  49.674  48.447  1.00  0.00     0.210 C 
ENDBRANCH  19  22
ENDBRANCH  13  16
ENDBRANCH  10  12
BRANCH   9  24
HETATM   24  C   UNL     1      16.031  50.585  45.830  1.00  0.00    -0.006 A 
HETATM   25  C   UNL     1      16.953  49.913  45.006  1.00  0.00     0.044 A 
HETATM   26 CL   UNL     1      18.436  50.630  44.487  1.00  0.00    -0.084 Cl
HETATM   27  C   UNL     1      16.690  48.619  44.540  1.00  0.00     0.048 A 
HETATM   28  C   UNL     1      15.498  47.987  44.878  1.00  0.00     0.035 A 
HETATM   29 CL   UNL     1      15.179  46.399  44.300  1.00  0.00    -0.084 Cl
HETATM   30  C   UNL     1      14.561  48.633  45.675  1.00  0.00     0.024 A 
HETATM   31  C   UNL     1      14.826  49.921  46.147  1.00  0.00     0.013 A 
ENDBRANCH   9  24
TORSDOF 4
ENDMDL
MODEL 7
REMARK VINA RESULT:      -7.0     14.798     17.521
REMARK  4 active torsions:
REMARK  status: ('A' for Active; 'I' for Inactive)
REMARK    1  A    between atoms: C_9  and  C_10 
REMARK    2  A    between atoms: C_18  and  C_19 
REMARK       I    between atoms: C_19  and  N_20 
REMARK    3  A    between atoms: N_20  and  C_21 
REMARK    4  A    between atoms: C_24  and  O_25 
ROOT
HETATM    1  C   UNL     1      33.931  52.157  44.412  1.00  0.00     0.070 C 
HETATM    2  C   UNL     1      35.259  51.859  43.764  1.00  0.00     0.037 A 
HETATM    3  N   UNL     1      36.380  52.125  44.544  1.00  0.00    -0.192 N 
HETATM    4  C   UNL     1      37.633  51.788  44.184  1.00  0.00     0.725 A 
HETATM    5  N   UNL     1      37.851  51.229  42.953  1.00  0.00    -0.084 N 
HETATM    6  N   UNL     1      39.146  50.882  42.794  1.00  0.00    -0.149 NA
HETATM    7  C   UNL     1      39.660  51.315  43.951  1.00  0.00     0.275 A 
HETATM    8  N   UNL     1      38.767  51.873  44.830  1.00  0.00    -0.054 NA
HETATM    9  C   UNL     1      36.785  50.924  41.992  1.00  0.00     0.204 A 
HETATM   10  C   UNL     1      35.414  51.310  42.533  1.00  0.00     0.062 A 
HETATM   11  H   UNL     1      36.231  52.493  45.480  1.00  0.00     0.184 HD
ENDROOT
BRANCH  10  12
HETATM   12  C   UNL     1      34.291  50.916  41.644  1.00  0.00     0.256 C 
HETATM   13  N   UNL     1      33.611  51.986  41.108  1.00  0.00    -0.323 N 
HETATM   14  H   UNL     1      33.930  52.913  41.368  1.00  0.00     0.169 HD
HETATM   15  O   UNL     1      34.112  49.724  41.425  1.00  0.00    -0.267 OA
BRANCH  13  16
HETATM   16  C   UNL     1      32.505  51.938  40.235  1.00  0.00     0.035 A 
HETATM   17  C   UNL     1      31.218  52.343  40.584  1.00  0.00     0.032 A 
HETATM   18  C   UNL     1      30.175  52.270  39.652  1.00  0.00     0.039 A 
HETATM   19  C   UNL     1      30.401  51.803  38.359  1.00  0.00     0.068 A 
HETATM   20  C   UNL     1      31.685  51.393  38.004  1.00  0.00     0.039 A 
HETATM   21  C   UNL     1      32.727  51.457  38.939  1.00  0.00     0.032 A 
BRANCH  19  22
HETATM   22  O   UNL     1      29.297  51.793  37.553  1.00  0.00    -0.356 OA
HETATM   23  C   UNL     1      28.035  51.635  38.187  1.00  0.00     0.210 C 
ENDBRANCH  19  22
ENDBRANCH  13  16
ENDBRANCH  10  12
BRANCH   9  24
HETATM   24  C   UNL     1      37.102  51.504  40.613  1.00  0.00    -0.006 A 
HETATM   25  C   UNL     1      37.302  52.872  40.349  1.00  0.00     0.044 A 
HETATM   26 CL   UNL     1      37.157  54.088  41.566  1.00  0.00    -0.084 Cl
HETATM   27  C   UNL     1      37.605  53.316  39.056  1.00  0.00     0.048 A 
HETATM   28  C   UNL     1      37.699  52.404  38.011  1.00  0.00     0.035 A 
HETATM   29 CL   UNL     1      38.069  52.958  36.425  1.00  0.00    -0.084 Cl
HETATM   30  C   UNL     1      37.489  51.050  38.239  1.00  0.00     0.024 A 
HETATM   31  C   UNL     1      37.193  50.604  39.529  1.00  0.00     0.013 A 
ENDBRANCH   9  24
TORSDOF 4
ENDMDL
MODEL 8
REMARK VINA RESULT:      -6.9      3.863      6.181
REMARK  4 active torsions:
REMARK  status: ('A' for Active; 'I' for Inactive)
REMARK    1  A    between atoms: C_9  and  C_10 
REMARK    2  A    between atoms: C_18  and  C_19 
REMARK       I    between atoms: C_19  and  N_20 
REMARK    3  A    between atoms: N_20  and  C_21 
REMARK    4  A    between atoms: C_24  and  O_25 
ROOT
HETATM    1  C   UNL     1      28.725  42.517  51.843  1.00  0.00     0.070 C 
HETATM    2  C   UNL     1      28.078  41.438  51.011  1.00  0.00     0.037 A 
HETATM    3  N   UNL     1      28.810  40.261  50.881  1.00  0.00    -0.192 N 
HETATM    4  C   UNL     1      28.328  39.147  50.298  1.00  0.00     0.725 A 
HETATM    5  N   UNL     1      27.086  39.174  49.722  1.00  0.00    -0.084 N 
HETATM    6  N   UNL     1      26.733  37.956  49.259  1.00  0.00    -0.149 NA
HETATM    7  C   UNL     1      27.837  37.256  49.545  1.00  0.00     0.275 A 
HETATM    8  N   UNL     1      28.835  37.947  50.183  1.00  0.00    -0.054 NA
HETATM    9  C   UNL     1      26.204  40.347  49.730  1.00  0.00     0.204 A 
HETATM   10  C   UNL     1      26.844  41.524  50.455  1.00  0.00     0.062 A 
HETATM   11  H   UNL     1      29.712  40.208  51.348  1.00  0.00     0.184 HD
ENDROOT
BRANCH  10  12
HETATM   12  C   UNL     1      25.944  42.699  50.591  1.00  0.00     0.256 C 
HETATM   13  N   UNL     1      26.353  43.792  49.861  1.00  0.00    -0.323 N 
HETATM   14  H   UNL     1      27.205  43.695  49.321  1.00  0.00     0.169 HD
HETATM   15  O   UNL     1      24.928  42.580  51.264  1.00  0.00    -0.267 OA
BRANCH  13  16
HETATM   16  C   UNL     1      25.716  45.048  49.785  1.00  0.00     0.035 A 
HETATM   17  C   UNL     1      24.395  45.229  49.376  1.00  0.00     0.032 A 
HETATM   18  C   UNL     1      23.835  46.511  49.337  1.00  0.00     0.039 A 
HETATM   19  C   UNL     1      24.577  47.629  49.713  1.00  0.00     0.068 A 
HETATM   20  C   UNL     1      25.899  47.456  50.120  1.00  0.00     0.039 A 
HETATM   21  C   UNL     1      26.463  46.174  50.151  1.00  0.00     0.032 A 
BRANCH  19  22
HETATM   22  O   UNL     1      23.904  48.816  49.634  1.00  0.00    -0.356 OA
HETATM   23  C   UNL     1      24.320  49.729  48.627  1.00  0.00     0.210 C 
ENDBRANCH  19  22
ENDBRANCH  13  16
ENDBRANCH  10  12
BRANCH   9  24
HETATM   24  C   UNL     1      25.704  40.674  48.322  1.00  0.00    -0.006 A 
HETATM   25  C   UNL     1      26.538  40.880  47.207  1.00  0.00     0.044 A 
HETATM   26 CL   UNL     1      28.261  40.843  47.311  1.00  0.00    -0.084 Cl
HETATM   27  C   UNL     1      25.995  41.159  45.947  1.00  0.00     0.048 A 
HETATM   28  C   UNL     1      24.616  41.248  45.788  1.00  0.00     0.035 A 
HETATM   29 CL   UNL     1      23.956  41.594  44.237  1.00  0.00    -0.084 Cl
HETATM   30  C   UNL     1      23.770  41.066  46.874  1.00  0.00     0.024 A 
HETATM   31  C   UNL     1      24.310  40.781  48.131  1.00  0.00     0.013 A 
ENDBRANCH   9  24
TORSDOF 4
ENDMDL
MODEL 9
REMARK VINA RESULT:      -6.8      9.289     12.964
REMARK  4 active torsions:
REMARK  status: ('A' for Active; 'I' for Inactive)
REMARK    1  A    between atoms: C_9  and  C_10 
REMARK    2  A    between atoms: C_18  and  C_19 
REMARK       I    between atoms: C_19  and  N_20 
REMARK    3  A    between atoms: N_20  and  C_21 
REMARK    4  A    between atoms: C_24  and  O_25 
ROOT
HETATM    1  C   UNL     1      20.821  45.144  48.822  1.00  0.00     0.070 C 
HETATM    2  C   UNL     1      21.104  46.595  48.528  1.00  0.00     0.037 A 
HETATM    3  N   UNL     1      22.380  47.038  48.866  1.00  0.00    -0.192 N 
HETATM    4  C   UNL     1      22.852  48.258  48.546  1.00  0.00     0.725 A 
HETATM    5  N   UNL     1      22.026  49.157  47.928  1.00  0.00    -0.084 N 
HETATM    6  N   UNL     1      22.685  50.292  47.610  1.00  0.00    -0.149 NA
HETATM    7  C   UNL     1      23.893  50.023  48.118  1.00  0.00     0.275 A 
HETATM    8  N   UNL     1      24.038  48.789  48.697  1.00  0.00    -0.054 NA
HETATM    9  C   UNL     1      20.640  48.866  47.542  1.00  0.00     0.204 A 
HETATM   10  C   UNL     1      20.240  47.445  47.918  1.00  0.00     0.062 A 
HETATM   11  H   UNL     1      23.022  46.367  49.279  1.00  0.00     0.184 HD
ENDROOT
BRANCH  10  12
HETATM   12  C   UNL     1      18.884  47.064  47.445  1.00  0.00     0.256 C 
HETATM   13  N   UNL     1      18.850  46.678  46.124  1.00  0.00    -0.323 N 
HETATM   14  H   UNL     1      19.726  46.695  45.615  1.00  0.00     0.169 HD
HETATM   15  O   UNL     1      17.963  47.067  48.253  1.00  0.00    -0.267 OA
BRANCH  13  16
HETATM   16  C   UNL     1      17.719  46.264  45.390  1.00  0.00     0.035 A 
HETATM   17  C   UNL     1      16.864  47.136  44.718  1.00  0.00     0.032 A 
HETATM   18  C   UNL     1      15.766  46.641  44.003  1.00  0.00     0.039 A 
HETATM   19  C   UNL     1      15.510  45.272  43.941  1.00  0.00     0.068 A 
HETATM   20  C   UNL     1      16.359  44.395  44.613  1.00  0.00     0.039 A 
HETATM   21  C   UNL     1      17.453  44.890  45.336  1.00  0.00     0.032 A 
BRANCH  19  22
HETATM   22  O   UNL     1      14.412  44.929  43.203  1.00  0.00    -0.356 OA
HETATM   23  C   UNL     1      13.176  44.823  43.897  1.00  0.00     0.210 C 
ENDBRANCH  19  22
ENDBRANCH  13  16
ENDBRANCH  10  12
BRANCH   9  24
HETATM   24  C   UNL     1      19.684  49.944  48.056  1.00  0.00    -0.006 A 
HETATM   25  C   UNL     1      18.826  50.704  47.239  1.00  0.00     0.044 A 
HETATM   26 CL   UNL     1      18.791  50.547  45.520  1.00  0.00    -0.084 Cl
HETATM   27  C   UNL     1      17.968  51.661  47.796  1.00  0.00     0.048 A 
HETATM   28  C   UNL     1      17.966  51.879  49.169  1.00  0.00     0.035 A 
HETATM   29 CL   UNL     1      16.912  53.058  49.845  1.00  0.00    -0.084 Cl
HETATM   30  C   UNL     1      18.815  51.155  49.997  1.00  0.00     0.024 A 
HETATM   31  C   UNL     1      19.666  50.195  49.444  1.00  0.00     0.013 A 
ENDBRANCH   9  24
TORSDOF 4
ENDMDL
MODEL 10
REMARK VINA RESULT:      -6.8     12.674     15.487
REMARK  4 active torsions:
REMARK  status: ('A' for Active; 'I' for Inactive)
REMARK    1  A    between atoms: C_9  and  C_10 
REMARK    2  A    between atoms: C_18  and  C_19 
REMARK       I    between atoms: C_19  and  N_20 
REMARK    3  A    between atoms: N_20  and  C_21 
REMARK    4  A    between atoms: C_24  and  O_25 
ROOT
HETATM    1  C   UNL     1      28.419  52.373  38.670  1.00  0.00     0.070 C 
HETATM    2  C   UNL     1      28.852  51.209  39.525  1.00  0.00     0.037 A 
HETATM    3  N   UNL     1      29.978  51.429  40.313  1.00  0.00    -0.192 N 
HETATM    4  C   UNL     1      30.419  50.556  41.239  1.00  0.00     0.725 A 
HETATM    5  N   UNL     1      29.795  49.346  41.373  1.00  0.00    -0.084 N 
HETATM    6  N   UNL     1      30.314  48.635  42.396  1.00  0.00    -0.149 NA
HETATM    7  C   UNL     1      31.287  49.461  42.799  1.00  0.00     0.275 A 
HETATM    8  N   UNL     1      31.384  50.648  42.118  1.00  0.00    -0.054 NA
HETATM    9  C   UNL     1      28.623  48.937  40.589  1.00  0.00     0.204 A 
HETATM   10  C   UNL     1      28.196  50.025  39.611  1.00  0.00     0.062 A 
HETATM   11  H   UNL     1      30.422  52.342  40.262  1.00  0.00     0.184 HD
ENDROOT
BRANCH  10  12
HETATM   12  C   UNL     1      26.945  49.705  38.876  1.00  0.00     0.256 C 
HETATM   13  N   UNL     1      25.854  49.530  39.696  1.00  0.00    -0.323 N 
HETATM   14  H   UNL     1      26.005  49.629  40.693  1.00  0.00     0.169 HD
HETATM   15  O   UNL     1      26.978  49.685  37.652  1.00  0.00    -0.267 OA
BRANCH  13  16
HETATM   16  C   UNL     1      24.536  49.219  39.301  1.00  0.00     0.035 A 
HETATM   17  C   UNL     1      23.736  50.058  38.527  1.00  0.00     0.032 A 
HETATM   18  C   UNL     1      22.439  49.669  38.170  1.00  0.00     0.039 A 
HETATM   19  C   UNL     1      21.924  48.437  38.571  1.00  0.00     0.068 A 
HETATM   20  C   UNL     1      22.718  47.595  39.348  1.00  0.00     0.039 A 
HETATM   21  C   UNL     1      24.013  47.987  39.713  1.00  0.00     0.032 A 
BRANCH  19  22
HETATM   22  O   UNL     1      20.650  48.183  38.146  1.00  0.00    -0.356 OA
HETATM   23  C   UNL     1      19.596  48.836  38.841  1.00  0.00     0.210 C 
ENDBRANCH  19  22
ENDBRANCH  13  16
ENDBRANCH  10  12
BRANCH   9  24
HETATM   24  C   UNL     1      28.837  47.565  39.948  1.00  0.00    -0.006 A 
HETATM   25  C   UNL     1      28.089  46.414  40.258  1.00  0.00     0.044 A 
HETATM   26 CL   UNL     1      26.854  46.400  41.465  1.00  0.00    -0.084 Cl
HETATM   27  C   UNL     1      28.340  45.199  39.610  1.00  0.00     0.048 A 
HETATM   28  C   UNL     1      29.347  45.115  38.655  1.00  0.00     0.035 A 
HETATM   29 CL   UNL     1      29.652  43.618  37.863  1.00  0.00    -0.084 Cl
HETATM   30  C   UNL     1      30.113  46.231  38.340  1.00  0.00     0.024 A 
HETATM   31  C   UNL     1      29.859  47.446  38.982  1.00  0.00     0.013 A 
ENDBRANCH   9  24
TORSDOF 4
ENDMDL
