MODEL 1
REMARK VINA RESULT:      -9.6      0.000      0.000
REMARK  3 active torsions:
REMARK  status: ('A' for Active; 'I' for Inactive)
REMARK    1  A    between atoms: C_2  and  C_3 
REMARK    2  A    between atoms: C_5  and  N_6 
REMARK       I    between atoms: N_6  and  C_7 
REMARK    3  A    between atoms: C_7  and  C_8 
ROOT
HETATM    1  C   UNL     1      26.893  45.790  52.753  1.00  0.00     0.155 A 
HETATM    2  N   UNL     1      27.004  44.558  52.197  1.00  0.00    -0.168 NA
HETATM    3  N   UNL     1      27.901  43.922  52.985  1.00  0.00    -0.276 N 
HETATM    4  H   UNL     1      28.151  42.966  52.758  1.00  0.00     0.189 HD
HETATM    5  C   UNL     1      28.359  44.693  54.004  1.00  0.00     0.074 A 
HETATM    6  C   UNL     1      27.721  45.898  53.894  1.00  0.00     0.031 A 
HETATM    7  C   UNL     1      27.976  47.003  54.843  1.00  0.00     0.219 A 
HETATM    8  O   UNL     1      28.880  46.689  55.942  1.00  0.00    -0.346 OA
HETATM    9  C   UNL     1      29.525  45.472  55.971  1.00  0.00     0.081 A 
HETATM   10  C   UNL     1      29.316  44.429  55.047  1.00  0.00     0.026 A 
HETATM   11  C   UNL     1      30.437  45.300  57.012  1.00  0.00     0.038 A 
HETATM   12  C   UNL     1      31.144  44.103  57.133  1.00  0.00     0.003 A 
HETATM   13  C   UNL     1      30.938  43.072  56.215  1.00  0.00     0.001 A 
HETATM   14  C   UNL     1      30.024  43.231  55.170  1.00  0.00     0.016 A 
ENDROOT
BRANCH   1  15
HETATM   15  C   UNL     1      26.018  46.831  52.182  1.00  0.00     0.277 C 
HETATM   16  N   UNL     1      26.227  46.985  50.827  1.00  0.00    -0.322 N 
HETATM   17  H   UNL     1      26.930  46.349  50.455  1.00  0.00     0.169 HD
HETATM   18  O   UNL     1      25.228  47.451  52.883  1.00  0.00    -0.266 OA
BRANCH  16  19
HETATM   19  C   UNL     1      25.621  47.891  49.942  1.00  0.00     0.035 A 
HETATM   20  C   UNL     1      24.247  47.934  49.692  1.00  0.00     0.036 A 
HETATM   21  C   UNL     1      23.704  48.877  48.802  1.00  0.00    -0.056 A 
HETATM   22  C   UNL     1      24.559  49.773  48.150  1.00  0.00     0.007 A 
HETATM   23  C   UNL     1      25.930  49.736  48.393  1.00  0.00     0.003 A 
HETATM   24  C   UNL     1      26.457  48.801  49.285  1.00  0.00     0.029 A 
BRANCH  21  25
HETATM   25  C   UNL     1      22.220  48.903  48.537  1.00  0.00     0.034 C 
HETATM   26  C   UNL     1      21.771  50.236  47.959  1.00  0.00     0.010 C 
ENDBRANCH  21  25
ENDBRANCH  16  19
ENDBRANCH   1  15
TORSDOF 3
ENDMDL
MODEL 2
REMARK VINA RESULT:      -9.5      2.078      8.806
REMARK  3 active torsions:
REMARK  status: ('A' for Active; 'I' for Inactive)
REMARK    1  A    between atoms: C_2  and  C_3 
REMARK    2  A    between atoms: C_5  and  N_6 
REMARK       I    between atoms: N_6  and  C_7 
REMARK    3  A    between atoms: C_7  and  C_8 
ROOT
HETATM    1  C   UNL     1      25.431  45.630  50.269  1.00  0.00     0.155 A 
HETATM    2  N   UNL     1      24.233  44.995  50.301  1.00  0.00    -0.168 NA
HETATM    3  N   UNL     1      23.357  45.925  49.857  1.00  0.00    -0.276 N 
HETATM    4  H   UNL     1      22.377  45.675  49.795  1.00  0.00     0.189 HD
HETATM    5  C   UNL     1      23.945  47.110  49.551  1.00  0.00     0.074 A 
HETATM    6  C   UNL     1      25.282  46.952  49.793  1.00  0.00     0.031 A 
HETATM    7  C   UNL     1      26.248  48.051  49.573  1.00  0.00     0.219 A 
HETATM    8  O   UNL     1      25.691  49.271  49.006  1.00  0.00    -0.346 OA
HETATM    9  C   UNL     1      24.328  49.384  48.828  1.00  0.00     0.081 A 
HETATM   10  C   UNL     1      23.398  48.354  49.073  1.00  0.00     0.026 A 
HETATM   11  C   UNL     1      23.883  50.621  48.365  1.00  0.00     0.038 A 
HETATM   12  C   UNL     1      22.521  50.840  48.150  1.00  0.00     0.003 A 
HETATM   13  C   UNL     1      21.601  49.819  48.396  1.00  0.00     0.001 A 
HETATM   14  C   UNL     1      22.036  48.574  48.857  1.00  0.00     0.016 A 
ENDROOT
BRANCH   1  15
HETATM   15  C   UNL     1      26.677  44.971  50.704  1.00  0.00     0.277 C 
HETATM   16  N   UNL     1      26.585  44.512  52.002  1.00  0.00    -0.322 N 
HETATM   17  H   UNL     1      25.677  44.690  52.426  1.00  0.00     0.169 HD
HETATM   18  O   UNL     1      27.643  44.883  49.955  1.00  0.00    -0.266 OA
BRANCH  16  19
HETATM   19  C   UNL     1      27.563  43.870  52.778  1.00  0.00     0.035 A 
HETATM   20  C   UNL     1      28.315  44.510  53.768  1.00  0.00     0.036 A 
HETATM   21  C   UNL     1      29.271  43.803  54.517  1.00  0.00    -0.056 A 
HETATM   22  C   UNL     1      29.477  42.444  54.255  1.00  0.00     0.007 A 
HETATM   23  C   UNL     1      28.733  41.800  53.270  1.00  0.00     0.003 A 
HETATM   24  C   UNL     1      27.780  42.509  52.537  1.00  0.00     0.029 A 
BRANCH  21  25
HETATM   25  C   UNL     1      30.080  44.511  55.574  1.00  0.00     0.034 C 
HETATM   26  C   UNL     1      31.021  43.561  56.299  1.00  0.00     0.010 C 
ENDBRANCH  21  25
ENDBRANCH  16  19
ENDBRANCH   1  15
TORSDOF 3
ENDMDL
MODEL 3
REMARK VINA RESULT:      -9.1      4.564      6.604
REMARK  3 active torsions:
REMARK  status: ('A' for Active; 'I' for Inactive)
REMARK    1  A    between atoms: C_2  and  C_3 
REMARK    2  A    between atoms: C_5  and  N_6 
REMARK       I    between atoms: N_6  and  C_7 
REMARK    3  A    between atoms: C_7  and  C_8 
ROOT
HETATM    1  C   UNL     1      27.893  44.294  52.906  1.00  0.00     0.155 A 
HETATM    2  N   UNL     1      27.102  45.322  53.299  1.00  0.00    -0.168 NA
HETATM    3  N   UNL     1      27.621  45.700  54.489  1.00  0.00    -0.276 N 
HETATM    4  H   UNL     1      27.183  46.468  54.985  1.00  0.00     0.189 HD
HETATM    5  C   UNL     1      28.696  44.960  54.862  1.00  0.00     0.074 A 
HETATM    6  C   UNL     1      28.907  44.052  53.861  1.00  0.00     0.031 A 
HETATM    7  C   UNL     1      30.006  43.064  53.924  1.00  0.00     0.219 A 
HETATM    8  O   UNL     1      30.888  43.182  55.077  1.00  0.00    -0.346 OA
HETATM    9  C   UNL     1      30.595  44.087  56.075  1.00  0.00     0.081 A 
HETATM   10  C   UNL     1      29.526  45.005  56.039  1.00  0.00     0.026 A 
HETATM   11  C   UNL     1      31.447  44.063  57.178  1.00  0.00     0.038 A 
HETATM   12  C   UNL     1      31.238  44.940  58.244  1.00  0.00     0.003 A 
HETATM   13  C   UNL     1      30.177  45.846  58.208  1.00  0.00     0.001 A 
HETATM   14  C   UNL     1      29.319  45.882  57.105  1.00  0.00     0.016 A 
ENDROOT
BRANCH   1  15
HETATM   15  C   UNL     1      27.657  43.561  51.647  1.00  0.00     0.277 C 
HETATM   16  N   UNL     1      27.523  42.206  51.864  1.00  0.00    -0.322 N 
HETATM   17  H   UNL     1      27.592  41.948  52.846  1.00  0.00     0.169 HD
HETATM   18  O   UNL     1      27.606  44.147  50.572  1.00  0.00    -0.266 OA
BRANCH  16  19
HETATM   19  C   UNL     1      27.328  41.181  50.924  1.00  0.00     0.035 A 
HETATM   20  C   UNL     1      28.306  40.245  50.578  1.00  0.00     0.036 A 
HETATM   21  C   UNL     1      28.038  39.236  49.637  1.00  0.00    -0.056 A 
HETATM   22  C   UNL     1      26.777  39.183  49.031  1.00  0.00     0.007 A 
HETATM   23  C   UNL     1      25.798  40.113  49.369  1.00  0.00     0.003 A 
HETATM   24  C   UNL     1      26.071  41.106  50.311  1.00  0.00     0.029 A 
BRANCH  21  25
HETATM   25  C   UNL     1      29.108  38.239  49.269  1.00  0.00     0.034 C 
HETATM   26  C   UNL     1      29.860  37.739  50.493  1.00  0.00     0.010 C 
ENDBRANCH  21  25
ENDBRANCH  16  19
ENDBRANCH   1  15
TORSDOF 3
ENDMDL
MODEL 4
REMARK VINA RESULT:      -9.0      1.825      2.490
REMARK  3 active torsions:
REMARK  status: ('A' for Active; 'I' for Inactive)
REMARK    1  A    between atoms: C_2  and  C_3 
REMARK    2  A    between atoms: C_5  and  N_6 
REMARK       I    between atoms: N_6  and  C_7 
REMARK    3  A    between atoms: C_7  and  C_8 
ROOT
HETATM    1  C   UNL     1      25.819  45.227  50.275  1.00  0.00     0.155 A 
HETATM    2  N   UNL     1      26.339  44.254  49.486  1.00  0.00    -0.168 NA
HETATM    3  N   UNL     1      27.290  43.680  50.258  1.00  0.00    -0.276 N 
HETATM    4  H   UNL     1      27.827  42.912  49.871  1.00  0.00     0.189 HD
HETATM    5  C   UNL     1      27.394  44.244  51.488  1.00  0.00     0.074 A 
HETATM    6  C   UNL     1      26.453  45.236  51.539  1.00  0.00     0.031 A 
HETATM    7  C   UNL     1      26.275  46.080  52.740  1.00  0.00     0.219 A 
HETATM    8  O   UNL     1      27.107  45.725  53.883  1.00  0.00    -0.346 OA
HETATM    9  C   UNL     1      28.068  44.746  53.753  1.00  0.00     0.081 A 
HETATM   10  C   UNL     1      28.269  43.965  52.597  1.00  0.00     0.026 A 
HETATM   11  C   UNL     1      28.873  44.541  54.874  1.00  0.00     0.038 A 
HETATM   12  C   UNL     1      29.876  43.572  54.847  1.00  0.00     0.003 A 
HETATM   13  C   UNL     1      30.076  42.801  53.700  1.00  0.00     0.001 A 
HETATM   14  C   UNL     1      29.273  42.994  52.573  1.00  0.00     0.016 A 
ENDROOT
BRANCH   1  15
HETATM   15  C   UNL     1      24.749  46.127  49.805  1.00  0.00     0.277 C 
HETATM   16  N   UNL     1      25.214  47.409  49.601  1.00  0.00    -0.322 N 
HETATM   17  H   UNL     1      26.210  47.509  49.791  1.00  0.00     0.169 HD
HETATM   18  O   UNL     1      23.604  45.721  49.643  1.00  0.00    -0.266 OA
BRANCH  16  19
HETATM   19  C   UNL     1      24.501  48.548  49.194  1.00  0.00     0.035 A 
HETATM   20  C   UNL     1      23.170  48.797  49.539  1.00  0.00     0.036 A 
HETATM   21  C   UNL     1      22.520  49.966  49.107  1.00  0.00    -0.056 A 
HETATM   22  C   UNL     1      23.217  50.882  48.310  1.00  0.00     0.007 A 
HETATM   23  C   UNL     1      24.542  50.640  47.961  1.00  0.00     0.003 A 
HETATM   24  C   UNL     1      25.182  49.480  48.402  1.00  0.00     0.029 A 
BRANCH  21  25
HETATM   25  C   UNL     1      21.081  50.215  49.481  1.00  0.00     0.034 C 
HETATM   26  C   UNL     1      20.487  51.382  48.707  1.00  0.00     0.010 C 
ENDBRANCH  21  25
ENDBRANCH  16  19
ENDBRANCH   1  15
TORSDOF 3
ENDMDL
MODEL 5
REMARK VINA RESULT:      -9.0      1.855      2.539
REMARK  3 active torsions:
REMARK  status: ('A' for Active; 'I' for Inactive)
REMARK    1  A    between atoms: C_2  and  C_3 
REMARK    2  A    between atoms: C_5  and  N_6 
REMARK       I    between atoms: N_6  and  C_7 
REMARK    3  A    between atoms: C_7  and  C_8 
ROOT
HETATM    1  C   UNL     1      26.055  46.006  53.174  1.00  0.00     0.155 A 
HETATM    2  N   UNL     1      26.061  47.107  53.965  1.00  0.00    -0.168 NA
HETATM    3  N   UNL     1      27.123  46.919  54.783  1.00  0.00    -0.276 N 
HETATM    4  H   UNL     1      27.329  47.627  55.477  1.00  0.00     0.189 HD
HETATM    5  C   UNL     1      27.780  45.755  54.545  1.00  0.00     0.074 A 
HETATM    6  C   UNL     1      27.128  45.147  53.508  1.00  0.00     0.031 A 
HETATM    7  C   UNL     1      27.566  43.840  52.971  1.00  0.00     0.219 A 
HETATM    8  O   UNL     1      28.780  43.295  53.565  1.00  0.00    -0.346 OA
HETATM    9  C   UNL     1      29.364  43.933  54.638  1.00  0.00     0.081 A 
HETATM   10  C   UNL     1      28.928  45.159  55.179  1.00  0.00     0.026 A 
HETATM   11  C   UNL     1      30.469  43.287  55.193  1.00  0.00     0.038 A 
HETATM   12  C   UNL     1      31.134  43.849  56.283  1.00  0.00     0.003 A 
HETATM   13  C   UNL     1      30.698  45.062  56.820  1.00  0.00     0.001 A 
HETATM   14  C   UNL     1      29.595  45.721  56.269  1.00  0.00     0.016 A 
ENDROOT
BRANCH   1  15
HETATM   15  C   UNL     1      25.028  45.792  52.138  1.00  0.00     0.277 C 
HETATM   16  N   UNL     1      25.024  46.809  51.206  1.00  0.00    -0.322 N 
HETATM   17  H   UNL     1      25.735  47.517  51.382  1.00  0.00     0.169 HD
HETATM   18  O   UNL     1      24.294  44.811  52.165  1.00  0.00    -0.266 OA
BRANCH  16  19
HETATM   19  C   UNL     1      24.178  46.983  50.099  1.00  0.00     0.035 A 
HETATM   20  C   UNL     1      23.769  48.231  49.621  1.00  0.00     0.036 A 
HETATM   21  C   UNL     1      22.930  48.333  48.498  1.00  0.00    -0.056 A 
HETATM   22  C   UNL     1      22.491  47.165  47.863  1.00  0.00     0.007 A 
HETATM   23  C   UNL     1      22.893  45.919  48.335  1.00  0.00     0.003 A 
HETATM   24  C   UNL     1      23.734  45.828  49.445  1.00  0.00     0.029 A 
BRANCH  21  25
HETATM   25  C   UNL     1      22.490  49.688  48.001  1.00  0.00     0.034 C 
HETATM   26  C   UNL     1      23.385  50.801  48.525  1.00  0.00     0.010 C 
ENDBRANCH  21  25
ENDBRANCH  16  19
ENDBRANCH   1  15
TORSDOF 3
ENDMDL
MODEL 6
REMARK VINA RESULT:      -8.9      2.433      3.439
REMARK  3 active torsions:
REMARK  status: ('A' for Active; 'I' for Inactive)
REMARK    1  A    between atoms: C_2  and  C_3 
REMARK    2  A    between atoms: C_5  and  N_6 
REMARK       I    between atoms: N_6  and  C_7 
REMARK    3  A    between atoms: C_7  and  C_8 
ROOT
HETATM    1  C   UNL     1      28.510  43.679  52.477  1.00  0.00     0.155 A 
HETATM    2  N   UNL     1      29.369  42.635  52.376  1.00  0.00    -0.168 NA
HETATM    3  N   UNL     1      30.062  42.666  53.536  1.00  0.00    -0.276 N 
HETATM    4  H   UNL     1      30.779  41.966  53.690  1.00  0.00     0.189 HD
HETATM    5  C   UNL     1      29.683  43.678  54.358  1.00  0.00     0.074 A 
HETATM    6  C   UNL     1      28.677  44.344  53.713  1.00  0.00     0.031 A 
HETATM    7  C   UNL     1      28.014  45.522  54.313  1.00  0.00     0.219 A 
HETATM    8  O   UNL     1      28.446  45.865  55.661  1.00  0.00    -0.346 OA
HETATM    9  C   UNL     1      29.496  45.184  56.238  1.00  0.00     0.081 A 
HETATM   10  C   UNL     1      30.159  44.085  55.655  1.00  0.00     0.026 A 
HETATM   11  C   UNL     1      29.895  45.645  57.493  1.00  0.00     0.038 A 
HETATM   12  C   UNL     1      30.949  45.024  58.165  1.00  0.00     0.003 A 
HETATM   13  C   UNL     1      31.606  43.937  57.584  1.00  0.00     0.001 A 
HETATM   14  C   UNL     1      31.213  43.464  56.329  1.00  0.00     0.016 A 
ENDROOT
BRANCH   1  15
HETATM   15  C   UNL     1      27.569  44.026  51.395  1.00  0.00     0.277 C 
HETATM   16  N   UNL     1      26.261  43.789  51.763  1.00  0.00    -0.322 N 
HETATM   17  H   UNL     1      26.169  43.435  52.713  1.00  0.00     0.169 HD
HETATM   18  O   UNL     1      27.968  44.462  50.321  1.00  0.00    -0.266 OA
BRANCH  16  19
HETATM   19  C   UNL     1      25.091  43.956  51.004  1.00  0.00     0.035 A 
HETATM   20  C   UNL     1      24.697  45.172  50.439  1.00  0.00     0.036 A 
HETATM   21  C   UNL     1      23.518  45.266  49.680  1.00  0.00    -0.056 A 
HETATM   22  C   UNL     1      22.726  44.125  49.501  1.00  0.00     0.007 A 
HETATM   23  C   UNL     1      23.112  42.910  50.061  1.00  0.00     0.003 A 
HETATM   24  C   UNL     1      24.289  42.826  50.807  1.00  0.00     0.029 A 
BRANCH  21  25
HETATM   25  C   UNL     1      23.102  46.588  49.086  1.00  0.00     0.034 C 
HETATM   26  C   UNL     1      23.882  47.748  49.685  1.00  0.00     0.010 C 
ENDBRANCH  21  25
ENDBRANCH  16  19
ENDBRANCH   1  15
TORSDOF 3
ENDMDL
MODEL 7
REMARK VINA RESULT:      -8.8      3.763      4.624
REMARK  3 active torsions:
REMARK  status: ('A' for Active; 'I' for Inactive)
REMARK    1  A    between atoms: C_2  and  C_3 
REMARK    2  A    between atoms: C_5  and  N_6 
REMARK       I    between atoms: N_6  and  C_7 
REMARK    3  A    between atoms: C_7  and  C_8 
ROOT
HETATM    1  C   UNL     1      28.426  43.440  52.553  1.00  0.00     0.155 A 
HETATM    2  N   UNL     1      29.330  42.431  52.489  1.00  0.00    -0.168 NA
HETATM    3  N   UNL     1      30.041  42.555  53.633  1.00  0.00    -0.276 N 
HETATM    4  H   UNL     1      30.792  41.897  53.809  1.00  0.00     0.189 HD
HETATM    5  C   UNL     1      29.630  43.591  54.409  1.00  0.00     0.074 A 
HETATM    6  C   UNL     1      28.584  44.176  53.750  1.00  0.00     0.031 A 
HETATM    7  C   UNL     1      27.877  45.353  54.301  1.00  0.00     0.219 A 
HETATM    8  O   UNL     1      28.317  45.786  55.620  1.00  0.00    -0.346 OA
HETATM    9  C   UNL     1      29.407  45.184  56.211  1.00  0.00     0.081 A 
HETATM   10  C   UNL     1      30.109  44.087  55.673  1.00  0.00     0.026 A 
HETATM   11  C   UNL     1      29.805  45.727  57.432  1.00  0.00     0.038 A 
HETATM   12  C   UNL     1      30.899  45.190  58.114  1.00  0.00     0.003 A 
HETATM   13  C   UNL     1      31.595  44.106  57.578  1.00  0.00     0.001 A 
HETATM   14  C   UNL     1      31.202  43.550  56.357  1.00  0.00     0.016 A 
ENDROOT
BRANCH   1  15
HETATM   15  C   UNL     1      27.451  43.687  51.474  1.00  0.00     0.277 C 
HETATM   16  N   UNL     1      26.351  42.862  51.583  1.00  0.00    -0.322 N 
HETATM   17  H   UNL     1      26.392  42.242  52.390  1.00  0.00     0.169 HD
HETATM   18  O   UNL     1      27.659  44.533  50.612  1.00  0.00    -0.266 OA
BRANCH  16  19
HETATM   19  C   UNL     1      25.235  42.769  50.735  1.00  0.00     0.035 A 
HETATM   20  C   UNL     1      25.108  41.820  49.717  1.00  0.00     0.036 A 
HETATM   21  C   UNL     1      23.956  41.776  48.912  1.00  0.00    -0.056 A 
HETATM   22  C   UNL     1      22.933  42.706  49.130  1.00  0.00     0.007 A 
HETATM   23  C   UNL     1      23.054  43.656  50.141  1.00  0.00     0.003 A 
HETATM   24  C   UNL     1      24.198  43.686  50.940  1.00  0.00     0.029 A 
BRANCH  21  25
HETATM   25  C   UNL     1      23.839  40.751  47.813  1.00  0.00     0.034 C 
HETATM   26  C   UNL     1      22.388  40.461  47.460  1.00  0.00     0.010 C 
ENDBRANCH  21  25
ENDBRANCH  16  19
ENDBRANCH   1  15
TORSDOF 3
ENDMDL
MODEL 8
REMARK VINA RESULT:      -8.7      2.446      8.804
REMARK  3 active torsions:
REMARK  status: ('A' for Active; 'I' for Inactive)
REMARK    1  A    between atoms: C_2  and  C_3 
REMARK    2  A    between atoms: C_5  and  N_6 
REMARK       I    between atoms: N_6  and  C_7 
REMARK    3  A    between atoms: C_7  and  C_8 
ROOT
HETATM    1  C   UNL     1      24.979  45.779  49.951  1.00  0.00     0.155 A 
HETATM    2  N   UNL     1      23.817  45.088  49.843  1.00  0.00    -0.168 NA
HETATM    3  N   UNL     1      22.917  46.017  49.450  1.00  0.00    -0.276 N 
HETATM    4  H   UNL     1      21.956  45.728  49.304  1.00  0.00     0.189 HD
HETATM    5  C   UNL     1      23.454  47.256  49.308  1.00  0.00     0.074 A 
HETATM    6  C   UNL     1      24.783  47.138  49.611  1.00  0.00     0.031 A 
HETATM    7  C   UNL     1      25.698  48.299  49.568  1.00  0.00     0.219 A 
HETATM    8  O   UNL     1      25.105  49.546  49.102  1.00  0.00    -0.346 OA
HETATM    9  C   UNL     1      23.750  49.611  48.857  1.00  0.00     0.081 A 
HETATM   10  C   UNL     1      22.866  48.516  48.934  1.00  0.00     0.026 A 
HETATM   11  C   UNL     1      23.263  50.869  48.503  1.00  0.00     0.038 A 
HETATM   12  C   UNL     1      21.905  51.043  48.233  1.00  0.00     0.003 A 
HETATM   13  C   UNL     1      21.030  49.958  48.313  1.00  0.00     0.001 A 
HETATM   14  C   UNL     1      21.507  48.692  48.663  1.00  0.00     0.016 A 
ENDROOT
BRANCH   1  15
HETATM   15  C   UNL     1      26.234  45.138  50.386  1.00  0.00     0.277 C 
HETATM   16  N   UNL     1      26.143  44.666  51.679  1.00  0.00    -0.322 N 
HETATM   17  H   UNL     1      25.230  44.825  52.101  1.00  0.00     0.169 HD
HETATM   18  O   UNL     1      27.205  45.073  49.641  1.00  0.00    -0.266 OA
BRANCH  16  19
HETATM   19  C   UNL     1      27.129  44.035  52.455  1.00  0.00     0.035 A 
HETATM   20  C   UNL     1      27.580  42.731  52.230  1.00  0.00     0.036 A 
HETATM   21  C   UNL     1      28.580  42.164  53.039  1.00  0.00    -0.056 A 
HETATM   22  C   UNL     1      29.118  42.916  54.089  1.00  0.00     0.007 A 
HETATM   23  C   UNL     1      28.674  44.215  54.320  1.00  0.00     0.003 A 
HETATM   24  C   UNL     1      27.686  44.772  53.506  1.00  0.00     0.029 A 
BRANCH  21  25
HETATM   25  C   UNL     1      29.047  40.752  52.788  1.00  0.00     0.034 C 
HETATM   26  C   UNL     1      28.609  40.245  51.422  1.00  0.00     0.010 C 
ENDBRANCH  21  25
ENDBRANCH  16  19
ENDBRANCH   1  15
TORSDOF 3
ENDMDL
MODEL 9
REMARK VINA RESULT:      -8.6      1.761      2.240
REMARK  3 active torsions:
REMARK  status: ('A' for Active; 'I' for Inactive)
REMARK    1  A    between atoms: C_2  and  C_3 
REMARK    2  A    between atoms: C_5  and  N_6 
REMARK       I    between atoms: N_6  and  C_7 
REMARK    3  A    between atoms: C_7  and  C_8 
ROOT
HETATM    1  C   UNL     1      27.263  45.174  53.312  1.00  0.00     0.155 A 
HETATM    2  N   UNL     1      27.765  44.069  52.708  1.00  0.00    -0.168 NA
HETATM    3  N   UNL     1      28.760  43.668  53.531  1.00  0.00    -0.276 N 
HETATM    4  H   UNL     1      29.293  42.843  53.278  1.00  0.00     0.189 HD
HETATM    5  C   UNL     1      28.908  44.466  54.619  1.00  0.00     0.074 A 
HETATM    6  C   UNL     1      27.953  45.439  54.518  1.00  0.00     0.031 A 
HETATM    7  C   UNL     1      27.813  46.503  55.536  1.00  0.00     0.219 A 
HETATM    8  O   UNL     1      28.701  46.389  56.686  1.00  0.00    -0.346 OA
HETATM    9  C   UNL     1      29.674  45.412  56.706  1.00  0.00     0.081 A 
HETATM   10  C   UNL     1      29.837  44.419  55.719  1.00  0.00     0.026 A 
HETATM   11  C   UNL     1      30.531  45.441  57.806  1.00  0.00     0.038 A 
HETATM   12  C   UNL     1      31.550  44.494  57.924  1.00  0.00     0.003 A 
HETATM   13  C   UNL     1      31.713  43.514  56.943  1.00  0.00     0.001 A 
HETATM   14  C   UNL     1      30.856  43.472  55.839  1.00  0.00     0.016 A 
ENDROOT
BRANCH   1  15
HETATM   15  C   UNL     1      26.157  45.953  52.725  1.00  0.00     0.277 C 
HETATM   16  N   UNL     1      25.856  45.528  51.448  1.00  0.00    -0.322 N 
HETATM   17  H   UNL     1      26.431  44.747  51.140  1.00  0.00     0.169 HD
HETATM   18  O   UNL     1      25.619  46.861  53.349  1.00  0.00    -0.266 OA
BRANCH  16  19
HETATM   19  C   UNL     1      24.899  46.038  50.556  1.00  0.00     0.035 A 
HETATM   20  C   UNL     1      23.943  45.252  49.906  1.00  0.00     0.036 A 
HETATM   21  C   UNL     1      23.006  45.831  49.033  1.00  0.00    -0.056 A 
HETATM   22  C   UNL     1      23.044  47.211  48.805  1.00  0.00     0.007 A 
HETATM   23  C   UNL     1      23.994  48.001  49.448  1.00  0.00     0.003 A 
HETATM   24  C   UNL     1      24.915  47.418  50.320  1.00  0.00     0.029 A 
BRANCH  21  25
HETATM   25  C   UNL     1      21.988  44.966  48.333  1.00  0.00     0.034 C 
HETATM   26  C   UNL     1      22.510  43.558  48.093  1.00  0.00     0.010 C 
ENDBRANCH  21  25
ENDBRANCH  16  19
ENDBRANCH   1  15
TORSDOF 3
ENDMDL
MODEL 10
REMARK VINA RESULT:      -8.5      2.240      3.206
REMARK  3 active torsions:
REMARK  status: ('A' for Active; 'I' for Inactive)
REMARK    1  A    between atoms: C_2  and  C_3 
REMARK    2  A    between atoms: C_5  and  N_6 
REMARK       I    between atoms: N_6  and  C_7 
REMARK    3  A    between atoms: C_7  and  C_8 
ROOT
HETATM    1  C   UNL     1      25.378  46.444  51.520  1.00  0.00     0.155 A 
HETATM    2  N   UNL     1      25.322  47.135  52.686  1.00  0.00    -0.168 NA
HETATM    3  N   UNL     1      26.264  46.550  53.460  1.00  0.00    -0.276 N 
HETATM    4  H   UNL     1      26.405  46.904  54.400  1.00  0.00     0.189 HD
HETATM    5  C   UNL     1      26.906  45.527  52.840  1.00  0.00     0.074 A 
HETATM    6  C   UNL     1      26.370  45.438  51.585  1.00  0.00     0.031 A 
HETATM    7  C   UNL     1      26.827  44.422  50.613  1.00  0.00     0.219 A 
HETATM    8  O   UNL     1      27.936  43.587  51.055  1.00  0.00    -0.346 OA
HETATM    9  C   UNL     1      28.401  43.695  52.349  1.00  0.00     0.081 A 
HETATM   10  C   UNL     1      27.943  44.635  53.292  1.00  0.00     0.026 A 
HETATM   11  C   UNL     1      29.404  42.792  52.704  1.00  0.00     0.038 A 
HETATM   12  C   UNL     1      29.944  42.817  53.990  1.00  0.00     0.003 A 
HETATM   13  C   UNL     1      29.486  43.748  54.925  1.00  0.00     0.001 A 
HETATM   14  C   UNL     1      28.485  44.660  54.579  1.00  0.00     0.016 A 
ENDROOT
BRANCH   1  15
HETATM   15  C   UNL     1      24.484  46.747  50.387  1.00  0.00     0.277 C 
HETATM   16  N   UNL     1      24.233  48.099  50.282  1.00  0.00    -0.322 N 
HETATM   17  H   UNL     1      24.716  48.652  50.987  1.00  0.00     0.169 HD
HETATM   18  O   UNL     1      24.046  45.855  49.669  1.00  0.00    -0.266 OA
BRANCH  16  19
HETATM   19  C   UNL     1      23.409  48.771  49.365  1.00  0.00     0.035 A 
HETATM   20  C   UNL     1      22.088  48.406  49.093  1.00  0.00     0.036 A 
HETATM   21  C   UNL     1      21.314  49.132  48.170  1.00  0.00    -0.056 A 
HETATM   22  C   UNL     1      21.885  50.225  47.509  1.00  0.00     0.007 A 
HETATM   23  C   UNL     1      23.202  50.594  47.774  1.00  0.00     0.003 A 
HETATM   24  C   UNL     1      23.959  49.872  48.698  1.00  0.00     0.029 A 
BRANCH  21  25
HETATM   25  C   UNL     1      19.893  48.718  47.882  1.00  0.00     0.034 C 
HETATM   26  C   UNL     1      19.222  49.653  46.887  1.00  0.00     0.010 C 
ENDBRANCH  21  25
ENDBRANCH  16  19
ENDBRANCH   1  15
TORSDOF 3
ENDMDL
