MODEL 1
REMARK VINA RESULT:      -9.6      0.000      0.000
REMARK  6 active torsions:
REMARK  status: ('A' for Active; 'I' for Inactive)
REMARK    1  A    between atoms: C_5  and  N_6 
REMARK       I    between atoms: N_6  and  C_7 
REMARK    2  A    between atoms: C_7  and  C_8 
REMARK    3  A    between atoms: C_8  and  N_9 
REMARK    4  A    between atoms: C_8  and  C_17 
REMARK       I    between atoms: N_9  and  C_10 
REMARK    5  A    between atoms: C_10  and  C_11 
REMARK    6  A    between atoms: C_17  and  C_18 
ROOT
HETATM    1  C   UNL     1      26.568  45.093  51.639  1.00  0.00     0.181 C 
ENDROOT
BRANCH   1   2
HETATM    2  C   UNL     1      27.041  43.887  50.793  1.00  0.00     0.245 C 
HETATM    3  N   UNL     1      27.119  42.697  51.491  1.00  0.00    -0.325 N 
HETATM    4  H   UNL     1      26.702  42.697  52.422  1.00  0.00     0.169 HD
HETATM    5  O   UNL     1      27.286  44.038  49.596  1.00  0.00    -0.271 OA
BRANCH   3   6
HETATM    6  C   UNL     1      27.656  41.471  51.055  1.00  0.00     0.034 A 
HETATM    7  C   UNL     1      27.356  40.876  49.830  1.00  0.00     0.030 A 
HETATM    8  C   UNL     1      27.960  39.668  49.460  1.00  0.00     0.009 A 
HETATM    9  C   UNL     1      28.872  39.035  50.310  1.00  0.00    -0.062 A 
HETATM   10  C   UNL     1      29.554  37.768  49.890  1.00  0.00     0.048 C 
HETATM   11  C   UNL     1      29.183  39.638  51.532  1.00  0.00     0.009 A 
HETATM   12  C   UNL     1      28.574  40.841  51.903  1.00  0.00     0.030 A 
ENDBRANCH   3   6
ENDBRANCH   1   2
BRANCH   1  13
HETATM   13  N   UNL     1      25.429  45.763  50.998  1.00  0.00    -0.342 N 
HETATM   14  C   UNL     1      25.378  47.106  50.705  1.00  0.00     0.276 C 
HETATM   15  O   UNL     1      26.257  47.884  51.071  1.00  0.00    -0.265 OA
HETATM   16  H   UNL     1      24.648  45.195  50.688  1.00  0.00     0.163 HD
BRANCH  14  17
HETATM   17  C   UNL     1      24.221  47.502  49.933  1.00  0.00     0.142 A 
HETATM   18  O   UNL     1      23.823  48.816  49.942  1.00  0.00    -0.317 OA
HETATM   19  C   UNL     1      22.712  48.902  49.165  1.00  0.00     0.143 A 
HETATM   20  C   UNL     1      22.385  47.671  48.651  1.00  0.00     0.027 A 
HETATM   21  C   UNL     1      23.357  46.766  49.144  1.00  0.00     0.045 A 
ENDBRANCH  14  17
ENDBRANCH   1  13
BRANCH   1  22
HETATM   22  C   UNL     1      26.305  44.757  53.117  1.00  0.00     0.075 C 
BRANCH  22  23
HETATM   23  C   UNL     1      27.220  45.385  54.129  1.00  0.00    -0.028 A 
HETATM   24  C   UNL     1      28.431  44.781  54.612  1.00  0.00    -0.002 A 
HETATM   25  C   UNL     1      29.026  45.675  55.501  1.00  0.00     0.042 A 
HETATM   26  C   UNL     1      29.078  43.554  54.360  1.00  0.00     0.014 A 
HETATM   27  C   UNL     1      30.236  45.405  56.150  1.00  0.00     0.030 A 
HETATM   28  N   UNL     1      28.211  46.778  55.567  1.00  0.00    -0.365 N 
HETATM   29  C   UNL     1      30.856  44.181  55.883  1.00  0.00     0.002 A 
HETATM   30  C   UNL     1      30.287  43.265  55.003  1.00  0.00     0.001 A 
HETATM   31  H   UNL     1      28.398  47.597  56.127  1.00  0.00     0.165 HD
HETATM   32  C   UNL     1      27.120  46.613  54.752  1.00  0.00     0.096 A 
ENDBRANCH  22  23
ENDBRANCH   1  22
TORSDOF 6
ENDMDL
MODEL 2
REMARK VINA RESULT:      -9.2      1.599      6.336
REMARK  6 active torsions:
REMARK  status: ('A' for Active; 'I' for Inactive)
REMARK    1  A    between atoms: C_5  and  N_6 
REMARK       I    between atoms: N_6  and  C_7 
REMARK    2  A    between atoms: C_7  and  C_8 
REMARK    3  A    between atoms: C_8  and  N_9 
REMARK    4  A    between atoms: C_8  and  C_17 
REMARK       I    between atoms: N_9  and  C_10 
REMARK    5  A    between atoms: C_10  and  C_11 
REMARK    6  A    between atoms: C_17  and  C_18 
ROOT
HETATM    1  C   UNL     1      26.631  43.731  52.578  1.00  0.00     0.181 C 
ENDROOT
BRANCH   1   2
HETATM    2  C   UNL     1      25.663  44.697  51.854  1.00  0.00     0.245 C 
HETATM    3  N   UNL     1      26.282  45.592  51.002  1.00  0.00    -0.325 N 
HETATM    4  H   UNL     1      27.268  45.416  50.809  1.00  0.00     0.169 HD
HETATM    5  O   UNL     1      24.451  44.605  52.046  1.00  0.00    -0.271 OA
BRANCH   3   6
HETATM    6  C   UNL     1      25.706  46.685  50.327  1.00  0.00     0.034 A 
HETATM    7  C   UNL     1      24.334  46.869  50.162  1.00  0.00     0.030 A 
HETATM    8  C   UNL     1      23.842  48.003  49.504  1.00  0.00     0.009 A 
HETATM    9  C   UNL     1      24.716  48.970  48.998  1.00  0.00    -0.062 A 
HETATM   10  C   UNL     1      24.186  50.208  48.339  1.00  0.00     0.048 C 
HETATM   11  C   UNL     1      26.091  48.794  49.176  1.00  0.00     0.009 A 
HETATM   12  C   UNL     1      26.580  47.657  49.828  1.00  0.00     0.030 A 
ENDBRANCH   3   6
ENDBRANCH   1   2
BRANCH   1  13
HETATM   13  N   UNL     1      26.655  42.423  51.911  1.00  0.00    -0.342 N 
HETATM   14  C   UNL     1      27.066  42.214  50.616  1.00  0.00     0.276 C 
HETATM   15  O   UNL     1      27.344  43.148  49.865  1.00  0.00    -0.265 OA
HETATM   16  H   UNL     1      26.412  41.601  52.455  1.00  0.00     0.163 HD
BRANCH  14  17
HETATM   17  C   UNL     1      27.148  40.821  50.235  1.00  0.00     0.142 A 
HETATM   18  O   UNL     1      28.363  40.184  50.272  1.00  0.00    -0.317 OA
HETATM   19  C   UNL     1      28.159  38.911  49.846  1.00  0.00     0.143 A 
HETATM   20  C   UNL     1      26.835  38.711  49.536  1.00  0.00     0.027 A 
HETATM   21  C   UNL     1      26.181  39.941  49.788  1.00  0.00     0.045 A 
ENDBRANCH  14  17
ENDBRANCH   1  13
BRANCH   1  22
HETATM   22  C   UNL     1      28.039  44.309  52.805  1.00  0.00     0.075 C 
BRANCH  22  23
HETATM   23  C   UNL     1      28.285  45.003  54.114  1.00  0.00    -0.028 A 
HETATM   24  C   UNL     1      29.288  44.609  55.063  1.00  0.00    -0.002 A 
HETATM   25  C   UNL     1      29.244  45.509  56.127  1.00  0.00     0.042 A 
HETATM   26  C   UNL     1      30.240  43.569  55.104  1.00  0.00     0.014 A 
HETATM   27  C   UNL     1      30.104  45.424  57.228  1.00  0.00     0.030 A 
HETATM   28  N   UNL     1      28.250  46.414  55.845  1.00  0.00    -0.365 N 
HETATM   29  C   UNL     1      31.036  44.383  57.244  1.00  0.00     0.002 A 
HETATM   30  C   UNL     1      31.105  43.465  56.199  1.00  0.00     0.001 A 
HETATM   31  H   UNL     1      27.998  47.193  56.437  1.00  0.00     0.165 HD
HETATM   32  C   UNL     1      27.662  46.116  54.643  1.00  0.00     0.096 A 
ENDBRANCH  22  23
ENDBRANCH   1  22
TORSDOF 6
ENDMDL
MODEL 3
REMARK VINA RESULT:      -9.0      2.723      3.759
REMARK  6 active torsions:
REMARK  status: ('A' for Active; 'I' for Inactive)
REMARK    1  A    between atoms: C_5  and  N_6 
REMARK       I    between atoms: N_6  and  C_7 
REMARK    2  A    between atoms: C_7  and  C_8 
REMARK    3  A    between atoms: C_8  and  N_9 
REMARK    4  A    between atoms: C_8  and  C_17 
REMARK       I    between atoms: N_9  and  C_10 
REMARK    5  A    between atoms: C_10  and  C_11 
REMARK    6  A    between atoms: C_17  and  C_18 
ROOT
HETATM    1  C   UNL     1      25.995  45.156  51.779  1.00  0.00     0.181 C 
ENDROOT
BRANCH   1   2
HETATM    2  C   UNL     1      24.910  44.306  51.077  1.00  0.00     0.245 C 
HETATM    3  N   UNL     1      25.352  43.632  49.954  1.00  0.00    -0.325 N 
HETATM    4  H   UNL     1      26.362  43.625  49.806  1.00  0.00     0.169 HD
HETATM    5  O   UNL     1      23.774  44.256  51.546  1.00  0.00    -0.271 OA
BRANCH   3   6
HETATM    6  C   UNL     1      24.586  42.911  49.019  1.00  0.00     0.034 A 
HETATM    7  C   UNL     1      24.518  41.520  48.969  1.00  0.00     0.030 A 
HETATM    8  C   UNL     1      23.706  40.881  48.025  1.00  0.00     0.009 A 
HETATM    9  C   UNL     1      22.949  41.624  47.113  1.00  0.00    -0.062 A 
HETATM   10  C   UNL     1      22.041  40.939  46.137  1.00  0.00     0.048 C 
HETATM   11  C   UNL     1      23.006  43.019  47.172  1.00  0.00     0.009 A 
HETATM   12  C   UNL     1      23.824  43.656  48.112  1.00  0.00     0.030 A 
ENDBRANCH   3   6
ENDBRANCH   1   2
BRANCH   1  13
HETATM   13  N   UNL     1      26.149  46.456  51.113  1.00  0.00    -0.342 N 
HETATM   14  C   UNL     1      26.824  46.652  49.931  1.00  0.00     0.276 C 
HETATM   15  O   UNL     1      27.461  45.749  49.390  1.00  0.00    -0.265 OA
HETATM   16  H   UNL     1      25.676  47.260  51.511  1.00  0.00     0.163 HD
BRANCH  14  17
HETATM   17  C   UNL     1      26.705  47.989  49.392  1.00  0.00     0.142 A 
HETATM   18  O   UNL     1      25.462  48.484  49.087  1.00  0.00    -0.317 OA
HETATM   19  C   UNL     1      25.642  49.732  48.582  1.00  0.00     0.143 A 
HETATM   20  C   UNL     1      26.977  50.055  48.557  1.00  0.00     0.027 A 
HETATM   21  C   UNL     1      27.665  48.933  49.081  1.00  0.00     0.045 A 
ENDBRANCH  14  17
ENDBRANCH   1  13
BRANCH   1  22
HETATM   22  C   UNL     1      25.802  45.286  53.300  1.00  0.00     0.075 C 
BRANCH  22  23
HETATM   23  C   UNL     1      27.032  45.553  54.120  1.00  0.00    -0.028 A 
HETATM   24  C   UNL     1      28.073  44.591  54.355  1.00  0.00    -0.002 A 
HETATM   25  C   UNL     1      29.060  45.213  55.119  1.00  0.00     0.042 A 
HETATM   26  C   UNL     1      28.266  43.248  53.975  1.00  0.00     0.014 A 
HETATM   27  C   UNL     1      30.232  44.560  55.519  1.00  0.00     0.030 A 
HETATM   28  N   UNL     1      28.640  46.500  55.348  1.00  0.00    -0.365 N 
HETATM   29  C   UNL     1      30.397  43.228  55.129  1.00  0.00     0.002 A 
HETATM   30  C   UNL     1      29.429  42.577  54.369  1.00  0.00     0.001 A 
HETATM   31  H   UNL     1      29.162  47.191  55.868  1.00  0.00     0.165 HD
HETATM   32  C   UNL     1      27.420  46.714  54.759  1.00  0.00     0.096 A 
ENDBRANCH  22  23
ENDBRANCH   1  22
TORSDOF 6
ENDMDL
MODEL 4
REMARK VINA RESULT:      -9.0      1.875      6.259
REMARK  6 active torsions:
REMARK  status: ('A' for Active; 'I' for Inactive)
REMARK    1  A    between atoms: C_5  and  N_6 
REMARK       I    between atoms: N_6  and  C_7 
REMARK    2  A    between atoms: C_7  and  C_8 
REMARK    3  A    between atoms: C_8  and  N_9 
REMARK    4  A    between atoms: C_8  and  C_17 
REMARK       I    between atoms: N_9  and  C_10 
REMARK    5  A    between atoms: C_10  and  C_11 
REMARK    6  A    between atoms: C_17  and  C_18 
ROOT
HETATM    1  C   UNL     1      26.629  43.374  51.948  1.00  0.00     0.181 C 
ENDROOT
BRANCH   1   2
HETATM    2  C   UNL     1      27.116  43.710  53.378  1.00  0.00     0.245 C 
HETATM    3  N   UNL     1      28.442  44.092  53.454  1.00  0.00    -0.325 N 
HETATM    4  H   UNL     1      28.905  44.277  52.564  1.00  0.00     0.169 HD
HETATM    5  O   UNL     1      26.328  43.647  54.322  1.00  0.00    -0.271 OA
BRANCH   3   6
HETATM    6  C   UNL     1      29.216  44.307  54.610  1.00  0.00     0.034 A 
HETATM    7  C   UNL     1      29.102  45.429  55.431  1.00  0.00     0.030 A 
HETATM    8  C   UNL     1      29.890  45.551  56.581  1.00  0.00     0.009 A 
HETATM    9  C   UNL     1      30.807  44.553  56.928  1.00  0.00    -0.062 A 
HETATM   10  C   UNL     1      31.613  44.663  58.188  1.00  0.00     0.048 C 
HETATM   11  C   UNL     1      30.912  43.423  56.114  1.00  0.00     0.009 A 
HETATM   12  C   UNL     1      30.128  43.306  54.960  1.00  0.00     0.030 A 
ENDBRANCH   3   6
ENDBRANCH   1   2
BRANCH   1  13
HETATM   13  N   UNL     1      26.360  44.602  51.189  1.00  0.00    -0.342 N 
HETATM   14  C   UNL     1      25.115  45.166  51.035  1.00  0.00     0.276 C 
HETATM   15  O   UNL     1      24.095  44.608  51.436  1.00  0.00    -0.265 OA
HETATM   16  H   UNL     1      27.146  45.111  50.801  1.00  0.00     0.163 HD
BRANCH  14  17
HETATM   17  C   UNL     1      25.124  46.455  50.379  1.00  0.00     0.142 A 
HETATM   18  O   UNL     1      23.934  47.029  50.007  1.00  0.00    -0.317 OA
HETATM   19  C   UNL     1      24.232  48.207  49.399  1.00  0.00     0.143 A 
HETATM   20  C   UNL     1      25.591  48.407  49.373  1.00  0.00     0.027 A 
HETATM   21  C   UNL     1      26.168  47.280  50.006  1.00  0.00     0.045 A 
ENDBRANCH  14  17
ENDBRANCH   1  13
BRANCH   1  22
HETATM   22  C   UNL     1      27.541  42.394  51.190  1.00  0.00     0.075 C 
BRANCH  22  23
HETATM   23  C   UNL     1      26.865  41.333  50.370  1.00  0.00    -0.028 A 
HETATM   24  C   UNL     1      27.448  40.058  50.055  1.00  0.00    -0.002 A 
HETATM   25  C   UNL     1      26.512  39.334  49.319  1.00  0.00     0.042 A 
HETATM   26  C   UNL     1      28.689  39.454  50.343  1.00  0.00     0.014 A 
HETATM   27  C   UNL     1      26.752  38.034  48.857  1.00  0.00     0.030 A 
HETATM   28  N   UNL     1      25.404  40.133  49.181  1.00  0.00    -0.365 N 
HETATM   29  C   UNL     1      27.991  37.459  49.156  1.00  0.00     0.002 A 
HETATM   30  C   UNL     1      28.948  38.157  49.887  1.00  0.00     0.001 A 
HETATM   31  H   UNL     1      24.558  39.864  48.700  1.00  0.00     0.165 HD
HETATM   32  C   UNL     1      25.607  41.339  49.802  1.00  0.00     0.096 A 
ENDBRANCH  22  23
ENDBRANCH   1  22
TORSDOF 6
ENDMDL
MODEL 5
REMARK VINA RESULT:      -8.9      1.607      2.031
REMARK  6 active torsions:
REMARK  status: ('A' for Active; 'I' for Inactive)
REMARK    1  A    between atoms: C_5  and  N_6 
REMARK       I    between atoms: N_6  and  C_7 
REMARK    2  A    between atoms: C_7  and  C_8 
REMARK    3  A    between atoms: C_8  and  N_9 
REMARK    4  A    between atoms: C_8  and  C_17 
REMARK       I    between atoms: N_9  and  C_10 
REMARK    5  A    between atoms: C_10  and  C_11 
REMARK    6  A    between atoms: C_17  and  C_18 
ROOT
HETATM    1  C   UNL     1      26.018  45.687  52.108  1.00  0.00     0.181 C 
ENDROOT
BRANCH   1   2
HETATM    2  C   UNL     1      25.602  44.297  51.571  1.00  0.00     0.245 C 
HETATM    3  N   UNL     1      26.640  43.560  51.033  1.00  0.00    -0.325 N 
HETATM    4  H   UNL     1      27.579  43.924  51.198  1.00  0.00     0.169 HD
HETATM    5  O   UNL     1      24.432  43.929  51.669  1.00  0.00    -0.271 OA
BRANCH   3   6
HETATM    6  C   UNL     1      26.565  42.342  50.332  1.00  0.00     0.034 A 
HETATM    7  C   UNL     1      26.515  41.089  50.942  1.00  0.00     0.030 A 
HETATM    8  C   UNL     1      26.409  39.926  50.170  1.00  0.00     0.009 A 
HETATM    9  C   UNL     1      26.354  39.997  48.774  1.00  0.00    -0.062 A 
HETATM   10  C   UNL     1      26.190  38.754  47.952  1.00  0.00     0.048 C 
HETATM   11  C   UNL     1      26.391  41.253  48.163  1.00  0.00     0.009 A 
HETATM   12  C   UNL     1      26.503  42.414  48.936  1.00  0.00     0.030 A 
ENDBRANCH   3   6
ENDBRANCH   1   2
BRANCH   1  13
HETATM   13  N   UNL     1      25.337  46.756  51.366  1.00  0.00    -0.342 N 
HETATM   14  C   UNL     1      25.751  47.248  50.151  1.00  0.00     0.276 C 
HETATM   15  O   UNL     1      26.813  46.899  49.637  1.00  0.00    -0.265 OA
HETATM   16  H   UNL     1      24.465  47.119  51.736  1.00  0.00     0.163 HD
BRANCH  14  17
HETATM   17  C   UNL     1      24.832  48.186  49.544  1.00  0.00     0.142 A 
HETATM   18  O   UNL     1      23.481  47.998  49.694  1.00  0.00    -0.317 OA
HETATM   19  C   UNL     1      22.860  48.995  49.012  1.00  0.00     0.143 A 
HETATM   20  C   UNL     1      23.784  49.826  48.424  1.00  0.00     0.027 A 
HETATM   21  C   UNL     1      25.056  49.307  48.768  1.00  0.00     0.045 A 
ENDBRANCH  14  17
ENDBRANCH   1  13
BRANCH   1  22
HETATM   22  C   UNL     1      25.877  45.838  53.632  1.00  0.00     0.075 C 
BRANCH  22  23
HETATM   23  C   UNL     1      27.148  45.927  54.426  1.00  0.00    -0.028 A 
HETATM   24  C   UNL     1      28.092  44.853  54.567  1.00  0.00    -0.002 A 
HETATM   25  C   UNL     1      29.157  45.322  55.335  1.00  0.00     0.042 A 
HETATM   26  C   UNL     1      28.137  43.524  54.098  1.00  0.00     0.014 A 
HETATM   27  C   UNL     1      30.267  44.531  55.655  1.00  0.00     0.030 A 
HETATM   28  N   UNL     1      28.876  46.627  55.657  1.00  0.00    -0.365 N 
HETATM   29  C   UNL     1      30.285  43.217  55.178  1.00  0.00     0.002 A 
HETATM   30  C   UNL     1      29.236  42.717  54.412  1.00  0.00     0.001 A 
HETATM   31  H   UNL     1      29.479  47.227  56.201  1.00  0.00     0.165 HD
HETATM   32  C   UNL     1      27.669  46.999  55.123  1.00  0.00     0.096 A 
ENDBRANCH  22  23
ENDBRANCH   1  22
TORSDOF 6
ENDMDL
MODEL 6
REMARK VINA RESULT:      -8.8      1.905      5.679
REMARK  6 active torsions:
REMARK  status: ('A' for Active; 'I' for Inactive)
REMARK    1  A    between atoms: C_5  and  N_6 
REMARK       I    between atoms: N_6  and  C_7 
REMARK    2  A    between atoms: C_7  and  C_8 
REMARK    3  A    between atoms: C_8  and  N_9 
REMARK    4  A    between atoms: C_8  and  C_17 
REMARK       I    between atoms: N_9  and  C_10 
REMARK    5  A    between atoms: C_10  and  C_11 
REMARK    6  A    between atoms: C_17  and  C_18 
ROOT
HETATM    1  C   UNL     1      25.923  44.530  50.473  1.00  0.00     0.181 C 
ENDROOT
BRANCH   1   2
HETATM    2  C   UNL     1      27.265  44.303  51.209  1.00  0.00     0.245 C 
HETATM    3  N   UNL     1      27.139  44.084  52.568  1.00  0.00    -0.325 N 
HETATM    4  H   UNL     1      26.191  43.924  52.909  1.00  0.00     0.169 HD
HETATM    5  O   UNL     1      28.319  44.305  50.574  1.00  0.00    -0.271 OA
BRANCH   3   6
HETATM    6  C   UNL     1      28.163  44.001  53.530  1.00  0.00     0.034 A 
HETATM    7  C   UNL     1      29.099  42.969  53.591  1.00  0.00     0.030 A 
HETATM    8  C   UNL     1      30.106  42.979  54.563  1.00  0.00     0.009 A 
HETATM    9  C   UNL     1      30.192  44.021  55.492  1.00  0.00    -0.062 A 
HETATM   10  C   UNL     1      31.302  44.055  56.500  1.00  0.00     0.048 C 
HETATM   11  C   UNL     1      29.263  45.062  55.423  1.00  0.00     0.009 A 
HETATM   12  C   UNL     1      28.253  45.047  54.455  1.00  0.00     0.030 A 
ENDBRANCH   3   6
ENDBRANCH   1   2
BRANCH   1  13
HETATM   13  N   UNL     1      25.890  45.860  49.851  1.00  0.00    -0.342 N 
HETATM   14  C   UNL     1      26.045  47.044  50.533  1.00  0.00     0.276 C 
HETATM   15  O   UNL     1      26.111  47.082  51.761  1.00  0.00    -0.265 OA
HETATM   16  H   UNL     1      25.811  45.918  48.841  1.00  0.00     0.163 HD
BRANCH  14  17
HETATM   17  C   UNL     1      26.132  48.212  49.684  1.00  0.00     0.142 A 
HETATM   18  O   UNL     1      24.980  48.843  49.286  1.00  0.00    -0.317 OA
HETATM   19  C   UNL     1      25.347  49.878  48.487  1.00  0.00     0.143 A 
HETATM   20  C   UNL     1      26.714  49.931  48.363  1.00  0.00     0.027 A 
HETATM   21  C   UNL     1      27.223  48.859  49.135  1.00  0.00     0.045 A 
ENDBRANCH  14  17
ENDBRANCH   1  13
BRANCH   1  22
HETATM   22  C   UNL     1      25.549  43.405  49.493  1.00  0.00     0.075 C 
BRANCH  22  23
HETATM   23  C   UNL     1      25.939  42.008  49.882  1.00  0.00    -0.028 A 
HETATM   24  C   UNL     1      26.816  41.168  49.113  1.00  0.00    -0.002 A 
HETATM   25  C   UNL     1      26.974  39.971  49.809  1.00  0.00     0.042 A 
HETATM   26  C   UNL     1      27.498  41.329  47.890  1.00  0.00     0.014 A 
HETATM   27  C   UNL     1      27.781  38.926  49.344  1.00  0.00     0.030 A 
HETATM   28  N   UNL     1      26.220  40.068  50.952  1.00  0.00    -0.365 N 
HETATM   29  C   UNL     1      28.445  39.111  48.128  1.00  0.00     0.002 A 
HETATM   30  C   UNL     1      28.306  40.294  47.408  1.00  0.00     0.001 A 
HETATM   31  H   UNL     1      26.152  39.348  51.658  1.00  0.00     0.165 HD
HETATM   32  C   UNL     1      25.589  41.284  51.004  1.00  0.00     0.096 A 
ENDBRANCH  22  23
ENDBRANCH   1  22
TORSDOF 6
ENDMDL
MODEL 7
REMARK VINA RESULT:      -8.8      2.157      5.352
REMARK  6 active torsions:
REMARK  status: ('A' for Active; 'I' for Inactive)
REMARK    1  A    between atoms: C_5  and  N_6 
REMARK       I    between atoms: N_6  and  C_7 
REMARK    2  A    between atoms: C_7  and  C_8 
REMARK    3  A    between atoms: C_8  and  N_9 
REMARK    4  A    between atoms: C_8  and  C_17 
REMARK       I    between atoms: N_9  and  C_10 
REMARK    5  A    between atoms: C_10  and  C_11 
REMARK    6  A    between atoms: C_17  and  C_18 
ROOT
HETATM    1  C   UNL     1      24.883  44.980  50.767  1.00  0.00     0.181 C 
ENDROOT
BRANCH   1   2
HETATM    2  C   UNL     1      25.207  45.080  52.277  1.00  0.00     0.245 C 
HETATM    3  N   UNL     1      26.235  45.952  52.582  1.00  0.00    -0.325 N 
HETATM    4  H   UNL     1      26.550  46.555  51.822  1.00  0.00     0.169 HD
HETATM    5  O   UNL     1      24.548  44.430  53.087  1.00  0.00    -0.271 OA
BRANCH   3   6
HETATM    6  C   UNL     1      26.864  46.146  53.826  1.00  0.00     0.034 A 
HETATM    7  C   UNL     1      26.825  47.341  54.545  1.00  0.00     0.030 A 
HETATM    8  C   UNL     1      27.453  47.441  55.792  1.00  0.00     0.009 A 
HETATM    9  C   UNL     1      28.132  46.348  56.340  1.00  0.00    -0.062 A 
HETATM   10  C   UNL     1      28.760  46.442  57.698  1.00  0.00     0.048 C 
HETATM   11  C   UNL     1      28.159  45.147  55.627  1.00  0.00     0.009 A 
HETATM   12  C   UNL     1      27.537  45.051  54.377  1.00  0.00     0.030 A 
ENDBRANCH   3   6
ENDBRANCH   1   2
BRANCH   1  13
HETATM   13  N   UNL     1      24.725  46.317  50.180  1.00  0.00    -0.342 N 
HETATM   14  C   UNL     1      23.686  46.692  49.362  1.00  0.00     0.276 C 
HETATM   15  O   UNL     1      22.851  45.883  48.960  1.00  0.00    -0.265 OA
HETATM   16  H   UNL     1      25.390  47.038  50.439  1.00  0.00     0.163 HD
BRANCH  14  17
HETATM   17  C   UNL     1      23.664  48.102  49.036  1.00  0.00     0.142 A 
HETATM   18  O   UNL     1      24.848  48.763  48.826  1.00  0.00    -0.317 OA
HETATM   19  C   UNL     1      24.541  50.060  48.567  1.00  0.00     0.143 A 
HETATM   20  C   UNL     1      23.180  50.251  48.602  1.00  0.00     0.027 A 
HETATM   21  C   UNL     1      22.613  48.989  48.903  1.00  0.00     0.045 A 
ENDBRANCH  14  17
ENDBRANCH   1  13
BRANCH   1  22
HETATM   22  C   UNL     1      25.858  44.093  49.974  1.00  0.00     0.075 C 
BRANCH  22  23
HETATM   23  C   UNL     1      26.310  42.822  50.635  1.00  0.00    -0.028 A 
HETATM   24  C   UNL     1      27.526  42.689  51.387  1.00  0.00    -0.002 A 
HETATM   25  C   UNL     1      27.581  41.385  51.878  1.00  0.00     0.042 A 
HETATM   26  C   UNL     1      28.582  43.569  51.701  1.00  0.00     0.014 A 
HETATM   27  C   UNL     1      28.636  40.917  52.670  1.00  0.00     0.030 A 
HETATM   28  N   UNL     1      26.449  40.743  51.441  1.00  0.00    -0.365 N 
HETATM   29  C   UNL     1      29.670  41.811  52.966  1.00  0.00     0.002 A 
HETATM   30  C   UNL     1      29.647  43.118  52.488  1.00  0.00     0.001 A 
HETATM   31  H   UNL     1      26.213  39.785  51.655  1.00  0.00     0.165 HD
HETATM   32  C   UNL     1      25.681  41.594  50.688  1.00  0.00     0.096 A 
ENDBRANCH  22  23
ENDBRANCH   1  22
TORSDOF 6
ENDMDL
MODEL 8
REMARK VINA RESULT:      -8.7      2.641      6.410
REMARK  6 active torsions:
REMARK  status: ('A' for Active; 'I' for Inactive)
REMARK    1  A    between atoms: C_5  and  N_6 
REMARK       I    between atoms: N_6  and  C_7 
REMARK    2  A    between atoms: C_7  and  C_8 
REMARK    3  A    between atoms: C_8  and  N_9 
REMARK    4  A    between atoms: C_8  and  C_17 
REMARK       I    between atoms: N_9  and  C_10 
REMARK    5  A    between atoms: C_10  and  C_11 
REMARK    6  A    between atoms: C_17  and  C_18 
ROOT
HETATM    1  C   UNL     1      25.397  44.927  50.443  1.00  0.00     0.181 C 
ENDROOT
BRANCH   1   2
HETATM    2  C   UNL     1      26.051  44.391  51.739  1.00  0.00     0.245 C 
HETATM    3  N   UNL     1      27.384  44.725  51.885  1.00  0.00    -0.325 N 
HETATM    4  H   UNL     1      27.745  45.418  51.229  1.00  0.00     0.169 HD
HETATM    5  O   UNL     1      25.377  43.750  52.545  1.00  0.00    -0.271 OA
BRANCH   3   6
HETATM    6  C   UNL     1      28.290  44.267  52.860  1.00  0.00     0.034 A 
HETATM    7  C   UNL     1      29.255  43.286  52.633  1.00  0.00     0.030 A 
HETATM    8  C   UNL     1      30.140  42.910  53.650  1.00  0.00     0.009 A 
HETATM    9  C   UNL     1      30.073  43.508  54.912  1.00  0.00    -0.062 A 
HETATM   10  C   UNL     1      31.055  43.139  55.984  1.00  0.00     0.048 C 
HETATM   11  C   UNL     1      29.116  44.501  55.136  1.00  0.00     0.009 A 
HETATM   12  C   UNL     1      28.228  44.871  54.120  1.00  0.00     0.030 A 
ENDBRANCH   3   6
ENDBRANCH   1   2
BRANCH   1  13
HETATM   13  N   UNL     1      25.044  43.821  49.544  1.00  0.00    -0.342 N 
HETATM   14  C   UNL     1      25.936  42.892  49.062  1.00  0.00     0.276 C 
HETATM   15  O   UNL     1      27.146  42.988  49.264  1.00  0.00    -0.265 OA
HETATM   16  H   UNL     1      24.067  43.687  49.306  1.00  0.00     0.163 HD
BRANCH  14  17
HETATM   17  C   UNL     1      25.326  41.809  48.322  1.00  0.00     0.142 A 
HETATM   18  O   UNL     1      23.963  41.655  48.356  1.00  0.00    -0.317 OA
HETATM   19  C   UNL     1      23.666  40.561  47.607  1.00  0.00     0.143 A 
HETATM   20  C   UNL     1      24.811  40.006  47.087  1.00  0.00     0.027 A 
HETATM   21  C   UNL     1      25.883  40.810  47.546  1.00  0.00     0.045 A 
ENDBRANCH  14  17
ENDBRANCH   1  13
BRANCH   1  22
HETATM   22  C   UNL     1      24.225  45.894  50.686  1.00  0.00     0.075 C 
BRANCH  22  23
HETATM   23  C   UNL     1      24.167  47.121  49.822  1.00  0.00    -0.028 A 
HETATM   24  C   UNL     1      25.299  47.951  49.517  1.00  0.00    -0.002 A 
HETATM   25  C   UNL     1      24.865  48.961  48.660  1.00  0.00     0.042 A 
HETATM   26  C   UNL     1      26.658  47.924  49.889  1.00  0.00     0.014 A 
HETATM   27  C   UNL     1      25.723  49.945  48.153  1.00  0.00     0.030 A 
HETATM   28  N   UNL     1      23.522  48.763  48.453  1.00  0.00    -0.365 N 
HETATM   29  C   UNL     1      27.066  49.895  48.538  1.00  0.00     0.002 A 
HETATM   30  C   UNL     1      27.530  48.901  49.396  1.00  0.00     0.001 A 
HETATM   31  H   UNL     1      22.941  49.340  47.861  1.00  0.00     0.165 HD
HETATM   32  C   UNL     1      23.090  47.665  49.151  1.00  0.00     0.096 A 
ENDBRANCH  22  23
ENDBRANCH   1  22
TORSDOF 6
ENDMDL
MODEL 9
REMARK VINA RESULT:      -8.7      2.114      7.486
REMARK  6 active torsions:
REMARK  status: ('A' for Active; 'I' for Inactive)
REMARK    1  A    between atoms: C_5  and  N_6 
REMARK       I    between atoms: N_6  and  C_7 
REMARK    2  A    between atoms: C_7  and  C_8 
REMARK    3  A    between atoms: C_8  and  N_9 
REMARK    4  A    between atoms: C_8  and  C_17 
REMARK       I    between atoms: N_9  and  C_10 
REMARK    5  A    between atoms: C_10  and  C_11 
REMARK    6  A    between atoms: C_17  and  C_18 
ROOT
HETATM    1  C   UNL     1      26.606  43.605  51.875  1.00  0.00     0.181 C 
ENDROOT
BRANCH   1   2
HETATM    2  C   UNL     1      27.125  43.762  53.324  1.00  0.00     0.245 C 
HETATM    3  N   UNL     1      28.403  44.278  53.419  1.00  0.00    -0.325 N 
HETATM    4  H   UNL     1      28.797  44.656  52.557  1.00  0.00     0.169 HD
HETATM    5  O   UNL     1      26.398  43.458  54.270  1.00  0.00    -0.271 OA
BRANCH   3   6
HETATM    6  C   UNL     1      29.207  44.395  54.568  1.00  0.00     0.034 A 
HETATM    7  C   UNL     1      29.158  45.472  55.452  1.00  0.00     0.030 A 
HETATM    8  C   UNL     1      29.971  45.495  56.591  1.00  0.00     0.009 A 
HETATM    9  C   UNL     1      30.849  44.441  56.863  1.00  0.00    -0.062 A 
HETATM   10  C   UNL     1      31.683  44.445  58.110  1.00  0.00     0.048 C 
HETATM   11  C   UNL     1      30.889  43.355  55.985  1.00  0.00     0.009 A 
HETATM   12  C   UNL     1      30.080  43.337  54.844  1.00  0.00     0.030 A 
ENDBRANCH   3   6
ENDBRANCH   1   2
BRANCH   1  13
HETATM   13  N   UNL     1      27.068  42.339  51.292  1.00  0.00    -0.342 N 
HETATM   14  C   UNL     1      27.310  42.139  49.953  1.00  0.00     0.276 C 
HETATM   15  O   UNL     1      27.042  42.994  49.110  1.00  0.00    -0.265 OA
HETATM   16  H   UNL     1      27.288  41.572  51.918  1.00  0.00     0.163 HD
BRANCH  14  17
HETATM   17  C   UNL     1      27.909  40.859  49.641  1.00  0.00     0.142 A 
HETATM   18  O   UNL     1      28.272  40.019  50.663  1.00  0.00    -0.317 OA
HETATM   19  C   UNL     1      28.823  38.915  50.096  1.00  0.00     0.143 A 
HETATM   20  C   UNL     1      28.822  39.024  48.726  1.00  0.00     0.027 A 
HETATM   21  C   UNL     1      28.231  40.276  48.430  1.00  0.00     0.045 A 
ENDBRANCH  14  17
ENDBRANCH   1  13
BRANCH   1  22
HETATM   22  C   UNL     1      25.088  43.809  51.727  1.00  0.00     0.075 C 
BRANCH  22  23
HETATM   23  C   UNL     1      24.635  45.069  51.048  1.00  0.00    -0.028 A 
HETATM   24  C   UNL     1      23.834  45.104  49.856  1.00  0.00    -0.002 A 
HETATM   25  C   UNL     1      23.582  46.441  49.553  1.00  0.00     0.042 A 
HETATM   26  C   UNL     1      23.290  44.111  49.015  1.00  0.00     0.014 A 
HETATM   27  C   UNL     1      22.813  46.837  48.452  1.00  0.00     0.030 A 
HETATM   28  N   UNL     1      24.209  47.196  50.514  1.00  0.00    -0.365 N 
HETATM   29  C   UNL     1      22.287  45.832  47.634  1.00  0.00     0.002 A 
HETATM   30  C   UNL     1      22.522  44.488  47.908  1.00  0.00     0.001 A 
HETATM   31  H   UNL     1      24.189  48.205  50.555  1.00  0.00     0.165 HD
HETATM   32  C   UNL     1      24.850  46.383  51.413  1.00  0.00     0.096 A 
ENDBRANCH  22  23
ENDBRANCH   1  22
TORSDOF 6
ENDMDL
MODEL 10
REMARK VINA RESULT:      -8.6      2.736      6.970
REMARK  6 active torsions:
REMARK  status: ('A' for Active; 'I' for Inactive)
REMARK    1  A    between atoms: C_5  and  N_6 
REMARK       I    between atoms: N_6  and  C_7 
REMARK    2  A    between atoms: C_7  and  C_8 
REMARK    3  A    between atoms: C_8  and  N_9 
REMARK    4  A    between atoms: C_8  and  C_17 
REMARK       I    between atoms: N_9  and  C_10 
REMARK    5  A    between atoms: C_10  and  C_11 
REMARK    6  A    between atoms: C_17  and  C_18 
ROOT
HETATM    1  C   UNL     1      25.560  44.952  50.272  1.00  0.00     0.181 C 
ENDROOT
BRANCH   1   2
HETATM    2  C   UNL     1      26.151  44.429  51.603  1.00  0.00     0.245 C 
HETATM    3  N   UNL     1      27.489  44.721  51.786  1.00  0.00    -0.325 N 
HETATM    4  H   UNL     1      27.896  45.383  51.125  1.00  0.00     0.169 HD
HETATM    5  O   UNL     1      25.428  43.833  52.401  1.00  0.00    -0.271 OA
BRANCH   3   6
HETATM    6  C   UNL     1      28.346  44.258  52.803  1.00  0.00     0.034 A 
HETATM    7  C   UNL     1      29.292  43.248  52.631  1.00  0.00     0.030 A 
HETATM    8  C   UNL     1      30.128  42.869  53.688  1.00  0.00     0.009 A 
HETATM    9  C   UNL     1      30.029  43.493  54.936  1.00  0.00    -0.062 A 
HETATM   10  C   UNL     1      30.959  43.120  56.051  1.00  0.00     0.048 C 
HETATM   11  C   UNL     1      29.090  44.514  55.105  1.00  0.00     0.009 A 
HETATM   12  C   UNL     1      28.251  44.887  54.050  1.00  0.00     0.030 A 
ENDBRANCH   3   6
ENDBRANCH   1   2
BRANCH   1  13
HETATM   13  N   UNL     1      25.054  43.840  49.457  1.00  0.00    -0.342 N 
HETATM   14  C   UNL     1      25.825  42.807  48.980  1.00  0.00     0.276 C 
HETATM   15  O   UNL     1      27.049  42.797  49.110  1.00  0.00    -0.265 OA
HETATM   16  H   UNL     1      24.056  43.789  49.280  1.00  0.00     0.163 HD
BRANCH  14  17
HETATM   17  C   UNL     1      25.075  41.751  48.337  1.00  0.00     0.142 A 
HETATM   18  O   UNL     1      25.704  40.932  47.433  1.00  0.00    -0.317 OA
HETATM   19  C   UNL     1      24.773  40.059  46.969  1.00  0.00     0.143 A 
HETATM   20  C   UNL     1      23.553  40.296  47.556  1.00  0.00     0.027 A 
HETATM   21  C   UNL     1      23.746  41.386  48.440  1.00  0.00     0.045 A 
ENDBRANCH  14  17
ENDBRANCH   1  13
BRANCH   1  22
HETATM   22  C   UNL     1      24.530  46.081  50.445  1.00  0.00     0.075 C 
BRANCH  22  23
HETATM   23  C   UNL     1      24.841  47.391  49.778  1.00  0.00    -0.028 A 
HETATM   24  C   UNL     1      23.863  48.227  49.140  1.00  0.00    -0.002 A 
HETATM   25  C   UNL     1      24.517  49.369  48.678  1.00  0.00     0.042 A 
HETATM   26  C   UNL     1      22.474  48.116  48.924  1.00  0.00     0.014 A 
HETATM   27  C   UNL     1      23.852  50.406  48.014  1.00  0.00     0.030 A 
HETATM   28  N   UNL     1      25.842  49.236  49.013  1.00  0.00    -0.365 N 
HETATM   29  C   UNL     1      22.475  50.269  47.813  1.00  0.00     0.002 A 
HETATM   30  C   UNL     1      21.793  49.141  48.258  1.00  0.00     0.001 A 
HETATM   31  H   UNL     1      26.556  49.921  48.814  1.00  0.00     0.165 HD
HETATM   32  C   UNL     1      26.050  48.049  49.668  1.00  0.00     0.096 A 
ENDBRANCH  22  23
ENDBRANCH   1  22
TORSDOF 6
ENDMDL
