MODEL 1
REMARK VINA RESULT:      -9.6      0.000      0.000
REMARK  5 active torsions:
REMARK  status: ('A' for Active; 'I' for Inactive)
REMARK    1  A    between atoms: C_3  and  N_4 
REMARK       I    between atoms: N_4  and  C_5 
REMARK    2  A    between atoms: C_9  and  N_10 
REMARK       I    between atoms: N_10  and  C_11 
REMARK    3  A    between atoms: C_11  and  C_12 
REMARK    4  A    between atoms: C_17  and  C_18 
REMARK    5  A    between atoms: C_24  and  C_25 
ROOT
HETATM    1  C   UNL     1      23.933  47.805  49.784  1.00  0.00     0.148 A 
HETATM    2  N   UNL     1      23.740  49.147  49.759  1.00  0.00    -0.165 NA
HETATM    3  N   UNL     1      22.536  49.268  49.168  1.00  0.00    -0.240 N 
HETATM    4  C   UNL     1      22.022  48.094  48.700  1.00  0.00     0.123 A 
HETATM    5  N   UNL     1      20.880  48.076  47.984  1.00  0.00    -0.364 N 
HETATM    6  C   UNL     1      20.397  49.256  47.257  1.00  0.00     0.143 C 
HETATM    7  C   UNL     1      21.211  50.532  47.572  1.00  0.00     0.068 C 
HETATM    8  C   UNL     1      21.885  50.544  48.952  1.00  0.00     0.221 C 
HETATM    9  C   UNL     1      22.865  47.114  49.145  1.00  0.00     0.089 A 
HETATM   10  H   UNL     1      20.534  47.194  47.605  1.00  0.00     0.162 HD
ENDROOT
BRANCH   1  11
HETATM   11  C   UNL     1      25.131  47.184  50.376  1.00  0.00     0.276 C 
HETATM   12  N   UNL     1      24.983  46.938  51.728  1.00  0.00    -0.322 N 
HETATM   13  H   UNL     1      24.077  47.215  52.096  1.00  0.00     0.169 HD
HETATM   14  O   UNL     1      26.129  46.962  49.699  1.00  0.00    -0.266 OA
BRANCH  12  15
HETATM   15  C   UNL     1      25.939  46.424  52.625  1.00  0.00     0.037 A 
HETATM   16  C   UNL     1      26.358  45.092  52.633  1.00  0.00     0.059 A 
HETATM   17  C   UNL     1      27.352  44.623  53.517  1.00  0.00     0.042 A 
HETATM   18  C   UNL     1      27.887  45.506  54.469  1.00  0.00    -0.035 A 
HETATM   19  C   UNL     1      28.853  45.119  55.553  1.00  0.00     0.050 C 
HETATM   20  C   UNL     1      27.470  46.852  54.446  1.00  0.00     0.011 A 
HETATM   21  C   UNL     1      26.508  47.305  53.539  1.00  0.00     0.030 A 
BRANCH  17  22
HETATM   22  N   UNL     1      27.669  43.252  53.365  1.00  0.00    -0.327 N 
HETATM   23  C   UNL     1      28.847  42.687  52.915  1.00  0.00     0.218 C 
HETATM   24  C   UNL     1      28.802  41.179  52.961  1.00  0.00     0.117 C 
HETATM   25  O   UNL     1      29.840  43.270  52.498  1.00  0.00    -0.274 OA
HETATM   26  H   UNL     1      26.870  42.631  53.350  1.00  0.00     0.169 HD
ENDBRANCH  17  22
ENDBRANCH  12  15
ENDBRANCH   1  11
BRANCH   8  27
HETATM   27  C   UNL     1      20.934  50.835  50.090  1.00  0.00     0.409 C 
HETATM   28  F   UNL     1      21.588  51.304  51.179  1.00  0.00    -0.169 F 
HETATM   29  F   UNL     1      20.058  51.806  49.725  1.00  0.00    -0.169 F 
HETATM   30  F   UNL     1      20.204  49.775  50.486  1.00  0.00    -0.169 F 
ENDBRANCH   8  27
BRANCH   6  31
HETATM   31  C   UNL     1      18.924  49.483  47.385  1.00  0.00     0.075 A 
HETATM   32  O   UNL     1      18.253  48.632  48.216  1.00  0.00    -0.325 OA
HETATM   33  C   UNL     1      16.955  49.031  48.233  1.00  0.00     0.142 A 
HETATM   34  C   UNL     1      16.778  50.126  47.422  1.00  0.00     0.027 A 
HETATM   35  C   UNL     1      18.048  50.421  46.875  1.00  0.00     0.037 A 
ENDBRANCH   6  31
TORSDOF 5
ENDMDL
MODEL 2
REMARK VINA RESULT:      -9.4      1.201      2.079
REMARK  5 active torsions:
REMARK  status: ('A' for Active; 'I' for Inactive)
REMARK    1  A    between atoms: C_3  and  N_4 
REMARK       I    between atoms: N_4  and  C_5 
REMARK    2  A    between atoms: C_9  and  N_10 
REMARK       I    between atoms: N_10  and  C_11 
REMARK    3  A    between atoms: C_11  and  C_12 
REMARK    4  A    between atoms: C_17  and  C_18 
REMARK    5  A    between atoms: C_24  and  C_25 
ROOT
HETATM    1  C   UNL     1      24.118  47.995  49.747  1.00  0.00     0.148 A 
HETATM    2  N   UNL     1      23.832  49.318  49.675  1.00  0.00    -0.165 NA
HETATM    3  N   UNL     1      22.591  49.332  49.153  1.00  0.00    -0.240 N 
HETATM    4  C   UNL     1      22.132  48.106  48.769  1.00  0.00     0.123 A 
HETATM    5  N   UNL     1      20.955  47.978  48.125  1.00  0.00    -0.364 N 
HETATM    6  C   UNL     1      20.352  49.088  47.377  1.00  0.00     0.143 C 
HETATM    7  C   UNL     1      21.094  50.428  47.586  1.00  0.00     0.068 C 
HETATM    8  C   UNL     1      21.843  50.550  48.921  1.00  0.00     0.221 C 
HETATM    9  C   UNL     1      23.065  47.206  49.205  1.00  0.00     0.089 A 
HETATM   10  H   UNL     1      20.649  47.058  47.807  1.00  0.00     0.162 HD
ENDROOT
BRANCH   1  11
HETATM   11  C   UNL     1      25.387  47.483  50.293  1.00  0.00     0.276 C 
HETATM   12  N   UNL     1      25.219  46.311  51.007  1.00  0.00    -0.322 N 
HETATM   13  H   UNL     1      24.257  45.986  51.035  1.00  0.00     0.169 HD
HETATM   14  O   UNL     1      26.439  48.091  50.124  1.00  0.00    -0.266 OA
BRANCH  12  15
HETATM   15  C   UNL     1      26.191  45.585  51.720  1.00  0.00     0.037 A 
HETATM   16  C   UNL     1      26.484  45.796  53.069  1.00  0.00     0.059 A 
HETATM   17  C   UNL     1      27.433  45.017  53.763  1.00  0.00     0.042 A 
HETATM   18  C   UNL     1      28.160  44.044  53.058  1.00  0.00    -0.035 A 
HETATM   19  C   UNL     1      29.287  43.231  53.629  1.00  0.00     0.050 C 
HETATM   20  C   UNL     1      27.851  43.827  51.700  1.00  0.00     0.011 A 
HETATM   21  C   UNL     1      26.882  44.587  51.039  1.00  0.00     0.030 A 
BRANCH  17  22
HETATM   22  N   UNL     1      27.579  45.354  55.130  1.00  0.00    -0.327 N 
HETATM   23  C   UNL     1      28.579  46.094  55.730  1.00  0.00     0.218 C 
HETATM   24  C   UNL     1      28.334  46.277  57.208  1.00  0.00     0.117 C 
HETATM   25  O   UNL     1      29.581  46.559  55.201  1.00  0.00    -0.274 OA
HETATM   26  H   UNL     1      27.030  44.789  55.766  1.00  0.00     0.169 HD
ENDBRANCH  17  22
ENDBRANCH  12  15
ENDBRANCH   1  11
BRANCH   8  27
HETATM   27  C   UNL     1      20.942  50.832  50.101  1.00  0.00     0.409 C 
HETATM   28  F   UNL     1      21.639  51.303  51.162  1.00  0.00    -0.169 F 
HETATM   29  F   UNL     1      20.044  51.799  49.777  1.00  0.00    -0.169 F 
HETATM   30  F   UNL     1      20.235  49.767  50.525  1.00  0.00    -0.169 F 
ENDBRANCH   8  27
BRANCH   6  31
HETATM   31  C   UNL     1      18.876  49.224  47.584  1.00  0.00     0.075 A 
HETATM   32  O   UNL     1      18.291  48.285  48.385  1.00  0.00    -0.325 OA
HETATM   33  C   UNL     1      16.976  48.609  48.484  1.00  0.00     0.142 A 
HETATM   34  C   UNL     1      16.703  49.742  47.757  1.00  0.00     0.027 A 
HETATM   35  C   UNL     1      17.930  50.142  47.176  1.00  0.00     0.037 A 
ENDBRANCH   6  31
TORSDOF 5
ENDMDL
MODEL 3
REMARK VINA RESULT:      -9.3      3.405     10.135
REMARK  5 active torsions:
REMARK  status: ('A' for Active; 'I' for Inactive)
REMARK    1  A    between atoms: C_3  and  N_4 
REMARK       I    between atoms: N_4  and  C_5 
REMARK    2  A    between atoms: C_9  and  N_10 
REMARK       I    between atoms: N_10  and  C_11 
REMARK    3  A    between atoms: C_11  and  C_12 
REMARK    4  A    between atoms: C_17  and  C_18 
REMARK    5  A    between atoms: C_24  and  C_25 
ROOT
HETATM    1  C   UNL     1      23.768  46.500  49.172  1.00  0.00     0.148 A 
HETATM    2  N   UNL     1      23.942  45.209  48.798  1.00  0.00    -0.165 NA
HETATM    3  N   UNL     1      24.916  44.783  49.625  1.00  0.00    -0.240 N 
HETATM    4  C   UNL     1      25.457  45.763  50.404  1.00  0.00     0.123 A 
HETATM    5  N   UNL     1      26.519  45.512  51.196  1.00  0.00    -0.364 N 
HETATM    6  C   UNL     1      27.440  44.399  50.934  1.00  0.00     0.143 C 
HETATM    7  C   UNL     1      26.946  43.461  49.808  1.00  0.00     0.068 C 
HETATM    8  C   UNL     1      25.422  43.426  49.620  1.00  0.00     0.221 C 
HETATM    9  C   UNL     1      24.690  46.875  50.191  1.00  0.00     0.089 A 
HETATM   10  H   UNL     1      26.937  46.268  51.738  1.00  0.00     0.162 HD
ENDROOT
BRANCH   1  11
HETATM   11  C   UNL     1      22.763  47.381  48.551  1.00  0.00     0.276 C 
HETATM   12  N   UNL     1      22.310  48.357  49.418  1.00  0.00    -0.322 N 
HETATM   13  H   UNL     1      22.744  48.319  50.337  1.00  0.00     0.169 HD
HETATM   14  O   UNL     1      22.389  47.198  47.398  1.00  0.00    -0.266 OA
BRANCH  12  15
HETATM   15  C   UNL     1      21.308  49.320  49.192  1.00  0.00     0.037 A 
HETATM   16  C   UNL     1      19.951  49.015  49.077  1.00  0.00     0.059 A 
HETATM   17  C   UNL     1      18.970  50.012  48.896  1.00  0.00     0.042 A 
HETATM   18  C   UNL     1      19.377  51.348  48.753  1.00  0.00    -0.035 A 
HETATM   19  C   UNL     1      18.463  52.496  48.428  1.00  0.00     0.050 C 
HETATM   20  C   UNL     1      20.747  51.651  48.883  1.00  0.00     0.011 A 
HETATM   21  C   UNL     1      21.701  50.651  49.097  1.00  0.00     0.030 A 
BRANCH  17  22
HETATM   22  N   UNL     1      17.644  49.522  48.828  1.00  0.00    -0.327 N 
HETATM   23  C   UNL     1      16.884  49.249  47.707  1.00  0.00     0.218 C 
HETATM   24  C   UNL     1      15.533  48.681  48.067  1.00  0.00     0.117 C 
HETATM   25  O   UNL     1      17.192  49.436  46.536  1.00  0.00    -0.274 OA
HETATM   26  H   UNL     1      17.113  49.615  49.686  1.00  0.00     0.169 HD
ENDBRANCH  17  22
ENDBRANCH  12  15
ENDBRANCH   1  11
BRANCH   8  27
HETATM   27  C   UNL     1      24.699  42.604  50.661  1.00  0.00     0.409 C 
HETATM   28  F   UNL     1      23.451  42.271  50.257  1.00  0.00    -0.169 F 
HETATM   29  F   UNL     1      25.357  41.433  50.866  1.00  0.00    -0.169 F 
HETATM   30  F   UNL     1      24.586  43.206  51.861  1.00  0.00    -0.169 F 
ENDBRANCH   8  27
BRANCH   6  31
HETATM   31  C   UNL     1      27.839  43.643  52.162  1.00  0.00     0.075 A 
HETATM   32  O   UNL     1      28.152  42.326  51.983  1.00  0.00    -0.325 OA
HETATM   33  C   UNL     1      28.531  41.838  53.192  1.00  0.00     0.142 A 
HETATM   34  C   UNL     1      28.463  42.821  54.150  1.00  0.00     0.027 A 
HETATM   35  C   UNL     1      28.018  43.988  53.486  1.00  0.00     0.037 A 
ENDBRANCH   6  31
TORSDOF 5
ENDMDL
MODEL 4
REMARK VINA RESULT:      -9.0      2.935     10.001
REMARK  5 active torsions:
REMARK  status: ('A' for Active; 'I' for Inactive)
REMARK    1  A    between atoms: C_3  and  N_4 
REMARK       I    between atoms: N_4  and  C_5 
REMARK    2  A    between atoms: C_9  and  N_10 
REMARK       I    between atoms: N_10  and  C_11 
REMARK    3  A    between atoms: C_11  and  C_12 
REMARK    4  A    between atoms: C_17  and  C_18 
REMARK    5  A    between atoms: C_24  and  C_25 
ROOT
HETATM    1  C   UNL     1      24.864  47.389  50.396  1.00  0.00     0.148 A 
HETATM    2  N   UNL     1      24.680  47.299  51.735  1.00  0.00    -0.165 NA
HETATM    3  N   UNL     1      25.549  46.335  52.096  1.00  0.00    -0.240 N 
HETATM    4  C   UNL     1      26.171  45.722  51.049  1.00  0.00     0.123 A 
HETATM    5  N   UNL     1      26.980  44.662  51.249  1.00  0.00    -0.364 N 
HETATM    6  C   UNL     1      26.872  43.814  52.442  1.00  0.00     0.143 C 
HETATM    7  C   UNL     1      25.900  44.384  53.500  1.00  0.00     0.068 C 
HETATM    8  C   UNL     1      25.735  45.911  53.469  1.00  0.00     0.221 C 
HETATM    9  C   UNL     1      25.808  46.427  49.935  1.00  0.00     0.089 A 
HETATM   10  H   UNL     1      27.402  44.190  50.449  1.00  0.00     0.162 HD
ENDROOT
BRANCH   1  11
HETATM   11  C   UNL     1      24.133  48.352  49.554  1.00  0.00     0.276 C 
HETATM   12  N   UNL     1      22.786  48.404  49.860  1.00  0.00    -0.322 N 
HETATM   13  H   UNL     1      22.517  47.781  50.617  1.00  0.00     0.169 HD
HETATM   14  O   UNL     1      24.707  48.986  48.675  1.00  0.00    -0.266 OA
BRANCH  12  15
HETATM   15  C   UNL     1      21.780  49.152  49.220  1.00  0.00     0.037 A 
HETATM   16  C   UNL     1      20.752  48.584  48.465  1.00  0.00     0.059 A 
HETATM   17  C   UNL     1      19.735  49.363  47.876  1.00  0.00     0.042 A 
HETATM   18  C   UNL     1      19.797  50.761  47.990  1.00  0.00    -0.035 A 
HETATM   19  C   UNL     1      18.862  51.723  47.310  1.00  0.00     0.050 C 
HETATM   20  C   UNL     1      20.830  51.327  48.764  1.00  0.00     0.011 A 
HETATM   21  C   UNL     1      21.810  50.535  49.369  1.00  0.00     0.030 A 
BRANCH  17  22
HETATM   22  N   UNL     1      18.761  48.617  47.171  1.00  0.00    -0.327 N 
HETATM   23  C   UNL     1      17.607  48.032  47.658  1.00  0.00     0.218 C 
HETATM   24  C   UNL     1      16.804  47.374  46.562  1.00  0.00     0.117 C 
HETATM   25  O   UNL     1      17.227  47.994  48.821  1.00  0.00    -0.274 OA
HETATM   26  H   UNL     1      19.065  48.267  46.271  1.00  0.00     0.169 HD
ENDBRANCH  17  22
ENDBRANCH  12  15
ENDBRANCH   1  11
BRANCH   8  27
HETATM   27  C   UNL     1      26.893  46.661  54.086  1.00  0.00     0.409 C 
HETATM   28  F   UNL     1      27.450  47.529  53.210  1.00  0.00    -0.169 F 
HETATM   29  F   UNL     1      26.455  47.407  55.134  1.00  0.00    -0.169 F 
HETATM   30  F   UNL     1      27.879  45.870  54.552  1.00  0.00    -0.169 F 
ENDBRANCH   8  27
BRANCH   6  31
HETATM   31  C   UNL     1      28.192  43.436  53.036  1.00  0.00     0.075 A 
HETATM   32  O   UNL     1      28.165  42.982  54.324  1.00  0.00    -0.325 OA
HETATM   33  C   UNL     1      29.439  42.650  54.656  1.00  0.00     0.142 A 
HETATM   34  C   UNL     1      30.288  42.885  53.603  1.00  0.00     0.027 A 
HETATM   35  C   UNL     1      29.485  43.392  52.554  1.00  0.00     0.037 A 
ENDBRANCH   6  31
TORSDOF 5
ENDMDL
MODEL 5
REMARK VINA RESULT:      -8.9      3.413      5.753
REMARK  5 active torsions:
REMARK  status: ('A' for Active; 'I' for Inactive)
REMARK    1  A    between atoms: C_3  and  N_4 
REMARK       I    between atoms: N_4  and  C_5 
REMARK    2  A    between atoms: C_9  and  N_10 
REMARK       I    between atoms: N_10  and  C_11 
REMARK    3  A    between atoms: C_11  and  C_12 
REMARK    4  A    between atoms: C_17  and  C_18 
REMARK    5  A    between atoms: C_24  and  C_25 
ROOT
HETATM    1  C   UNL     1      20.212  51.056  48.900  1.00  0.00     0.148 A 
HETATM    2  N   UNL     1      19.648  50.337  47.899  1.00  0.00    -0.165 NA
HETATM    3  N   UNL     1      18.467  50.956  47.710  1.00  0.00    -0.240 N 
HETATM    4  C   UNL     1      18.197  51.937  48.618  1.00  0.00     0.123 A 
HETATM    5  N   UNL     1      17.004  52.565  48.626  1.00  0.00    -0.364 N 
HETATM    6  C   UNL     1      15.800  51.956  48.049  1.00  0.00     0.143 C 
HETATM    7  C   UNL     1      16.097  50.651  47.275  1.00  0.00     0.068 C 
HETATM    8  C   UNL     1      17.515  50.553  46.694  1.00  0.00     0.221 C 
HETATM    9  C   UNL     1      19.336  52.080  49.361  1.00  0.00     0.089 A 
HETATM   10  H   UNL     1      16.805  53.265  49.341  1.00  0.00     0.162 HD
ENDROOT
BRANCH   1  11
HETATM   11  C   UNL     1      21.551  50.760  49.437  1.00  0.00     0.276 C 
HETATM   12  N   UNL     1      22.360  50.122  48.515  1.00  0.00    -0.322 N 
HETATM   13  H   UNL     1      21.909  49.967  47.617  1.00  0.00     0.169 HD
HETATM   14  O   UNL     1      21.846  51.045  50.593  1.00  0.00    -0.266 OA
BRANCH  12  15
HETATM   15  C   UNL     1      23.665  49.630  48.702  1.00  0.00     0.037 A 
HETATM   16  C   UNL     1      23.967  48.496  49.459  1.00  0.00     0.059 A 
HETATM   17  C   UNL     1      25.283  48.006  49.586  1.00  0.00     0.042 A 
HETATM   18  C   UNL     1      26.335  48.721  48.992  1.00  0.00    -0.035 A 
HETATM   19  C   UNL     1      27.794  48.395  49.149  1.00  0.00     0.050 C 
HETATM   20  C   UNL     1      26.023  49.857  48.218  1.00  0.00     0.011 A 
HETATM   21  C   UNL     1      24.707  50.307  48.076  1.00  0.00     0.030 A 
BRANCH  17  22
HETATM   22  N   UNL     1      25.397  46.832  50.368  1.00  0.00    -0.327 N 
HETATM   23  C   UNL     1      25.379  46.710  51.744  1.00  0.00     0.218 C 
HETATM   24  C   UNL     1      25.469  45.269  52.183  1.00  0.00     0.117 C 
HETATM   25  O   UNL     1      25.320  47.613  52.570  1.00  0.00    -0.274 OA
HETATM   26  H   UNL     1      25.777  46.031  49.878  1.00  0.00     0.169 HD
ENDBRANCH  17  22
ENDBRANCH  12  15
ENDBRANCH   1  11
BRANCH   8  27
HETATM   27  C   UNL     1      17.719  51.376  45.443  1.00  0.00     0.409 C 
HETATM   28  F   UNL     1      18.846  51.016  44.786  1.00  0.00    -0.169 F 
HETATM   29  F   UNL     1      16.692  51.166  44.579  1.00  0.00    -0.169 F 
HETATM   30  F   UNL     1      17.786  52.704  45.659  1.00  0.00    -0.169 F 
ENDBRANCH   8  27
BRANCH   6  31
HETATM   31  C   UNL     1      14.965  52.906  47.250  1.00  0.00     0.075 A 
HETATM   32  O   UNL     1      14.520  54.017  47.909  1.00  0.00    -0.325 OA
HETATM   33  C   UNL     1      13.833  54.766  47.009  1.00  0.00     0.142 A 
HETATM   34  C   UNL     1      13.826  54.153  45.779  1.00  0.00     0.027 A 
HETATM   35  C   UNL     1      14.558  52.953  45.932  1.00  0.00     0.037 A 
ENDBRANCH   6  31
TORSDOF 5
ENDMDL
MODEL 6
REMARK VINA RESULT:      -8.6     13.901     14.766
REMARK  5 active torsions:
REMARK  status: ('A' for Active; 'I' for Inactive)
REMARK    1  A    between atoms: C_3  and  N_4 
REMARK       I    between atoms: N_4  and  C_5 
REMARK    2  A    between atoms: C_9  and  N_10 
REMARK       I    between atoms: N_10  and  C_11 
REMARK    3  A    between atoms: C_11  and  C_12 
REMARK    4  A    between atoms: C_17  and  C_18 
REMARK    5  A    between atoms: C_24  and  C_25 
ROOT
HETATM    1  C   UNL     1      34.109  51.150  41.428  1.00  0.00     0.148 A 
HETATM    2  N   UNL     1      33.624  52.205  40.730  1.00  0.00    -0.165 NA
HETATM    3  N   UNL     1      32.433  51.756  40.290  1.00  0.00    -0.240 N 
HETATM    4  C   UNL     1      32.199  50.439  40.557  1.00  0.00     0.123 A 
HETATM    5  N   UNL     1      31.101  49.820  40.078  1.00  0.00    -0.364 N 
HETATM    6  C   UNL     1      30.381  50.315  38.898  1.00  0.00     0.143 C 
HETATM    7  C   UNL     1      30.888  51.693  38.417  1.00  0.00     0.068 C 
HETATM    8  C   UNL     1      31.519  52.567  39.511  1.00  0.00     0.221 C 
HETATM    9  C   UNL     1      33.230  50.032  41.356  1.00  0.00     0.089 A 
HETATM   10  H   UNL     1      30.965  48.825  40.251  1.00  0.00     0.162 HD
ENDROOT
BRANCH   1  11
HETATM   11  C   UNL     1      35.404  51.186  42.129  1.00  0.00     0.276 C 
HETATM   12  N   UNL     1      35.824  52.476  42.395  1.00  0.00    -0.322 N 
HETATM   13  H   UNL     1      35.175  53.189  42.075  1.00  0.00     0.169 HD
HETATM   14  O   UNL     1      36.009  50.152  42.394  1.00  0.00    -0.266 OA
BRANCH  12  15
HETATM   15  C   UNL     1      37.035  52.889  42.983  1.00  0.00     0.037 A 
HETATM   16  C   UNL     1      37.252  52.938  44.361  1.00  0.00     0.059 A 
HETATM   17  C   UNL     1      38.494  53.314  44.913  1.00  0.00     0.042 A 
HETATM   18  C   UNL     1      39.525  53.721  44.051  1.00  0.00    -0.035 A 
HETATM   19  C   UNL     1      40.853  54.268  44.496  1.00  0.00     0.050 C 
HETATM   20  C   UNL     1      39.304  53.656  42.660  1.00  0.00     0.011 A 
HETATM   21  C   UNL     1      38.076  53.248  42.133  1.00  0.00     0.030 A 
BRANCH  17  22
HETATM   22  N   UNL     1      38.540  53.280  46.327  1.00  0.00    -0.327 N 
HETATM   23  C   UNL     1      38.455  54.334  47.215  1.00  0.00     0.218 C 
HETATM   24  C   UNL     1      38.485  53.866  48.650  1.00  0.00     0.117 C 
HETATM   25  O   UNL     1      38.381  55.527  46.949  1.00  0.00    -0.274 OA
HETATM   26  H   UNL     1      38.922  52.427  46.718  1.00  0.00     0.169 HD
ENDBRANCH  17  22
ENDBRANCH  12  15
ENDBRANCH   1  11
BRANCH   8  27
HETATM   27  C   UNL     1      30.510  53.224  40.424  1.00  0.00     0.409 C 
HETATM   28  F   UNL     1      30.960  54.410  40.896  1.00  0.00    -0.169 F 
HETATM   29  F   UNL     1      29.372  53.497  39.734  1.00  0.00    -0.169 F 
HETATM   30  F   UNL     1      30.155  52.477  41.487  1.00  0.00    -0.169 F 
ENDBRANCH   8  27
BRANCH   6  31
HETATM   31  C   UNL     1      28.892  50.281  39.041  1.00  0.00     0.075 A 
HETATM   32  O   UNL     1      28.172  50.553  37.912  1.00  0.00    -0.325 OA
HETATM   33  C   UNL     1      26.860  50.425  38.236  1.00  0.00     0.142 A 
HETATM   34  C   UNL     1      26.722  50.076  39.558  1.00  0.00     0.027 A 
HETATM   35  C   UNL     1      28.033  49.982  40.079  1.00  0.00     0.037 A 
ENDBRANCH   6  31
TORSDOF 5
ENDMDL
MODEL 7
REMARK VINA RESULT:      -8.6      3.615     10.334
REMARK  5 active torsions:
REMARK  status: ('A' for Active; 'I' for Inactive)
REMARK    1  A    between atoms: C_3  and  N_4 
REMARK       I    between atoms: N_4  and  C_5 
REMARK    2  A    between atoms: C_9  and  N_10 
REMARK       I    between atoms: N_10  and  C_11 
REMARK    3  A    between atoms: C_11  and  C_12 
REMARK    4  A    between atoms: C_17  and  C_18 
REMARK    5  A    between atoms: C_24  and  C_25 
ROOT
HETATM    1  C   UNL     1      24.086  43.816  50.643  1.00  0.00     0.148 A 
HETATM    2  N   UNL     1      24.049  44.677  51.689  1.00  0.00    -0.165 NA
HETATM    3  N   UNL     1      25.152  44.351  52.389  1.00  0.00    -0.240 N 
HETATM    4  C   UNL     1      25.808  43.250  51.920  1.00  0.00     0.123 A 
HETATM    5  N   UNL     1      26.861  42.736  52.585  1.00  0.00    -0.364 N 
HETATM    6  C   UNL     1      27.067  42.971  54.020  1.00  0.00     0.143 C 
HETATM    7  C   UNL     1      26.085  44.010  54.606  1.00  0.00     0.068 C 
HETATM    8  C   UNL     1      25.557  45.041  53.597  1.00  0.00     0.221 C 
HETATM    9  C   UNL     1      25.188  42.919  50.747  1.00  0.00     0.089 A 
HETATM   10  H   UNL     1      27.311  41.887  52.242  1.00  0.00     0.162 HD
ENDROOT
BRANCH   1  11
HETATM   11  C   UNL     1      23.073  43.818  49.573  1.00  0.00     0.276 C 
HETATM   12  N   UNL     1      22.915  45.065  49.000  1.00  0.00    -0.322 N 
HETATM   13  H   UNL     1      23.522  45.777  49.398  1.00  0.00     0.169 HD
HETATM   14  O   UNL     1      22.452  42.799  49.289  1.00  0.00    -0.266 OA
BRANCH  12  15
HETATM   15  C   UNL     1      21.995  45.452  48.007  1.00  0.00     0.037 A 
HETATM   16  C   UNL     1      20.756  46.034  48.281  1.00  0.00     0.059 A 
HETATM   17  C   UNL     1      19.879  46.450  47.258  1.00  0.00     0.042 A 
HETATM   18  C   UNL     1      20.230  46.207  45.920  1.00  0.00    -0.035 A 
HETATM   19  C   UNL     1      19.345  46.476  44.735  1.00  0.00     0.050 C 
HETATM   20  C   UNL     1      21.488  45.631  45.650  1.00  0.00     0.011 A 
HETATM   21  C   UNL     1      22.358  45.257  46.678  1.00  0.00     0.030 A 
BRANCH  17  22
HETATM   22  N   UNL     1      18.680  47.044  47.720  1.00  0.00    -0.327 N 
HETATM   23  C   UNL     1      17.538  46.423  48.188  1.00  0.00     0.218 C 
HETATM   24  C   UNL     1      16.501  47.421  48.644  1.00  0.00     0.117 C 
HETATM   25  O   UNL     1      17.312  45.220  48.238  1.00  0.00    -0.274 OA
HETATM   26  H   UNL     1      18.555  48.012  47.451  1.00  0.00     0.169 HD
ENDBRANCH  17  22
ENDBRANCH  12  15
ENDBRANCH   1  11
BRANCH   8  27
HETATM   27  C   UNL     1      26.551  46.127  53.260  1.00  0.00     0.409 C 
HETATM   28  F   UNL     1      27.310  45.796  52.189  1.00  0.00    -0.169 F 
HETATM   29  F   UNL     1      25.894  47.267  52.921  1.00  0.00    -0.169 F 
HETATM   30  F   UNL     1      27.390  46.441  54.265  1.00  0.00    -0.169 F 
ENDBRANCH   8  27
BRANCH   6  31
HETATM   31  C   UNL     1      28.486  43.268  54.386  1.00  0.00     0.075 A 
HETATM   32  O   UNL     1      28.675  44.241  55.326  1.00  0.00    -0.325 OA
HETATM   33  C   UNL     1      30.011  44.324  55.552  1.00  0.00     0.142 A 
HETATM   34  C   UNL     1      30.689  43.421  54.769  1.00  0.00     0.027 A 
HETATM   35  C   UNL     1      29.706  42.737  54.016  1.00  0.00     0.037 A 
ENDBRANCH   6  31
TORSDOF 5
ENDMDL
MODEL 8
REMARK VINA RESULT:      -8.6      2.950     10.273
REMARK  5 active torsions:
REMARK  status: ('A' for Active; 'I' for Inactive)
REMARK    1  A    between atoms: C_3  and  N_4 
REMARK       I    between atoms: N_4  and  C_5 
REMARK    2  A    between atoms: C_9  and  N_10 
REMARK       I    between atoms: N_10  and  C_11 
REMARK    3  A    between atoms: C_11  and  C_12 
REMARK    4  A    between atoms: C_17  and  C_18 
REMARK    5  A    between atoms: C_24  and  C_25 
ROOT
HETATM    1  C   UNL     1      24.916  46.975  50.600  1.00  0.00     0.148 A 
HETATM    2  N   UNL     1      24.739  46.959  51.943  1.00  0.00    -0.165 NA
HETATM    3  N   UNL     1      25.663  46.073  52.360  1.00  0.00    -0.240 N 
HETATM    4  C   UNL     1      26.319  45.432  51.351  1.00  0.00     0.123 A 
HETATM    5  N   UNL     1      27.188  44.435  51.613  1.00  0.00    -0.364 N 
HETATM    6  C   UNL     1      27.131  43.659  52.858  1.00  0.00     0.143 C 
HETATM    7  C   UNL     1      26.128  44.238  53.883  1.00  0.00     0.068 C 
HETATM    8  C   UNL     1      25.876  45.748  53.756  1.00  0.00     0.221 C 
HETATM    9  C   UNL     1      25.914  46.042  50.196  1.00  0.00     0.089 A 
HETATM   10  H   UNL     1      27.636  43.938  50.843  1.00  0.00     0.162 HD
ENDROOT
BRANCH   1  11
HETATM   11  C   UNL     1      24.129  47.839  49.702  1.00  0.00     0.276 C 
HETATM   12  N   UNL     1      22.817  47.422  49.586  1.00  0.00    -0.322 N 
HETATM   13  H   UNL     1      22.601  46.597  50.140  1.00  0.00     0.169 HD
HETATM   14  O   UNL     1      24.646  48.790  49.127  1.00  0.00    -0.266 OA
BRANCH  12  15
HETATM   15  C   UNL     1      21.806  47.960  48.768  1.00  0.00     0.037 A 
HETATM   16  C   UNL     1      21.104  49.129  49.068  1.00  0.00     0.059 A 
HETATM   17  C   UNL     1      20.129  49.664  48.201  1.00  0.00     0.042 A 
HETATM   18  C   UNL     1      19.800  48.960  47.031  1.00  0.00    -0.035 A 
HETATM   19  C   UNL     1      18.698  49.337  46.082  1.00  0.00     0.050 C 
HETATM   20  C   UNL     1      20.522  47.788  46.727  1.00  0.00     0.011 A 
HETATM   21  C   UNL     1      21.509  47.293  47.584  1.00  0.00     0.030 A 
BRANCH  17  22
HETATM   22  N   UNL     1      19.541  50.869  48.654  1.00  0.00    -0.327 N 
HETATM   23  C   UNL     1      18.360  51.039  49.352  1.00  0.00     0.218 C 
HETATM   24  C   UNL     1      18.117  52.488  49.701  1.00  0.00     0.117 C 
HETATM   25  O   UNL     1      17.551  50.176  49.667  1.00  0.00    -0.274 OA
HETATM   26  H   UNL     1      19.894  51.707  48.209  1.00  0.00     0.169 HD
ENDBRANCH  17  22
ENDBRANCH  12  15
ENDBRANCH   1  11
BRANCH   8  27
HETATM   27  C   UNL     1      26.988  46.601  54.319  1.00  0.00     0.409 C 
HETATM   28  F   UNL     1      27.398  46.154  55.529  1.00  0.00    -0.169 F 
HETATM   29  F   UNL     1      28.074  46.542  53.505  1.00  0.00    -0.169 F 
HETATM   30  F   UNL     1      26.672  47.903  54.457  1.00  0.00    -0.169 F 
ENDBRANCH   8  27
BRANCH   6  31
HETATM   31  C   UNL     1      28.471  43.397  53.468  1.00  0.00     0.075 A 
HETATM   32  O   UNL     1      29.452  42.984  52.612  1.00  0.00    -0.325 OA
HETATM   33  C   UNL     1      30.589  42.850  53.343  1.00  0.00     0.142 A 
HETATM   34  C   UNL     1      30.355  43.168  54.659  1.00  0.00     0.027 A 
HETATM   35  C   UNL     1      28.988  43.523  54.742  1.00  0.00     0.037 A 
ENDBRANCH   6  31
TORSDOF 5
ENDMDL
MODEL 9
REMARK VINA RESULT:      -8.5      8.347     10.424
REMARK  5 active torsions:
REMARK  status: ('A' for Active; 'I' for Inactive)
REMARK    1  A    between atoms: C_3  and  N_4 
REMARK       I    between atoms: N_4  and  C_5 
REMARK    2  A    between atoms: C_9  and  N_10 
REMARK       I    between atoms: N_10  and  C_11 
REMARK    3  A    between atoms: C_11  and  C_12 
REMARK    4  A    between atoms: C_17  and  C_18 
REMARK    5  A    between atoms: C_24  and  C_25 
ROOT
HETATM    1  C   UNL     1      27.478  41.736  50.871  1.00  0.00     0.148 A 
HETATM    2  N   UNL     1      27.786  40.427  51.036  1.00  0.00    -0.165 NA
HETATM    3  N   UNL     1      27.683  39.932  49.788  1.00  0.00    -0.240 N 
HETATM    4  C   UNL     1      27.200  40.820  48.872  1.00  0.00     0.123 A 
HETATM    5  N   UNL     1      26.933  40.434  47.608  1.00  0.00    -0.364 N 
HETATM    6  C   UNL     1      26.665  39.033  47.261  1.00  0.00     0.143 C 
HETATM    7  C   UNL     1      26.924  38.062  48.436  1.00  0.00     0.068 C 
HETATM    8  C   UNL     1      27.961  38.549  49.459  1.00  0.00     0.221 C 
HETATM    9  C   UNL     1      27.124  42.020  49.521  1.00  0.00     0.089 A 
HETATM   10  H   UNL     1      26.531  41.101  46.949  1.00  0.00     0.162 HD
ENDROOT
BRANCH   1  11
HETATM   11  C   UNL     1      27.486  42.703  51.983  1.00  0.00     0.276 C 
HETATM   12  N   UNL     1      28.715  42.775  52.610  1.00  0.00    -0.322 N 
HETATM   13  H   UNL     1      29.416  42.160  52.204  1.00  0.00     0.169 HD
HETATM   14  O   UNL     1      26.473  43.324  52.288  1.00  0.00    -0.266 OA
BRANCH  12  15
HETATM   15  C   UNL     1      29.067  43.531  53.744  1.00  0.00     0.037 A 
HETATM   16  C   UNL     1      28.303  44.591  54.237  1.00  0.00     0.059 A 
HETATM   17  C   UNL     1      28.663  45.297  55.403  1.00  0.00     0.042 A 
HETATM   18  C   UNL     1      29.866  44.973  56.050  1.00  0.00    -0.035 A 
HETATM   19  C   UNL     1      30.442  45.719  57.222  1.00  0.00     0.050 C 
HETATM   20  C   UNL     1      30.626  43.893  55.555  1.00  0.00     0.011 A 
HETATM   21  C   UNL     1      30.233  43.183  54.417  1.00  0.00     0.030 A 
BRANCH  17  22
HETATM   22  N   UNL     1      27.758  46.321  55.770  1.00  0.00    -0.327 N 
HETATM   23  C   UNL     1      27.633  47.590  55.238  1.00  0.00     0.218 C 
HETATM   24  C   UNL     1      26.498  48.358  55.871  1.00  0.00     0.117 C 
HETATM   25  O   UNL     1      28.331  48.106  54.373  1.00  0.00    -0.274 OA
HETATM   26  H   UNL     1      27.324  46.199  56.677  1.00  0.00     0.169 HD
ENDBRANCH  17  22
ENDBRANCH  12  15
ENDBRANCH   1  11
BRANCH   8  27
HETATM   27  C   UNL     1      29.391  38.409  48.991  1.00  0.00     0.409 C 
HETATM   28  F   UNL     1      29.920  39.604  48.638  1.00  0.00    -0.169 F 
HETATM   29  F   UNL     1      30.165  37.934  50.001  1.00  0.00    -0.169 F 
HETATM   30  F   UNL     1      29.552  37.575  47.946  1.00  0.00    -0.169 F 
ENDBRANCH   8  27
BRANCH   6  31
HETATM   31  C   UNL     1      27.336  38.584  46.001  1.00  0.00     0.075 A 
HETATM   32  O   UNL     1      27.962  39.555  45.273  1.00  0.00    -0.325 OA
HETATM   33  C   UNL     1      28.542  38.944  44.208  1.00  0.00     0.142 A 
HETATM   34  C   UNL     1      28.298  37.592  44.238  1.00  0.00     0.027 A 
HETATM   35  C   UNL     1      27.520  37.357  45.396  1.00  0.00     0.037 A 
ENDBRANCH   6  31
TORSDOF 5
ENDMDL
MODEL 10
REMARK VINA RESULT:      -8.5     13.140     13.831
REMARK  5 active torsions:
REMARK  status: ('A' for Active; 'I' for Inactive)
REMARK    1  A    between atoms: C_3  and  N_4 
REMARK       I    between atoms: N_4  and  C_5 
REMARK    2  A    between atoms: C_9  and  N_10 
REMARK       I    between atoms: N_10  and  C_11 
REMARK    3  A    between atoms: C_11  and  C_12 
REMARK    4  A    between atoms: C_17  and  C_18 
REMARK    5  A    between atoms: C_24  and  C_25 
ROOT
HETATM    1  C   UNL     1      32.671  51.509  42.485  1.00  0.00     0.148 A 
HETATM    2  N   UNL     1      32.442  52.311  41.416  1.00  0.00    -0.165 NA
HETATM    3  N   UNL     1      31.374  51.736  40.830  1.00  0.00    -0.240 N 
HETATM    4  C   UNL     1      31.001  50.549  41.389  1.00  0.00     0.123 A 
HETATM    5  N   UNL     1      30.024  49.801  40.838  1.00  0.00    -0.364 N 
HETATM    6  C   UNL     1      29.654  49.923  39.423  1.00  0.00     0.143 C 
HETATM    7  C   UNL     1      30.348  51.111  38.719  1.00  0.00     0.068 C 
HETATM    8  C   UNL     1      30.736  52.273  39.646  1.00  0.00     0.221 C 
HETATM    9  C   UNL     1      31.772  50.405  42.508  1.00  0.00     0.089 A 
HETATM   10  H   UNL     1      29.788  48.896  41.245  1.00  0.00     0.162 HD
ENDROOT
BRANCH   1  11
HETATM   11  C   UNL     1      33.748  51.766  43.456  1.00  0.00     0.276 C 
HETATM   12  N   UNL     1      34.983  51.902  42.850  1.00  0.00    -0.322 N 
HETATM   13  H   UNL     1      34.952  51.812  41.838  1.00  0.00     0.169 HD
HETATM   14  O   UNL     1      33.517  51.813  44.660  1.00  0.00    -0.266 OA
BRANCH  12  15
HETATM   15  C   UNL     1      36.236  52.082  43.467  1.00  0.00     0.037 A 
HETATM   16  C   UNL     1      37.335  51.249  43.251  1.00  0.00     0.059 A 
HETATM   17  C   UNL     1      38.588  51.488  43.852  1.00  0.00     0.042 A 
HETATM   18  C   UNL     1      38.717  52.556  44.754  1.00  0.00    -0.035 A 
HETATM   19  C   UNL     1      39.947  52.854  45.565  1.00  0.00     0.050 C 
HETATM   20  C   UNL     1      37.607  53.401  44.959  1.00  0.00     0.011 A 
HETATM   21  C   UNL     1      36.383  53.167  44.326  1.00  0.00     0.030 A 
BRANCH  17  22
HETATM   22  N   UNL     1      39.594  50.558  43.496  1.00  0.00    -0.327 N 
HETATM   23  C   UNL     1      40.041  49.461  44.208  1.00  0.00     0.218 C 
HETATM   24  C   UNL     1      41.091  48.687  43.448  1.00  0.00     0.117 C 
HETATM   25  O   UNL     1      39.692  49.108  45.327  1.00  0.00    -0.274 OA
HETATM   26  H   UNL     1      40.219  50.869  42.762  1.00  0.00     0.169 HD
ENDBRANCH  17  22
ENDBRANCH  12  15
ENDBRANCH   1  11
BRANCH   8  27
HETATM   27  C   UNL     1      29.571  53.150  40.043  1.00  0.00     0.409 C 
HETATM   28  F   UNL     1      29.035  52.765  41.224  1.00  0.00    -0.169 F 
HETATM   29  F   UNL     1      29.993  54.430  40.217  1.00  0.00    -0.169 F 
HETATM   30  F   UNL     1      28.572  53.186  39.140  1.00  0.00    -0.169 F 
ENDBRANCH   8  27
BRANCH   6  31
HETATM   31  C   UNL     1      28.178  49.909  39.181  1.00  0.00     0.075 A 
HETATM   32  O   UNL     1      27.766  50.323  37.946  1.00  0.00    -0.325 OA
HETATM   33  C   UNL     1      26.415  50.191  37.911  1.00  0.00     0.142 A 
HETATM   34  C   UNL     1      25.948  49.700  39.107  1.00  0.00     0.027 A 
HETATM   35  C   UNL     1      27.085  49.516  39.928  1.00  0.00     0.037 A 
ENDBRANCH   6  31
TORSDOF 5
ENDMDL
