MODEL 1
REMARK VINA RESULT:      -9.6      0.000      0.000
REMARK  8 active torsions:
REMARK  status: ('A' for Active; 'I' for Inactive)
REMARK    1  A    between atoms: N_2  and  C_3 
REMARK    2  A    between atoms: C_6  and  N_7 
REMARK       I    between atoms: N_7  and  C_8 
REMARK    3  A    between atoms: C_8  and  C_9 
REMARK    4  A    between atoms: C_9  and  O_10 
REMARK    5  A    between atoms: O_10  and  C_11 
REMARK    6  A    between atoms: C_11  and  C_12 
REMARK    7  A    between atoms: C_13  and  N_14 
REMARK       I    between atoms: N_14  and  C_15 
REMARK    8  A    between atoms: C_15  and  C_16 
ROOT
HETATM    1  C   UNL     1      25.210  47.079  51.118  1.00  0.00     0.296 C 
HETATM    2  O   UNL     1      24.930  47.490  52.234  1.00  0.00    -0.259 OA
ENDROOT
BRANCH   1   3
HETATM    3  O   UNL     1      25.350  45.782  50.754  1.00  0.00    -0.308 OA
BRANCH   3   4
HETATM    4  C   UNL     1      24.747  44.841  51.639  1.00  0.00     0.282 C 
BRANCH   4   5
HETATM    5  C   UNL     1      25.500  44.639  52.960  1.00  0.00     0.246 C 
HETATM    6  N   UNL     1      26.850  44.926  52.860  1.00  0.00    -0.325 N 
HETATM    7  H   UNL     1      27.192  45.129  51.919  1.00  0.00     0.169 HD
HETATM    8  O   UNL     1      24.906  44.275  53.972  1.00  0.00    -0.271 OA
BRANCH   6   9
HETATM    9  C   UNL     1      27.817  44.917  53.883  1.00  0.00     0.034 A 
HETATM   10  C   UNL     1      27.996  45.946  54.802  1.00  0.00     0.032 A 
HETATM   11  C   UNL     1      29.004  45.866  55.778  1.00  0.00     0.031 A 
HETATM   12  C   UNL     1      29.856  44.756  55.882  1.00  0.00     0.029 A 
HETATM   13  C   UNL     1      29.662  43.736  54.937  1.00  0.00     0.031 A 
HETATM   14  C   UNL     1      28.662  43.810  53.956  1.00  0.00     0.032 A 
BRANCH  12  15
HETATM   15  N   UNL     1      30.887  44.662  56.829  1.00  0.00    -0.390 N 
HETATM   16  C   UNL     1      31.592  43.377  56.862  1.00  0.00     0.149 C 
HETATM   17  C   UNL     1      30.677  45.265  58.145  1.00  0.00     0.149 C 
ENDBRANCH  12  15
ENDBRANCH   6   9
ENDBRANCH   4   5
ENDBRANCH   3   4
ENDBRANCH   1   3
BRANCH   1  18
HETATM   18  C   UNL     1      25.506  47.951  49.962  1.00  0.00     0.066 A 
HETATM   19  C   UNL     1      24.523  48.743  49.342  1.00  0.00     0.051 A 
HETATM   20  C   UNL     1      24.937  49.745  48.449  1.00  0.00     0.030 A 
HETATM   21  C   UNL     1      26.284  49.904  48.116  1.00  0.00     0.002 A 
HETATM   22  C   UNL     1      27.245  49.079  48.690  1.00  0.00     0.001 A 
HETATM   23  C   UNL     1      26.862  48.116  49.622  1.00  0.00     0.020 A 
BRANCH  19  24
HETATM   24  N   UNL     1      23.126  48.627  49.515  1.00  0.00    -0.320 N 
HETATM   25  C   UNL     1      22.215  48.119  48.602  1.00  0.00     0.279 C 
HETATM   26  O   UNL     1      22.503  47.704  47.484  1.00  0.00    -0.265 OA
HETATM   27  H   UNL     1      22.699  49.156  50.270  1.00  0.00     0.169 HD
BRANCH  25  28
HETATM   28  C   UNL     1      20.843  48.216  49.065  1.00  0.00     0.142 A 
HETATM   29  O   UNL     1      20.441  49.333  49.758  1.00  0.00    -0.317 OA
HETATM   30  C   UNL     1      19.125  49.169  50.051  1.00  0.00     0.143 A 
HETATM   31  C   UNL     1      18.664  47.973  49.554  1.00  0.00     0.027 A 
HETATM   32  C   UNL     1      19.769  47.357  48.920  1.00  0.00     0.045 A 
ENDBRANCH  25  28
ENDBRANCH  19  24
ENDBRANCH   1  18
TORSDOF 8
ENDMDL
MODEL 2
REMARK VINA RESULT:      -9.0      2.054      5.088
REMARK  8 active torsions:
REMARK  status: ('A' for Active; 'I' for Inactive)
REMARK    1  A    between atoms: N_2  and  C_3 
REMARK    2  A    between atoms: C_6  and  N_7 
REMARK       I    between atoms: N_7  and  C_8 
REMARK    3  A    between atoms: C_8  and  C_9 
REMARK    4  A    between atoms: C_9  and  O_10 
REMARK    5  A    between atoms: O_10  and  C_11 
REMARK    6  A    between atoms: C_11  and  C_12 
REMARK    7  A    between atoms: C_13  and  N_14 
REMARK       I    between atoms: N_14  and  C_15 
REMARK    8  A    between atoms: C_15  and  C_16 
ROOT
HETATM    1  C   UNL     1      21.325  47.239  47.874  1.00  0.00     0.296 C 
HETATM    2  O   UNL     1      21.543  47.223  46.671  1.00  0.00    -0.259 OA
ENDROOT
BRANCH   1   3
HETATM    3  O   UNL     1      21.433  46.187  48.720  1.00  0.00    -0.308 OA
BRANCH   3   4
HETATM    4  C   UNL     1      22.481  45.272  48.410  1.00  0.00     0.282 C 
BRANCH   4   5
HETATM    5  C   UNL     1      23.224  44.720  49.634  1.00  0.00     0.246 C 
HETATM    6  N   UNL     1      24.480  45.276  49.797  1.00  0.00    -0.325 N 
HETATM    7  H   UNL     1      24.795  45.892  49.044  1.00  0.00     0.169 HD
HETATM    8  O   UNL     1      22.697  43.884  50.363  1.00  0.00    -0.271 OA
BRANCH   6   9
HETATM    9  C   UNL     1      25.398  45.056  50.842  1.00  0.00     0.034 A 
HETATM   10  C   UNL     1      25.223  45.506  52.147  1.00  0.00     0.032 A 
HETATM   11  C   UNL     1      26.203  45.262  53.124  1.00  0.00     0.031 A 
HETATM   12  C   UNL     1      27.379  44.551  52.841  1.00  0.00     0.029 A 
HETATM   13  C   UNL     1      27.536  44.116  51.516  1.00  0.00     0.031 A 
HETATM   14  C   UNL     1      26.566  44.359  50.533  1.00  0.00     0.032 A 
BRANCH  12  15
HETATM   15  N   UNL     1      28.385  44.316  53.791  1.00  0.00    -0.390 N 
HETATM   16  C   UNL     1      28.475  42.937  54.282  1.00  0.00     0.149 C 
HETATM   17  C   UNL     1      28.622  45.334  54.815  1.00  0.00     0.149 C 
ENDBRANCH  12  15
ENDBRANCH   6   9
ENDBRANCH   4   5
ENDBRANCH   3   4
ENDBRANCH   1   3
BRANCH   1  18
HETATM   18  C   UNL     1      20.839  48.422  48.614  1.00  0.00     0.066 A 
HETATM   19  C   UNL     1      21.708  49.407  49.116  1.00  0.00     0.051 A 
HETATM   20  C   UNL     1      21.159  50.624  49.550  1.00  0.00     0.030 A 
HETATM   21  C   UNL     1      19.776  50.830  49.563  1.00  0.00     0.002 A 
HETATM   22  C   UNL     1      18.920  49.828  49.118  1.00  0.00     0.001 A 
HETATM   23  C   UNL     1      19.447  48.634  48.630  1.00  0.00     0.020 A 
BRANCH  19  24
HETATM   24  N   UNL     1      23.110  49.296  49.247  1.00  0.00    -0.320 N 
HETATM   25  C   UNL     1      24.066  49.700  48.329  1.00  0.00     0.279 C 
HETATM   26  O   UNL     1      23.818  50.211  47.241  1.00  0.00    -0.265 OA
HETATM   27  H   UNL     1      23.468  48.670  49.963  1.00  0.00     0.169 HD
BRANCH  25  28
HETATM   28  C   UNL     1      25.417  49.368  48.741  1.00  0.00     0.142 A 
HETATM   29  O   UNL     1      25.614  48.375  49.671  1.00  0.00    -0.317 OA
HETATM   30  C   UNL     1      26.955  48.263  49.856  1.00  0.00     0.143 A 
HETATM   31  C   UNL     1      27.630  49.157  49.060  1.00  0.00     0.027 A 
HETATM   32  C   UNL     1      26.641  49.871  48.341  1.00  0.00     0.045 A 
ENDBRANCH  25  28
ENDBRANCH  19  24
ENDBRANCH   1  18
TORSDOF 8
ENDMDL
MODEL 3
REMARK VINA RESULT:      -8.6      4.712      8.522
REMARK  8 active torsions:
REMARK  status: ('A' for Active; 'I' for Inactive)
REMARK    1  A    between atoms: N_2  and  C_3 
REMARK    2  A    between atoms: C_6  and  N_7 
REMARK       I    between atoms: N_7  and  C_8 
REMARK    3  A    between atoms: C_8  and  C_9 
REMARK    4  A    between atoms: C_9  and  O_10 
REMARK    5  A    between atoms: O_10  and  C_11 
REMARK    6  A    between atoms: C_11  and  C_12 
REMARK    7  A    between atoms: C_13  and  N_14 
REMARK       I    between atoms: N_14  and  C_15 
REMARK    8  A    between atoms: C_15  and  C_16 
ROOT
HETATM    1  C   UNL     1      29.712  42.941  53.933  1.00  0.00     0.296 C 
HETATM    2  O   UNL     1      30.625  42.704  53.155  1.00  0.00    -0.259 OA
ENDROOT
BRANCH   1   3
HETATM    3  O   UNL     1      28.544  42.262  54.026  1.00  0.00    -0.308 OA
BRANCH   3   4
HETATM    4  C   UNL     1      28.525  41.005  53.354  1.00  0.00     0.282 C 
BRANCH   4   5
HETATM    5  C   UNL     1      27.868  41.036  51.968  1.00  0.00     0.246 C 
HETATM    6  N   UNL     1      28.331  40.039  51.129  1.00  0.00    -0.325 N 
HETATM    7  H   UNL     1      29.111  39.483  51.488  1.00  0.00     0.169 HD
HETATM    8  O   UNL     1      27.012  41.876  51.698  1.00  0.00    -0.271 OA
BRANCH   6   9
HETATM    9  C   UNL     1      27.901  39.732  49.825  1.00  0.00     0.034 A 
HETATM   10  C   UNL     1      26.887  38.827  49.526  1.00  0.00     0.032 A 
HETATM   11  C   UNL     1      26.536  38.561  48.191  1.00  0.00     0.031 A 
HETATM   12  C   UNL     1      27.169  39.197  47.112  1.00  0.00     0.029 A 
HETATM   13  C   UNL     1      28.195  40.098  47.439  1.00  0.00     0.031 A 
HETATM   14  C   UNL     1      28.555  40.365  48.768  1.00  0.00     0.032 A 
BRANCH  12  15
HETATM   15  N   UNL     1      26.857  38.931  45.770  1.00  0.00    -0.390 N 
HETATM   16  C   UNL     1      27.187  40.003  44.826  1.00  0.00     0.149 C 
HETATM   17  C   UNL     1      25.604  38.235  45.475  1.00  0.00     0.149 C 
ENDBRANCH  12  15
ENDBRANCH   6   9
ENDBRANCH   4   5
ENDBRANCH   3   4
ENDBRANCH   1   3
BRANCH   1  18
HETATM   18  C   UNL     1      29.705  44.071  54.885  1.00  0.00     0.066 A 
HETATM   19  C   UNL     1      28.668  45.020  54.923  1.00  0.00     0.051 A 
HETATM   20  C   UNL     1      28.592  45.883  56.028  1.00  0.00     0.030 A 
HETATM   21  C   UNL     1      29.565  45.861  57.031  1.00  0.00     0.002 A 
HETATM   22  C   UNL     1      30.620  44.958  56.957  1.00  0.00     0.001 A 
HETATM   23  C   UNL     1      30.683  44.054  55.898  1.00  0.00     0.020 A 
BRANCH  19  24
HETATM   24  N   UNL     1      27.677  45.214  53.936  1.00  0.00    -0.320 N 
HETATM   25  C   UNL     1      26.372  44.746  53.965  1.00  0.00     0.279 C 
HETATM   26  O   UNL     1      25.892  44.070  54.869  1.00  0.00    -0.265 OA
HETATM   27  H   UNL     1      27.981  45.525  53.018  1.00  0.00     0.169 HD
BRANCH  25  28
HETATM   28  C   UNL     1      25.638  45.056  52.752  1.00  0.00     0.142 A 
HETATM   29  O   UNL     1      24.703  44.165  52.283  1.00  0.00    -0.317 OA
HETATM   30  C   UNL     1      24.164  44.707  51.160  1.00  0.00     0.143 A 
HETATM   31  C   UNL     1      24.724  45.934  50.898  1.00  0.00     0.027 A 
HETATM   32  C   UNL     1      25.675  46.160  51.921  1.00  0.00     0.045 A 
ENDBRANCH  25  28
ENDBRANCH  19  24
ENDBRANCH   1  18
TORSDOF 8
ENDMDL
MODEL 4
REMARK VINA RESULT:      -8.5      2.702     10.431
REMARK  8 active torsions:
REMARK  status: ('A' for Active; 'I' for Inactive)
REMARK    1  A    between atoms: N_2  and  C_3 
REMARK    2  A    between atoms: C_6  and  N_7 
REMARK       I    between atoms: N_7  and  C_8 
REMARK    3  A    between atoms: C_8  and  C_9 
REMARK    4  A    between atoms: C_9  and  O_10 
REMARK    5  A    between atoms: O_10  and  C_11 
REMARK    6  A    between atoms: C_11  and  C_12 
REMARK    7  A    between atoms: C_13  and  N_14 
REMARK       I    between atoms: N_14  and  C_15 
REMARK    8  A    between atoms: C_15  and  C_16 
ROOT
HETATM    1  C   UNL     1      24.553  46.899  50.434  1.00  0.00     0.296 C 
HETATM    2  O   UNL     1      25.088  47.446  51.387  1.00  0.00    -0.259 OA
ENDROOT
BRANCH   1   3
HETATM    3  O   UNL     1      23.982  47.518  49.373  1.00  0.00    -0.308 OA
BRANCH   3   4
HETATM    4  C   UNL     1      23.542  48.852  49.621  1.00  0.00     0.282 C 
BRANCH   4   5
HETATM    5  C   UNL     1      22.136  49.165  49.093  1.00  0.00     0.246 C 
HETATM    6  N   UNL     1      21.553  50.250  49.721  1.00  0.00    -0.325 N 
HETATM    7  H   UNL     1      22.072  50.636  50.514  1.00  0.00     0.169 HD
HETATM    8  O   UNL     1      21.642  48.493  48.190  1.00  0.00    -0.271 OA
BRANCH   6   9
HETATM    9  C   UNL     1      20.312  50.852  49.441  1.00  0.00     0.034 A 
HETATM   10  C   UNL     1      20.127  51.874  48.516  1.00  0.00     0.032 A 
HETATM   11  C   UNL     1      18.855  52.436  48.316  1.00  0.00     0.031 A 
HETATM   12  C   UNL     1      17.723  51.990  49.016  1.00  0.00     0.029 A 
HETATM   13  C   UNL     1      17.938  50.965  49.951  1.00  0.00     0.031 A 
HETATM   14  C   UNL     1      19.205  50.402  50.161  1.00  0.00     0.032 A 
BRANCH  12  15
HETATM   15  N   UNL     1      16.447  52.551  48.855  1.00  0.00    -0.390 N 
HETATM   16  C   UNL     1      15.678  52.722  50.092  1.00  0.00     0.149 C 
HETATM   17  C   UNL     1      15.647  52.133  47.703  1.00  0.00     0.149 C 
ENDBRANCH  12  15
ENDBRANCH   6   9
ENDBRANCH   4   5
ENDBRANCH   3   4
ENDBRANCH   1   3
BRANCH   1  18
HETATM   18  C   UNL     1      24.384  45.437  50.303  1.00  0.00     0.066 A 
HETATM   19  C   UNL     1      24.946  44.527  51.216  1.00  0.00     0.051 A 
HETATM   20  C   UNL     1      24.507  43.193  51.186  1.00  0.00     0.030 A 
HETATM   21  C   UNL     1      23.596  42.754  50.222  1.00  0.00     0.002 A 
HETATM   22  C   UNL     1      23.089  43.647  49.285  1.00  0.00     0.001 A 
HETATM   23  C   UNL     1      23.468  44.988  49.333  1.00  0.00     0.020 A 
BRANCH  19  24
HETATM   24  N   UNL     1      25.940  44.815  52.178  1.00  0.00    -0.320 N 
HETATM   25  C   UNL     1      25.805  44.758  53.556  1.00  0.00     0.279 C 
HETATM   26  O   UNL     1      24.772  44.455  54.145  1.00  0.00    -0.265 OA
HETATM   27  H   UNL     1      26.763  45.323  51.866  1.00  0.00     0.169 HD
BRANCH  25  28
HETATM   28  C   UNL     1      27.000  45.193  54.255  1.00  0.00     0.142 A 
HETATM   29  O   UNL     1      27.942  44.264  54.626  1.00  0.00    -0.317 OA
HETATM   30  C   UNL     1      28.948  44.938  55.240  1.00  0.00     0.143 A 
HETATM   31  C   UNL     1      28.681  46.286  55.266  1.00  0.00     0.027 A 
HETATM   32  C   UNL     1      27.426  46.453  54.633  1.00  0.00     0.045 A 
ENDBRANCH  25  28
ENDBRANCH  19  24
ENDBRANCH   1  18
TORSDOF 8
ENDMDL
MODEL 5
REMARK VINA RESULT:      -8.3      3.912      6.590
REMARK  8 active torsions:
REMARK  status: ('A' for Active; 'I' for Inactive)
REMARK    1  A    between atoms: N_2  and  C_3 
REMARK    2  A    between atoms: C_6  and  N_7 
REMARK       I    between atoms: N_7  and  C_8 
REMARK    3  A    between atoms: C_8  and  C_9 
REMARK    4  A    between atoms: C_9  and  O_10 
REMARK    5  A    between atoms: O_10  and  C_11 
REMARK    6  A    between atoms: C_11  and  C_12 
REMARK    7  A    between atoms: C_13  and  N_14 
REMARK       I    between atoms: N_14  and  C_15 
REMARK    8  A    between atoms: C_15  and  C_16 
ROOT
HETATM    1  C   UNL     1      21.003  47.768  47.474  1.00  0.00     0.296 C 
HETATM    2  O   UNL     1      22.073  47.472  46.962  1.00  0.00    -0.259 OA
ENDROOT
BRANCH   1   3
HETATM    3  O   UNL     1      19.918  46.964  47.581  1.00  0.00    -0.308 OA
BRANCH   3   4
HETATM    4  C   UNL     1      19.941  46.068  48.690  1.00  0.00     0.282 C 
BRANCH   4   5
HETATM    5  C   UNL     1      20.949  44.919  48.557  1.00  0.00     0.246 C 
HETATM    6  N   UNL     1      22.110  45.133  49.276  1.00  0.00    -0.325 N 
HETATM    7  H   UNL     1      22.199  46.054  49.712  1.00  0.00     0.169 HD
HETATM    8  O   UNL     1      20.684  43.929  47.878  1.00  0.00    -0.271 OA
BRANCH   6   9
HETATM    9  C   UNL     1      23.206  44.264  49.435  1.00  0.00     0.034 A 
HETATM   10  C   UNL     1      23.971  43.766  48.386  1.00  0.00     0.032 A 
HETATM   11  C   UNL     1      25.035  42.882  48.633  1.00  0.00     0.031 A 
HETATM   12  C   UNL     1      25.382  42.477  49.931  1.00  0.00     0.029 A 
HETATM   13  C   UNL     1      24.588  42.984  50.972  1.00  0.00     0.031 A 
HETATM   14  C   UNL     1      23.522  43.863  50.733  1.00  0.00     0.032 A 
BRANCH  12  15
HETATM   15  N   UNL     1      26.422  41.574  50.204  1.00  0.00    -0.390 N 
HETATM   16  C   UNL     1      27.210  41.872  51.404  1.00  0.00     0.149 C 
HETATM   17  C   UNL     1      27.208  41.062  49.081  1.00  0.00     0.149 C 
ENDBRANCH  12  15
ENDBRANCH   6   9
ENDBRANCH   4   5
ENDBRANCH   3   4
ENDBRANCH   1   3
BRANCH   1  18
HETATM   18  C   UNL     1      20.686  49.102  48.022  1.00  0.00     0.066 A 
HETATM   19  C   UNL     1      21.669  49.947  48.568  1.00  0.00     0.051 A 
HETATM   20  C   UNL     1      21.339  51.292  48.802  1.00  0.00     0.030 A 
HETATM   21  C   UNL     1      20.045  51.768  48.578  1.00  0.00     0.002 A 
HETATM   22  C   UNL     1      19.062  50.912  48.093  1.00  0.00     0.001 A 
HETATM   23  C   UNL     1      19.383  49.588  47.800  1.00  0.00     0.020 A 
BRANCH  19  24
HETATM   24  N   UNL     1      22.983  49.575  48.929  1.00  0.00    -0.320 N 
HETATM   25  C   UNL     1      24.148  49.860  48.234  1.00  0.00     0.279 C 
HETATM   26  O   UNL     1      24.197  50.477  47.174  1.00  0.00    -0.265 OA
HETATM   27  H   UNL     1      23.091  48.850  49.631  1.00  0.00     0.169 HD
BRANCH  25  28
HETATM   28  C   UNL     1      25.323  49.262  48.839  1.00  0.00     0.142 A 
HETATM   29  O   UNL     1      25.168  48.307  49.816  1.00  0.00    -0.317 OA
HETATM   30  C   UNL     1      26.413  47.913  50.189  1.00  0.00     0.143 A 
HETATM   31  C   UNL     1      27.370  48.585  49.468  1.00  0.00     0.027 A 
HETATM   32  C   UNL     1      26.671  49.456  48.599  1.00  0.00     0.045 A 
ENDBRANCH  25  28
ENDBRANCH  19  24
ENDBRANCH   1  18
TORSDOF 8
ENDMDL
MODEL 6
REMARK VINA RESULT:      -8.2      3.392      4.655
REMARK  8 active torsions:
REMARK  status: ('A' for Active; 'I' for Inactive)
REMARK    1  A    between atoms: N_2  and  C_3 
REMARK    2  A    between atoms: C_6  and  N_7 
REMARK       I    between atoms: N_7  and  C_8 
REMARK    3  A    between atoms: C_8  and  C_9 
REMARK    4  A    between atoms: C_9  and  O_10 
REMARK    5  A    between atoms: O_10  and  C_11 
REMARK    6  A    between atoms: C_11  and  C_12 
REMARK    7  A    between atoms: C_13  and  N_14 
REMARK       I    between atoms: N_14  and  C_15 
REMARK    8  A    between atoms: C_15  and  C_16 
ROOT
HETATM    1  C   UNL     1      24.728  46.916  50.312  1.00  0.00     0.296 C 
HETATM    2  O   UNL     1      23.666  46.434  49.948  1.00  0.00    -0.259 OA
ENDROOT
BRANCH   1   3
HETATM    3  O   UNL     1      25.361  46.666  51.484  1.00  0.00    -0.308 OA
BRANCH   3   4
HETATM    4  C   UNL     1      25.224  45.332  51.967  1.00  0.00     0.282 C 
BRANCH   4   5
HETATM    5  C   UNL     1      26.235  44.338  51.382  1.00  0.00     0.246 C 
HETATM    6  N   UNL     1      25.834  43.020  51.515  1.00  0.00    -0.325 N 
HETATM    7  H   UNL     1      24.987  42.867  52.067  1.00  0.00     0.169 HD
HETATM    8  O   UNL     1      27.268  44.735  50.847  1.00  0.00    -0.271 OA
BRANCH   6   9
HETATM    9  C   UNL     1      26.477  41.865  51.033  1.00  0.00     0.034 A 
HETATM   10  C   UNL     1      25.983  41.061  50.011  1.00  0.00     0.032 A 
HETATM   11  C   UNL     1      26.679  39.909  49.607  1.00  0.00     0.031 A 
HETATM   12  C   UNL     1      27.895  39.527  50.194  1.00  0.00     0.029 A 
HETATM   13  C   UNL     1      28.367  40.349  51.230  1.00  0.00     0.031 A 
HETATM   14  C   UNL     1      27.677  41.498  51.643  1.00  0.00     0.032 A 
BRANCH  12  15
HETATM   15  N   UNL     1      28.597  38.368  49.829  1.00  0.00    -0.390 N 
HETATM   16  C   UNL     1      29.760  38.052  50.664  1.00  0.00     0.149 C 
HETATM   17  C   UNL     1      28.787  38.093  48.405  1.00  0.00     0.149 C 
ENDBRANCH  12  15
ENDBRANCH   6   9
ENDBRANCH   4   5
ENDBRANCH   3   4
ENDBRANCH   1   3
BRANCH   1  18
HETATM   18  C   UNL     1      25.491  47.921  49.543  1.00  0.00     0.066 A 
HETATM   19  C   UNL     1      24.868  48.972  48.847  1.00  0.00     0.051 A 
HETATM   20  C   UNL     1      25.664  50.033  48.386  1.00  0.00     0.030 A 
HETATM   21  C   UNL     1      27.053  50.013  48.538  1.00  0.00     0.002 A 
HETATM   22  C   UNL     1      27.668  48.941  49.176  1.00  0.00     0.001 A 
HETATM   23  C   UNL     1      26.891  47.906  49.692  1.00  0.00     0.020 A 
BRANCH  19  24
HETATM   24  N   UNL     1      23.493  49.072  48.542  1.00  0.00    -0.320 N 
HETATM   25  C   UNL     1      22.567  49.910  49.142  1.00  0.00     0.279 C 
HETATM   26  O   UNL     1      22.819  50.691  50.055  1.00  0.00    -0.265 OA
HETATM   27  H   UNL     1      23.075  48.322  47.998  1.00  0.00     0.169 HD
BRANCH  25  28
HETATM   28  C   UNL     1      21.219  49.705  48.645  1.00  0.00     0.142 A 
HETATM   29  O   UNL     1      20.616  48.482  48.814  1.00  0.00    -0.317 OA
HETATM   30  C   UNL     1      19.371  48.573  48.278  1.00  0.00     0.143 A 
HETATM   31  C   UNL     1      19.153  49.833  47.773  1.00  0.00     0.027 A 
HETATM   32  C   UNL     1      20.342  50.563  48.008  1.00  0.00     0.045 A 
ENDBRANCH  25  28
ENDBRANCH  19  24
ENDBRANCH   1  18
TORSDOF 8
ENDMDL
MODEL 7
REMARK VINA RESULT:      -8.2      2.593      9.761
REMARK  8 active torsions:
REMARK  status: ('A' for Active; 'I' for Inactive)
REMARK    1  A    between atoms: N_2  and  C_3 
REMARK    2  A    between atoms: C_6  and  N_7 
REMARK       I    between atoms: N_7  and  C_8 
REMARK    3  A    between atoms: C_8  and  C_9 
REMARK    4  A    between atoms: C_9  and  O_10 
REMARK    5  A    between atoms: O_10  and  C_11 
REMARK    6  A    between atoms: C_11  and  C_12 
REMARK    7  A    between atoms: C_13  and  N_14 
REMARK       I    between atoms: N_14  and  C_15 
REMARK    8  A    between atoms: C_15  and  C_16 
ROOT
HETATM    1  C   UNL     1      26.187  44.390  51.007  1.00  0.00     0.296 C 
HETATM    2  O   UNL     1      25.632  44.613  52.073  1.00  0.00    -0.259 OA
ENDROOT
BRANCH   1   3
HETATM    3  O   UNL     1      26.151  45.178  49.906  1.00  0.00    -0.308 OA
BRANCH   3   4
HETATM    4  C   UNL     1      26.511  46.539  50.130  1.00  0.00     0.282 C 
BRANCH   4   5
HETATM    5  C   UNL     1      25.321  47.497  50.267  1.00  0.00     0.246 C 
HETATM    6  N   UNL     1      24.891  48.001  49.053  1.00  0.00    -0.325 N 
HETATM    7  H   UNL     1      25.470  47.765  48.244  1.00  0.00     0.169 HD
HETATM    8  O   UNL     1      24.834  47.737  51.370  1.00  0.00    -0.271 OA
BRANCH   6   9
HETATM    9  C   UNL     1      23.791  48.843  48.803  1.00  0.00     0.034 A 
HETATM   10  C   UNL     1      23.869  50.228  48.705  1.00  0.00     0.032 A 
HETATM   11  C   UNL     1      22.714  50.995  48.476  1.00  0.00     0.031 A 
HETATM   12  C   UNL     1      21.448  50.410  48.323  1.00  0.00     0.029 A 
HETATM   13  C   UNL     1      21.393  49.012  48.437  1.00  0.00     0.031 A 
HETATM   14  C   UNL     1      22.541  48.239  48.669  1.00  0.00     0.032 A 
BRANCH  12  15
HETATM   15  N   UNL     1      20.274  51.153  48.121  1.00  0.00    -0.390 N 
HETATM   16  C   UNL     1      19.668  51.708  49.336  1.00  0.00     0.149 C 
HETATM   17  C   UNL     1      19.308  50.669  47.135  1.00  0.00     0.149 C 
ENDBRANCH  12  15
ENDBRANCH   6   9
ENDBRANCH   4   5
ENDBRANCH   3   4
ENDBRANCH   1   3
BRANCH   1  18
HETATM   18  C   UNL     1      26.962  43.166  50.714  1.00  0.00     0.066 A 
HETATM   19  C   UNL     1      27.947  42.669  51.586  1.00  0.00     0.051 A 
HETATM   20  C   UNL     1      28.429  41.367  51.378  1.00  0.00     0.030 A 
HETATM   21  C   UNL     1      28.005  40.606  50.285  1.00  0.00     0.002 A 
HETATM   22  C   UNL     1      27.072  41.126  49.394  1.00  0.00     0.001 A 
HETATM   23  C   UNL     1      26.539  42.395  49.615  1.00  0.00     0.020 A 
BRANCH  19  24
HETATM   24  N   UNL     1      28.530  43.363  52.669  1.00  0.00    -0.320 N 
HETATM   25  C   UNL     1      28.127  43.326  53.995  1.00  0.00     0.279 C 
HETATM   26  O   UNL     1      27.174  42.678  54.417  1.00  0.00    -0.265 OA
HETATM   27  H   UNL     1      29.157  44.133  52.453  1.00  0.00     0.169 HD
BRANCH  25  28
HETATM   28  C   UNL     1      28.896  44.220  54.841  1.00  0.00     0.142 A 
HETATM   29  O   UNL     1      30.108  43.805  55.336  1.00  0.00    -0.317 OA
HETATM   30  C   UNL     1      30.611  44.831  56.072  1.00  0.00     0.143 A 
HETATM   31  C   UNL     1      29.752  45.904  56.055  1.00  0.00     0.027 A 
HETATM   32  C   UNL     1      28.646  45.512  55.263  1.00  0.00     0.045 A 
ENDBRANCH  25  28
ENDBRANCH  19  24
ENDBRANCH   1  18
TORSDOF 8
ENDMDL
MODEL 8
REMARK VINA RESULT:      -8.1     11.766     13.644
REMARK  8 active torsions:
REMARK  status: ('A' for Active; 'I' for Inactive)
REMARK    1  A    between atoms: N_2  and  C_3 
REMARK    2  A    between atoms: C_6  and  N_7 
REMARK       I    between atoms: N_7  and  C_8 
REMARK    3  A    between atoms: C_8  and  C_9 
REMARK    4  A    between atoms: C_9  and  O_10 
REMARK    5  A    between atoms: O_10  and  C_11 
REMARK    6  A    between atoms: C_11  and  C_12 
REMARK    7  A    between atoms: C_13  and  N_14 
REMARK       I    between atoms: N_14  and  C_15 
REMARK    8  A    between atoms: C_15  and  C_16 
ROOT
HETATM    1  C   UNL     1      29.176  47.724  39.485  1.00  0.00     0.296 C 
HETATM    2  O   UNL     1      30.262  47.737  38.924  1.00  0.00    -0.259 OA
ENDROOT
BRANCH   1   3
HETATM    3  O   UNL     1      28.907  47.172  40.693  1.00  0.00    -0.308 OA
BRANCH   3   4
HETATM    4  C   UNL     1      28.602  48.107  41.726  1.00  0.00     0.282 C 
BRANCH   4   5
HETATM    5  C   UNL     1      29.656  49.205  41.919  1.00  0.00     0.246 C 
HETATM    6  N   UNL     1      30.940  48.705  42.041  1.00  0.00    -0.325 N 
HETATM    7  H   UNL     1      31.017  47.686  42.093  1.00  0.00     0.169 HD
HETATM    8  O   UNL     1      29.331  50.390  41.938  1.00  0.00    -0.271 OA
BRANCH   6   9
HETATM    9  C   UNL     1      32.144  49.424  42.158  1.00  0.00     0.034 A 
HETATM   10  C   UNL     1      33.271  49.200  41.374  1.00  0.00     0.032 A 
HETATM   11  C   UNL     1      34.442  49.949  41.574  1.00  0.00     0.031 A 
HETATM   12  C   UNL     1      34.527  50.955  42.548  1.00  0.00     0.029 A 
HETATM   13  C   UNL     1      33.381  51.155  43.333  1.00  0.00     0.031 A 
HETATM   14  C   UNL     1      32.209  50.408  43.144  1.00  0.00     0.032 A 
BRANCH  12  15
HETATM   15  N   UNL     1      35.693  51.701  42.787  1.00  0.00    -0.390 N 
HETATM   16  C   UNL     1      36.950  51.015  42.471  1.00  0.00     0.149 C 
HETATM   17  C   UNL     1      35.748  52.533  43.989  1.00  0.00     0.149 C 
ENDBRANCH  12  15
ENDBRANCH   6   9
ENDBRANCH   4   5
ENDBRANCH   3   4
ENDBRANCH   1   3
BRANCH   1  18
HETATM   18  C   UNL     1      27.933  48.268  38.902  1.00  0.00     0.066 A 
HETATM   19  C   UNL     1      27.749  49.642  38.665  1.00  0.00     0.051 A 
HETATM   20  C   UNL     1      26.672  50.043  37.857  1.00  0.00     0.030 A 
HETATM   21  C   UNL     1      25.754  49.113  37.364  1.00  0.00     0.002 A 
HETATM   22  C   UNL     1      25.909  47.761  37.652  1.00  0.00     0.001 A 
HETATM   23  C   UNL     1      27.003  47.336  38.404  1.00  0.00     0.020 A 
BRANCH  19  24
HETATM   24  N   UNL     1      28.544  50.692  39.176  1.00  0.00    -0.320 N 
HETATM   25  C   UNL     1      29.541  51.382  38.506  1.00  0.00     0.279 C 
HETATM   26  O   UNL     1      29.889  51.160  37.351  1.00  0.00    -0.265 OA
HETATM   27  H   UNL     1      28.561  50.822  40.184  1.00  0.00     0.169 HD
BRANCH  25  28
HETATM   28  C   UNL     1      30.218  52.350  39.350  1.00  0.00     0.142 A 
HETATM   29  O   UNL     1      29.540  53.468  39.773  1.00  0.00    -0.317 OA
HETATM   30  C   UNL     1      30.394  54.182  40.550  1.00  0.00     0.143 A 
HETATM   31  C   UNL     1      31.609  53.546  40.646  1.00  0.00     0.027 A 
HETATM   32  C   UNL     1      31.498  52.366  39.872  1.00  0.00     0.045 A 
ENDBRANCH  25  28
ENDBRANCH  19  24
ENDBRANCH   1  18
TORSDOF 8
ENDMDL
MODEL 9
REMARK VINA RESULT:      -8.0     12.469     16.236
REMARK  8 active torsions:
REMARK  status: ('A' for Active; 'I' for Inactive)
REMARK    1  A    between atoms: N_2  and  C_3 
REMARK    2  A    between atoms: C_6  and  N_7 
REMARK       I    between atoms: N_7  and  C_8 
REMARK    3  A    between atoms: C_8  and  C_9 
REMARK    4  A    between atoms: C_9  and  O_10 
REMARK    5  A    between atoms: O_10  and  C_11 
REMARK    6  A    between atoms: C_11  and  C_12 
REMARK    7  A    between atoms: C_13  and  N_14 
REMARK       I    between atoms: N_14  and  C_15 
REMARK    8  A    between atoms: C_15  and  C_16 
ROOT
HETATM    1  C   UNL     1      37.068  53.395  41.355  1.00  0.00     0.296 C 
HETATM    2  O   UNL     1      36.753  54.524  41.700  1.00  0.00    -0.259 OA
ENDROOT
BRANCH   1   3
HETATM    3  O   UNL     1      36.814  52.825  40.152  1.00  0.00    -0.308 OA
BRANCH   3   4
HETATM    4  C   UNL     1      35.758  53.432  39.412  1.00  0.00     0.282 C 
BRANCH   4   5
HETATM    5  C   UNL     1      34.453  52.625  39.390  1.00  0.00     0.246 C 
HETATM    6  N   UNL     1      33.380  53.321  39.919  1.00  0.00    -0.325 N 
HETATM    7  H   UNL     1      33.602  54.223  40.345  1.00  0.00     0.169 HD
HETATM    8  O   UNL     1      34.426  51.489  38.923  1.00  0.00    -0.271 OA
BRANCH   6   9
HETATM    9  C   UNL     1      32.034  52.916  39.991  1.00  0.00     0.034 A 
HETATM   10  C   UNL     1      31.130  53.363  40.949  1.00  0.00     0.032 A 
HETATM   11  C   UNL     1      29.808  52.888  40.962  1.00  0.00     0.031 A 
HETATM   12  C   UNL     1      29.337  51.965  40.016  1.00  0.00     0.029 A 
HETATM   13  C   UNL     1      30.271  51.520  39.066  1.00  0.00     0.031 A 
HETATM   14  C   UNL     1      31.594  51.986  39.048  1.00  0.00     0.032 A 
BRANCH  12  15
HETATM   15  N   UNL     1      28.030  51.453  40.022  1.00  0.00    -0.390 N 
HETATM   16  C   UNL     1      27.625  50.786  41.264  1.00  0.00     0.149 C 
HETATM   17  C   UNL     1      27.531  50.813  38.805  1.00  0.00     0.149 C 
ENDBRANCH  12  15
ENDBRANCH   6   9
ENDBRANCH   4   5
ENDBRANCH   3   4
ENDBRANCH   1   3
BRANCH   1  18
HETATM   18  C   UNL     1      37.745  52.417  42.232  1.00  0.00     0.066 A 
HETATM   19  C   UNL     1      37.154  51.194  42.596  1.00  0.00     0.051 A 
HETATM   20  C   UNL     1      37.964  50.210  43.187  1.00  0.00     0.030 A 
HETATM   21  C   UNL     1      39.306  50.462  43.485  1.00  0.00     0.002 A 
HETATM   22  C   UNL     1      39.868  51.696  43.174  1.00  0.00     0.001 A 
HETATM   23  C   UNL     1      39.097  52.665  42.535  1.00  0.00     0.020 A 
BRANCH  19  24
HETATM   24  N   UNL     1      35.795  50.844  42.440  1.00  0.00    -0.320 N 
HETATM   25  C   UNL     1      34.708  51.432  43.067  1.00  0.00     0.279 C 
HETATM   26  O   UNL     1      34.781  52.351  43.876  1.00  0.00    -0.265 OA
HETATM   27  H   UNL     1      35.586  49.947  42.011  1.00  0.00     0.169 HD
BRANCH  25  28
HETATM   28  C   UNL     1      33.452  50.779  42.744  1.00  0.00     0.142 A 
HETATM   29  O   UNL     1      33.385  49.947  41.653  1.00  0.00    -0.317 OA
HETATM   30  C   UNL     1      32.117  49.465  41.595  1.00  0.00     0.143 A 
HETATM   31  C   UNL     1      31.364  49.962  42.632  1.00  0.00     0.027 A 
HETATM   32  C   UNL     1      32.222  50.809  43.372  1.00  0.00     0.045 A 
ENDBRANCH  25  28
ENDBRANCH  19  24
ENDBRANCH   1  18
TORSDOF 8
ENDMDL
MODEL 10
REMARK VINA RESULT:      -7.9      5.419      9.637
REMARK  8 active torsions:
REMARK  status: ('A' for Active; 'I' for Inactive)
REMARK    1  A    between atoms: N_2  and  C_3 
REMARK    2  A    between atoms: C_6  and  N_7 
REMARK       I    between atoms: N_7  and  C_8 
REMARK    3  A    between atoms: C_8  and  C_9 
REMARK    4  A    between atoms: C_9  and  O_10 
REMARK    5  A    between atoms: O_10  and  C_11 
REMARK    6  A    between atoms: C_11  and  C_12 
REMARK    7  A    between atoms: C_13  and  N_14 
REMARK       I    between atoms: N_14  and  C_15 
REMARK    8  A    between atoms: C_15  and  C_16 
ROOT
HETATM    1  C   UNL     1      27.734  43.695  52.308  1.00  0.00     0.296 C 
HETATM    2  O   UNL     1      28.365  43.757  51.263  1.00  0.00    -0.259 OA
ENDROOT
BRANCH   1   3
HETATM    3  O   UNL     1      27.557  42.589  53.071  1.00  0.00    -0.308 OA
BRANCH   3   4
HETATM    4  C   UNL     1      28.286  41.441  52.642  1.00  0.00     0.282 C 
BRANCH   4   5
HETATM    5  C   UNL     1      27.744  40.785  51.366  1.00  0.00     0.246 C 
HETATM    6  N   UNL     1      28.740  40.455  50.464  1.00  0.00    -0.325 N 
HETATM    7  H   UNL     1      29.681  40.775  50.705  1.00  0.00     0.169 HD
HETATM    8  O   UNL     1      26.539  40.587  51.226  1.00  0.00    -0.271 OA
BRANCH   6   9
HETATM    9  C   UNL     1      28.610  39.783  49.234  1.00  0.00     0.034 A 
HETATM   10  C   UNL     1      28.964  38.455  49.025  1.00  0.00     0.032 A 
HETATM   11  C   UNL     1      28.823  37.868  47.756  1.00  0.00     0.031 A 
HETATM   12  C   UNL     1      28.311  38.577  46.659  1.00  0.00     0.029 A 
HETATM   13  C   UNL     1      27.971  39.919  46.893  1.00  0.00     0.031 A 
HETATM   14  C   UNL     1      28.113  40.514  48.155  1.00  0.00     0.032 A 
BRANCH  12  15
HETATM   15  N   UNL     1      28.185  38.025  45.375  1.00  0.00    -0.390 N 
HETATM   16  C   UNL     1      28.963  36.804  45.139  1.00  0.00     0.149 C 
HETATM   17  C   UNL     1      28.135  38.935  44.231  1.00  0.00     0.149 C 
ENDBRANCH  12  15
ENDBRANCH   6   9
ENDBRANCH   4   5
ENDBRANCH   3   4
ENDBRANCH   1   3
BRANCH   1  18
HETATM   18  C   UNL     1      26.991  44.827  52.898  1.00  0.00     0.066 A 
HETATM   19  C   UNL     1      27.419  45.484  54.066  1.00  0.00     0.051 A 
HETATM   20  C   UNL     1      26.825  46.713  54.397  1.00  0.00     0.030 A 
HETATM   21  C   UNL     1      25.778  47.238  53.635  1.00  0.00     0.002 A 
HETATM   22  C   UNL     1      25.321  46.553  52.514  1.00  0.00     0.001 A 
HETATM   23  C   UNL     1      25.934  45.360  52.136  1.00  0.00     0.020 A 
BRANCH  19  24
HETATM   24  N   UNL     1      28.398  45.022  54.973  1.00  0.00    -0.320 N 
HETATM   25  C   UNL     1      29.452  45.751  55.501  1.00  0.00     0.279 C 
HETATM   26  O   UNL     1      29.694  46.924  55.234  1.00  0.00    -0.265 OA
HETATM   27  H   UNL     1      28.493  44.018  55.092  1.00  0.00     0.169 HD
BRANCH  25  28
HETATM   28  C   UNL     1      30.321  44.950  56.344  1.00  0.00     0.142 A 
HETATM   29  O   UNL     1      30.585  45.365  57.627  1.00  0.00    -0.317 OA
HETATM   30  C   UNL     1      31.400  44.434  58.188  1.00  0.00     0.143 A 
HETATM   31  C   UNL     1      31.660  43.421  57.297  1.00  0.00     0.027 A 
HETATM   32  C   UNL     1      30.967  43.752  56.109  1.00  0.00     0.045 A 
ENDBRANCH  25  28
ENDBRANCH  19  24
ENDBRANCH   1  18
TORSDOF 8
ENDMDL
