MODEL 1
REMARK VINA RESULT:     -10.1      0.000      0.000
REMARK  6 active torsions:
REMARK  status: ('A' for Active; 'I' for Inactive)
REMARK    1  A    between atoms: O_2  and  C_3 
REMARK    2  A    between atoms: C_5  and  C_6 
REMARK    3  A    between atoms: C_12  and  C_13 
REMARK       I    between atoms: C_13  and  N_14 
REMARK    4  A    between atoms: N_14  and  C_15 
REMARK    5  A    between atoms: C_15  and  C_16 
REMARK    6  A    between atoms: C_23  and  C_24 
ROOT
HETATM    1  C   UNL     1      27.800  42.363  53.297  1.00  0.00     0.118 C 
HETATM    2  N   UNL     1      26.983  43.233  52.458  1.00  0.00    -0.365 N 
HETATM    3  C   UNL     1      26.245  42.693  51.456  1.00  0.00     0.138 A 
HETATM    4  N   UNL     1      26.543  41.427  50.995  1.00  0.00    -0.240 N 
HETATM    5  N   UNL     1      25.695  40.980  50.059  1.00  0.00    -0.181 NA
HETATM    6  C   UNL     1      24.916  42.037  49.823  1.00  0.00     0.160 A 
HETATM    7  C   UNL     1      25.192  43.137  50.674  1.00  0.00     0.096 A 
HETATM    8  C   UNL     1      27.591  40.575  51.533  1.00  0.00     0.221 C 
HETATM    9  C   UNL     1      28.573  41.393  52.396  1.00  0.00     0.066 C 
HETATM   10  H   UNL     1      26.936  44.213  52.734  1.00  0.00     0.161 HD
ENDROOT
BRANCH   7  11
HETATM   11  C   UNL     1      24.459  44.390  50.668  1.00  0.00     0.257 C 
HETATM   12  N   UNL     1      25.207  45.519  50.430  1.00  0.00    -0.352 N 
HETATM   13  H   UNL     1      26.209  45.434  50.505  1.00  0.00     0.163 HD
HETATM   14  O   UNL     1      23.258  44.433  50.917  1.00  0.00    -0.267 OA
BRANCH  12  15
HETATM   15  C   UNL     1      24.616  46.825  50.592  1.00  0.00     0.161 C 
BRANCH  15  16
HETATM   16  C   UNL     1      25.375  47.867  49.817  1.00  0.00    -0.041 A 
HETATM   17  C   UNL     1      26.777  47.874  49.834  1.00  0.00     0.009 A 
HETATM   18  C   UNL     1      27.490  48.832  49.112  1.00  0.00     0.001 A 
HETATM   19  C   UNL     1      26.808  49.798  48.376  1.00  0.00     0.000 A 
HETATM   20  C   UNL     1      25.414  49.812  48.365  1.00  0.00     0.001 A 
HETATM   21  C   UNL     1      24.699  48.852  49.085  1.00  0.00     0.009 A 
ENDBRANCH  15  16
ENDBRANCH  12  15
ENDBRANCH   7  11
BRANCH   1  22
HETATM   22  C   UNL     1      28.694  43.193  54.195  1.00  0.00    -0.033 A 
HETATM   23  C   UNL     1      28.300  44.499  54.548  1.00  0.00     0.046 A 
HETATM   24  C   UNL     1      29.097  45.288  55.382  1.00  0.00     0.068 A 
HETATM   25  C   UNL     1      30.298  44.769  55.867  1.00  0.00     0.037 A 
HETATM   26  C   UNL     1      30.712  43.486  55.513  1.00  0.00     0.003 A 
HETATM   27  C   UNL     1      29.918  42.704  54.675  1.00  0.00     0.009 A 
BRANCH  24  28
HETATM   28  O   UNL     1      28.815  46.560  55.796  1.00  0.00    -0.356 OA
HETATM   29  C   UNL     1      27.693  47.201  55.201  1.00  0.00     0.210 C 
ENDBRANCH  24  28
ENDBRANCH   1  22
BRANCH   8  30
HETATM   30  C   UNL     1      28.359  39.860  50.440  1.00  0.00     0.409 C 
HETATM   31  F   UNL     1      28.763  40.696  49.458  1.00  0.00    -0.169 F 
HETATM   32  F   UNL     1      29.489  39.312  50.967  1.00  0.00    -0.169 F 
HETATM   33  F   UNL     1      27.680  38.839  49.879  1.00  0.00    -0.169 F 
ENDBRANCH   8  30
TORSDOF 6
ENDMDL
MODEL 2
REMARK VINA RESULT:      -9.8      3.441      8.189
REMARK  6 active torsions:
REMARK  status: ('A' for Active; 'I' for Inactive)
REMARK    1  A    between atoms: O_2  and  C_3 
REMARK    2  A    between atoms: C_5  and  C_6 
REMARK    3  A    between atoms: C_12  and  C_13 
REMARK       I    between atoms: C_13  and  N_14 
REMARK    4  A    between atoms: N_14  and  C_15 
REMARK    5  A    between atoms: C_15  and  C_16 
REMARK    6  A    between atoms: C_23  and  C_24 
ROOT
HETATM    1  C   UNL     1      23.679  47.421  49.163  1.00  0.00     0.118 C 
HETATM    2  N   UNL     1      24.164  47.282  50.532  1.00  0.00    -0.365 N 
HETATM    3  C   UNL     1      24.670  46.093  50.944  1.00  0.00     0.138 A 
HETATM    4  N   UNL     1      24.391  44.948  50.226  1.00  0.00    -0.240 N 
HETATM    5  N   UNL     1      25.011  43.855  50.692  1.00  0.00    -0.181 NA
HETATM    6  C   UNL     1      25.595  44.288  51.810  1.00  0.00     0.160 A 
HETATM    7  C   UNL     1      25.439  45.682  52.020  1.00  0.00     0.096 A 
HETATM    8  C   UNL     1      23.605  44.907  49.004  1.00  0.00     0.221 C 
HETATM    9  C   UNL     1      22.802  46.211  48.826  1.00  0.00     0.066 C 
HETATM   10  H   UNL     1      24.183  48.133  51.093  1.00  0.00     0.161 HD
ENDROOT
BRANCH   7  11
HETATM   11  C   UNL     1      26.018  46.420  53.127  1.00  0.00     0.257 C 
HETATM   12  N   UNL     1      27.035  45.787  53.802  1.00  0.00    -0.352 N 
HETATM   13  H   UNL     1      27.150  44.797  53.642  1.00  0.00     0.163 HD
HETATM   14  O   UNL     1      25.583  47.517  53.466  1.00  0.00    -0.267 OA
BRANCH  12  15
HETATM   15  C   UNL     1      27.546  46.346  55.029  1.00  0.00     0.161 C 
BRANCH  15  16
HETATM   16  C   UNL     1      28.742  45.579  55.522  1.00  0.00    -0.041 A 
HETATM   17  C   UNL     1      29.414  45.991  56.681  1.00  0.00     0.009 A 
HETATM   18  C   UNL     1      30.519  45.280  57.151  1.00  0.00     0.001 A 
HETATM   19  C   UNL     1      30.970  44.158  56.460  1.00  0.00     0.000 A 
HETATM   20  C   UNL     1      30.321  43.748  55.296  1.00  0.00     0.001 A 
HETATM   21  C   UNL     1      29.213  44.456  54.826  1.00  0.00     0.009 A 
ENDBRANCH  15  16
ENDBRANCH  12  15
ENDBRANCH   7  11
BRANCH   1  22
HETATM   22  C   UNL     1      22.968  48.748  48.994  1.00  0.00    -0.033 A 
HETATM   23  C   UNL     1      21.571  48.812  49.162  1.00  0.00     0.046 A 
HETATM   24  C   UNL     1      20.886  50.022  49.021  1.00  0.00     0.068 A 
HETATM   25  C   UNL     1      21.602  51.178  48.710  1.00  0.00     0.037 A 
HETATM   26  C   UNL     1      22.982  51.130  48.524  1.00  0.00     0.003 A 
HETATM   27  C   UNL     1      23.662  49.920  48.657  1.00  0.00     0.009 A 
BRANCH  24  28
HETATM   28  O   UNL     1      19.539  50.205  49.167  1.00  0.00    -0.356 OA
HETATM   29  C   UNL     1      18.938  49.689  50.348  1.00  0.00     0.210 C 
ENDBRANCH  24  28
ENDBRANCH   1  22
BRANCH   8  30
HETATM   30  C   UNL     1      22.657  43.725  48.977  1.00  0.00     0.409 C 
HETATM   31  F   UNL     1      22.234  43.372  50.210  1.00  0.00    -0.169 F 
HETATM   32  F   UNL     1      21.543  44.057  48.267  1.00  0.00    -0.169 F 
HETATM   33  F   UNL     1      23.169  42.634  48.372  1.00  0.00    -0.169 F 
ENDBRANCH   8  30
TORSDOF 6
ENDMDL
MODEL 3
REMARK VINA RESULT:      -9.7      3.309      4.764
REMARK  6 active torsions:
REMARK  status: ('A' for Active; 'I' for Inactive)
REMARK    1  A    between atoms: O_2  and  C_3 
REMARK    2  A    between atoms: C_5  and  C_6 
REMARK    3  A    between atoms: C_12  and  C_13 
REMARK       I    between atoms: C_13  and  N_14 
REMARK    4  A    between atoms: N_14  and  C_15 
REMARK    5  A    between atoms: C_15  and  C_16 
REMARK    6  A    between atoms: C_23  and  C_24 
ROOT
HETATM    1  C   UNL     1      25.576  45.335  52.730  1.00  0.00     0.118 C 
HETATM    2  N   UNL     1      25.334  46.365  51.726  1.00  0.00    -0.365 N 
HETATM    3  C   UNL     1      24.512  46.098  50.680  1.00  0.00     0.138 A 
HETATM    4  N   UNL     1      24.215  44.787  50.363  1.00  0.00    -0.240 N 
HETATM    5  N   UNL     1      23.335  44.661  49.362  1.00  0.00    -0.181 NA
HETATM    6  C   UNL     1      23.166  45.916  48.943  1.00  0.00     0.160 A 
HETATM    7  C   UNL     1      23.857  46.869  49.734  1.00  0.00     0.096 A 
HETATM    8  C   UNL     1      24.694  43.628  51.100  1.00  0.00     0.221 C 
HETATM    9  C   UNL     1      25.871  44.011  52.017  1.00  0.00     0.066 C 
HETATM   10  H   UNL     1      25.730  47.284  51.916  1.00  0.00     0.161 HD
ENDROOT
BRANCH   7  11
HETATM   11  C   UNL     1      23.802  48.305  49.534  1.00  0.00     0.257 C 
HETATM   12  N   UNL     1      22.542  48.852  49.473  1.00  0.00    -0.352 N 
HETATM   13  H   UNL     1      21.768  48.219  49.341  1.00  0.00     0.163 HD
HETATM   14  O   UNL     1      24.820  48.971  49.375  1.00  0.00    -0.267 OA
BRANCH  12  15
HETATM   15  C   UNL     1      22.371  50.231  49.087  1.00  0.00     0.161 C 
BRANCH  15  16
HETATM   16  C   UNL     1      20.944  50.674  49.261  1.00  0.00    -0.041 A 
HETATM   17  C   UNL     1      20.090  49.974  50.124  1.00  0.00     0.009 A 
HETATM   18  C   UNL     1      18.767  50.382  50.298  1.00  0.00     0.001 A 
HETATM   19  C   UNL     1      18.283  51.487  49.602  1.00  0.00     0.000 A 
HETATM   20  C   UNL     1      19.117  52.181  48.728  1.00  0.00     0.001 A 
HETATM   21  C   UNL     1      20.443  51.776  48.555  1.00  0.00     0.009 A 
ENDBRANCH  15  16
ENDBRANCH  12  15
ENDBRANCH   7  11
BRANCH   1  22
HETATM   22  C   UNL     1      26.679  45.774  53.671  1.00  0.00    -0.033 A 
HETATM   23  C   UNL     1      27.704  44.867  54.009  1.00  0.00     0.046 A 
HETATM   24  C   UNL     1      28.741  45.243  54.866  1.00  0.00     0.068 A 
HETATM   25  C   UNL     1      28.755  46.535  55.392  1.00  0.00     0.037 A 
HETATM   26  C   UNL     1      27.741  47.439  55.083  1.00  0.00     0.003 A 
HETATM   27  C   UNL     1      26.704  47.059  54.233  1.00  0.00     0.009 A 
BRANCH  24  28
HETATM   28  O   UNL     1      29.787  44.454  55.257  1.00  0.00    -0.356 OA
HETATM   29  C   UNL     1      29.764  43.095  54.840  1.00  0.00     0.210 C 
ENDBRANCH  24  28
ENDBRANCH   1  22
BRANCH   8  30
HETATM   30  C   UNL     1      25.120  42.505  50.176  1.00  0.00     0.409 C 
HETATM   31  F   UNL     1      25.912  42.935  49.169  1.00  0.00    -0.169 F 
HETATM   32  F   UNL     1      25.852  41.597  50.880  1.00  0.00    -0.169 F 
HETATM   33  F   UNL     1      24.089  41.818  49.646  1.00  0.00    -0.169 F 
ENDBRANCH   8  30
TORSDOF 6
ENDMDL
MODEL 4
REMARK VINA RESULT:      -9.6      2.076      2.774
REMARK  6 active torsions:
REMARK  status: ('A' for Active; 'I' for Inactive)
REMARK    1  A    between atoms: O_2  and  C_3 
REMARK    2  A    between atoms: C_5  and  C_6 
REMARK    3  A    between atoms: C_12  and  C_13 
REMARK       I    between atoms: C_13  and  N_14 
REMARK    4  A    between atoms: N_14  and  C_15 
REMARK    5  A    between atoms: C_15  and  C_16 
REMARK    6  A    between atoms: C_23  and  C_24 
ROOT
HETATM    1  C   UNL     1      27.403  43.534  52.968  1.00  0.00     0.118 C 
HETATM    2  N   UNL     1      27.129  44.714  52.155  1.00  0.00    -0.365 N 
HETATM    3  C   UNL     1      26.314  44.607  51.076  1.00  0.00     0.138 A 
HETATM    4  N   UNL     1      26.056  43.363  50.537  1.00  0.00    -0.240 N 
HETATM    5  N   UNL     1      25.178  43.385  49.525  1.00  0.00    -0.181 NA
HETATM    6  C   UNL     1      24.970  44.689  49.329  1.00  0.00     0.160 A 
HETATM    7  C   UNL     1      25.634  45.510  50.276  1.00  0.00     0.096 A 
HETATM    8  C   UNL     1      26.569  42.109  51.064  1.00  0.00     0.221 C 
HETATM    9  C   UNL     1      27.737  42.362  52.038  1.00  0.00     0.066 C 
HETATM   10  H   UNL     1      27.499  45.598  52.503  1.00  0.00     0.161 HD
ENDROOT
BRANCH   7  11
HETATM   11  C   UNL     1      25.536  46.957  50.326  1.00  0.00     0.257 C 
HETATM   12  N   UNL     1      24.743  47.537  49.364  1.00  0.00    -0.352 N 
HETATM   13  H   UNL     1      24.480  46.965  48.575  1.00  0.00     0.163 HD
HETATM   14  O   UNL     1      26.170  47.616  51.145  1.00  0.00    -0.267 OA
BRANCH  12  15
HETATM   15  C   UNL     1      24.730  48.970  49.205  1.00  0.00     0.161 C 
BRANCH  15  16
HETATM   16  C   UNL     1      23.381  49.457  48.754  1.00  0.00    -0.041 A 
HETATM   17  C   UNL     1      23.035  50.808  48.899  1.00  0.00     0.009 A 
HETATM   18  C   UNL     1      21.788  51.271  48.475  1.00  0.00     0.001 A 
HETATM   19  C   UNL     1      20.872  50.385  47.913  1.00  0.00     0.000 A 
HETATM   20  C   UNL     1      21.197  49.036  47.780  1.00  0.00     0.001 A 
HETATM   21  C   UNL     1      22.445  48.572  48.201  1.00  0.00     0.009 A 
ENDBRANCH  15  16
ENDBRANCH  12  15
ENDBRANCH   7  11
BRANCH   1  22
HETATM   22  C   UNL     1      28.495  43.836  53.974  1.00  0.00    -0.033 A 
HETATM   23  C   UNL     1      28.343  44.923  54.858  1.00  0.00     0.046 A 
HETATM   24  C   UNL     1      29.327  45.222  55.803  1.00  0.00     0.068 A 
HETATM   25  C   UNL     1      30.474  44.431  55.866  1.00  0.00     0.037 A 
HETATM   26  C   UNL     1      30.650  43.363  54.989  1.00  0.00     0.003 A 
HETATM   27  C   UNL     1      29.669  43.071  54.042  1.00  0.00     0.009 A 
BRANCH  24  28
HETATM   28  O   UNL     1      29.285  46.243  56.712  1.00  0.00    -0.356 OA
HETATM   29  C   UNL     1      29.877  46.004  57.983  1.00  0.00     0.210 C 
ENDBRANCH  24  28
ENDBRANCH   1  22
BRANCH   8  30
HETATM   30  C   UNL     1      27.028  41.175  49.962  1.00  0.00     0.409 C 
HETATM   31  F   UNL     1      27.615  41.832  48.937  1.00  0.00    -0.169 F 
HETATM   32  F   UNL     1      27.964  40.319  50.458  1.00  0.00    -0.169 F 
HETATM   33  F   UNL     1      26.044  40.399  49.465  1.00  0.00    -0.169 F 
ENDBRANCH   8  30
TORSDOF 6
ENDMDL
MODEL 5
REMARK VINA RESULT:      -9.1      3.677      6.951
REMARK  6 active torsions:
REMARK  status: ('A' for Active; 'I' for Inactive)
REMARK    1  A    between atoms: O_2  and  C_3 
REMARK    2  A    between atoms: C_5  and  C_6 
REMARK    3  A    between atoms: C_12  and  C_13 
REMARK       I    between atoms: C_13  and  N_14 
REMARK    4  A    between atoms: N_14  and  C_15 
REMARK    5  A    between atoms: C_15  and  C_16 
REMARK    6  A    between atoms: C_23  and  C_24 
ROOT
HETATM    1  C   UNL     1      28.606  45.246  54.209  1.00  0.00     0.118 C 
HETATM    2  N   UNL     1      28.487  43.849  53.806  1.00  0.00    -0.365 N 
HETATM    3  C   UNL     1      27.884  43.542  52.631  1.00  0.00     0.138 A 
HETATM    4  N   UNL     1      27.073  44.474  52.016  1.00  0.00    -0.240 N 
HETATM    5  N   UNL     1      26.600  44.078  50.827  1.00  0.00    -0.181 NA
HETATM    6  C   UNL     1      27.013  42.812  50.741  1.00  0.00     0.160 A 
HETATM    7  C   UNL     1      27.836  42.416  51.825  1.00  0.00     0.096 A 
HETATM    8  C   UNL     1      26.829  45.818  52.516  1.00  0.00     0.221 C 
HETATM    9  C   UNL     1      27.256  45.938  53.992  1.00  0.00     0.066 C 
HETATM   10  H   UNL     1      28.957  43.166  54.399  1.00  0.00     0.161 HD
ENDROOT
BRANCH   7  11
HETATM   11  C   UNL     1      28.463  41.113  51.954  1.00  0.00     0.257 C 
HETATM   12  N   UNL     1      28.629  40.411  50.783  1.00  0.00    -0.352 N 
HETATM   13  H   UNL     1      28.115  40.730  49.976  1.00  0.00     0.163 HD
HETATM   14  O   UNL     1      28.770  40.653  53.050  1.00  0.00    -0.267 OA
BRANCH  12  15
HETATM   15  C   UNL     1      29.062  39.036  50.821  1.00  0.00     0.161 C 
BRANCH  15  16
HETATM   16  C   UNL     1      28.542  38.268  49.637  1.00  0.00    -0.041 A 
HETATM   17  C   UNL     1      29.194  38.356  48.399  1.00  0.00     0.009 A 
HETATM   18  C   UNL     1      28.723  37.640  47.297  1.00  0.00     0.001 A 
HETATM   19  C   UNL     1      27.591  36.838  47.420  1.00  0.00     0.000 A 
HETATM   20  C   UNL     1      26.925  36.756  48.642  1.00  0.00     0.001 A 
HETATM   21  C   UNL     1      27.395  37.469  49.746  1.00  0.00     0.009 A 
ENDBRANCH  15  16
ENDBRANCH  12  15
ENDBRANCH   7  11
BRANCH   1  22
HETATM   22  C   UNL     1      29.109  45.336  55.635  1.00  0.00    -0.033 A 
HETATM   23  C   UNL     1      30.241  44.591  56.020  1.00  0.00     0.046 A 
HETATM   24  C   UNL     1      30.735  44.660  57.326  1.00  0.00     0.068 A 
HETATM   25  C   UNL     1      30.093  45.478  58.255  1.00  0.00     0.037 A 
HETATM   26  C   UNL     1      28.961  46.209  57.897  1.00  0.00     0.003 A 
HETATM   27  C   UNL     1      28.467  46.133  56.595  1.00  0.00     0.009 A 
BRANCH  24  28
HETATM   28  O   UNL     1      31.824  43.990  57.809  1.00  0.00    -0.356 OA
HETATM   29  C   UNL     1      32.196  42.790  57.142  1.00  0.00     0.210 C 
ENDBRANCH  24  28
ENDBRANCH   1  22
BRANCH   8  30
HETATM   30  C   UNL     1      25.374  46.219  52.379  1.00  0.00     0.409 C 
HETATM   31  F   UNL     1      24.528  45.203  52.660  1.00  0.00    -0.169 F 
HETATM   32  F   UNL     1      25.095  47.211  53.270  1.00  0.00    -0.169 F 
HETATM   33  F   UNL     1      25.060  46.713  51.165  1.00  0.00    -0.169 F 
ENDBRANCH   8  30
TORSDOF 6
ENDMDL
MODEL 6
REMARK VINA RESULT:      -9.1      2.152      7.053
REMARK  6 active torsions:
REMARK  status: ('A' for Active; 'I' for Inactive)
REMARK    1  A    between atoms: O_2  and  C_3 
REMARK    2  A    between atoms: C_5  and  C_6 
REMARK    3  A    between atoms: C_12  and  C_13 
REMARK       I    between atoms: C_13  and  N_14 
REMARK    4  A    between atoms: N_14  and  C_15 
REMARK    5  A    between atoms: C_15  and  C_16 
REMARK    6  A    between atoms: C_23  and  C_24 
ROOT
HETATM    1  C   UNL     1      25.539  44.759  49.676  1.00  0.00     0.118 C 
HETATM    2  N   UNL     1      25.800  44.735  51.112  1.00  0.00    -0.365 N 
HETATM    3  C   UNL     1      26.619  43.785  51.626  1.00  0.00     0.138 A 
HETATM    4  N   UNL     1      26.895  42.651  50.889  1.00  0.00    -0.240 N 
HETATM    5  N   UNL     1      27.776  41.828  51.474  1.00  0.00    -0.181 NA
HETATM    6  C   UNL     1      27.966  42.386  52.671  1.00  0.00     0.160 A 
HETATM    7  C   UNL     1      27.289  43.622  52.827  1.00  0.00     0.096 A 
HETATM    8  C   UNL     1      26.397  42.393  49.547  1.00  0.00     0.221 C 
HETATM    9  C   UNL     1      25.224  43.334  49.210  1.00  0.00     0.066 C 
HETATM   10  H   UNL     1      25.418  45.510  51.653  1.00  0.00     0.161 HD
ENDROOT
BRANCH   7  11
HETATM   11  C   UNL     1      27.367  44.463  54.007  1.00  0.00     0.257 C 
HETATM   12  N   UNL     1      28.535  45.173  54.158  1.00  0.00    -0.352 N 
HETATM   13  H   UNL     1      29.322  44.897  53.591  1.00  0.00     0.163 HD
HETATM   14  O   UNL     1      26.466  44.489  54.839  1.00  0.00    -0.267 OA
BRANCH  12  15
HETATM   15  C   UNL     1      28.794  45.887  55.385  1.00  0.00     0.161 C 
BRANCH  15  16
HETATM   16  C   UNL     1      29.833  45.186  56.215  1.00  0.00    -0.041 A 
HETATM   17  C   UNL     1      30.129  45.644  57.507  1.00  0.00     0.009 A 
HETATM   18  C   UNL     1      31.086  44.995  58.288  1.00  0.00     0.001 A 
HETATM   19  C   UNL     1      31.765  43.889  57.780  1.00  0.00     0.000 A 
HETATM   20  C   UNL     1      31.493  43.435  56.491  1.00  0.00     0.001 A 
HETATM   21  C   UNL     1      30.533  44.082  55.709  1.00  0.00     0.009 A 
ENDBRANCH  15  16
ENDBRANCH  12  15
ENDBRANCH   7  11
BRANCH   1  22
HETATM   22  C   UNL     1      24.441  45.754  49.362  1.00  0.00    -0.033 A 
HETATM   23  C   UNL     1      24.572  47.090  49.791  1.00  0.00     0.046 A 
HETATM   24  C   UNL     1      23.581  48.034  49.509  1.00  0.00     0.068 A 
HETATM   25  C   UNL     1      22.449  47.641  48.795  1.00  0.00     0.037 A 
HETATM   26  C   UNL     1      22.294  46.320  48.378  1.00  0.00     0.003 A 
HETATM   27  C   UNL     1      23.282  45.379  48.667  1.00  0.00     0.009 A 
BRANCH  24  28
HETATM   28  O   UNL     1      23.603  49.353  49.868  1.00  0.00    -0.356 OA
HETATM   29  C   UNL     1      22.824  50.250  49.086  1.00  0.00     0.210 C 
ENDBRANCH  24  28
ENDBRANCH   1  22
BRANCH   8  30
HETATM   30  C   UNL     1      25.954  40.954  49.373  1.00  0.00     0.409 C 
HETATM   31  F   UNL     1      24.950  40.826  48.478  1.00  0.00    -0.169 F 
HETATM   32  F   UNL     1      26.995  40.218  48.892  1.00  0.00    -0.169 F 
HETATM   33  F   UNL     1      25.581  40.358  50.523  1.00  0.00    -0.169 F 
ENDBRANCH   8  30
TORSDOF 6
ENDMDL
MODEL 7
REMARK VINA RESULT:      -8.8      4.840      9.333
REMARK  6 active torsions:
REMARK  status: ('A' for Active; 'I' for Inactive)
REMARK    1  A    between atoms: O_2  and  C_3 
REMARK    2  A    between atoms: C_5  and  C_6 
REMARK    3  A    between atoms: C_12  and  C_13 
REMARK       I    between atoms: C_13  and  N_14 
REMARK    4  A    between atoms: N_14  and  C_15 
REMARK    5  A    between atoms: C_15  and  C_16 
REMARK    6  A    between atoms: C_23  and  C_24 
ROOT
HETATM    1  C   UNL     1      22.268  46.188  48.695  1.00  0.00     0.118 C 
HETATM    2  N   UNL     1      23.591  45.606  48.897  1.00  0.00    -0.365 N 
HETATM    3  C   UNL     1      24.562  46.345  49.489  1.00  0.00     0.138 A 
HETATM    4  N   UNL     1      24.431  47.717  49.554  1.00  0.00    -0.240 N 
HETATM    5  N   UNL     1      25.418  48.322  50.229  1.00  0.00    -0.181 NA
HETATM    6  C   UNL     1      26.266  47.325  50.489  1.00  0.00     0.160 A 
HETATM    7  C   UNL     1      25.786  46.058  50.071  1.00  0.00     0.096 A 
HETATM    8  C   UNL     1      23.286  48.464  49.059  1.00  0.00     0.221 C 
HETATM    9  C   UNL     1      22.434  47.596  48.113  1.00  0.00     0.066 C 
HETATM   10  H   UNL     1      23.691  44.619  48.662  1.00  0.00     0.161 HD
ENDROOT
BRANCH   7  11
HETATM   11  C   UNL     1      26.481  44.802  50.279  1.00  0.00     0.257 C 
HETATM   12  N   UNL     1      26.485  44.327  51.570  1.00  0.00    -0.352 N 
HETATM   13  H   UNL     1      26.219  44.970  52.300  1.00  0.00     0.163 HD
HETATM   14  O   UNL     1      27.074  44.236  49.365  1.00  0.00    -0.267 OA
BRANCH  12  15
HETATM   15  C   UNL     1      27.305  43.194  51.921  1.00  0.00     0.161 C 
BRANCH  15  16
HETATM   16  C   UNL     1      28.233  43.522  53.058  1.00  0.00    -0.041 A 
HETATM   17  C   UNL     1      29.410  42.782  53.243  1.00  0.00     0.009 A 
HETATM   18  C   UNL     1      30.281  43.086  54.290  1.00  0.00     0.001 A 
HETATM   19  C   UNL     1      29.978  44.124  55.168  1.00  0.00     0.000 A 
HETATM   20  C   UNL     1      28.803  44.856  55.005  1.00  0.00     0.001 A 
HETATM   21  C   UNL     1      27.931  44.556  53.956  1.00  0.00     0.009 A 
ENDBRANCH  15  16
ENDBRANCH  12  15
ENDBRANCH   7  11
BRANCH   1  22
HETATM   22  C   UNL     1      21.423  45.274  47.832  1.00  0.00    -0.033 A 
HETATM   23  C   UNL     1      20.019  45.397  47.859  1.00  0.00     0.046 A 
HETATM   24  C   UNL     1      19.212  44.575  47.069  1.00  0.00     0.068 A 
HETATM   25  C   UNL     1      19.809  43.622  46.245  1.00  0.00     0.037 A 
HETATM   26  C   UNL     1      21.195  43.474  46.219  1.00  0.00     0.003 A 
HETATM   27  C   UNL     1      21.998  44.290  47.014  1.00  0.00     0.009 A 
BRANCH  24  28
HETATM   28  O   UNL     1      17.846  44.609  47.008  1.00  0.00    -0.356 OA
HETATM   29  C   UNL     1      17.253  44.545  45.717  1.00  0.00     0.210 C 
ENDBRANCH  24  28
ENDBRANCH   1  22
BRANCH   8  30
HETATM   30  C   UNL     1      23.703  49.731  48.340  1.00  0.00     0.409 C 
HETATM   31  F   UNL     1      24.895  49.605  47.717  1.00  0.00    -0.169 F 
HETATM   32  F   UNL     1      22.790  50.019  47.370  1.00  0.00    -0.169 F 
HETATM   33  F   UNL     1      23.750  50.818  49.137  1.00  0.00    -0.169 F 
ENDBRANCH   8  30
TORSDOF 6
ENDMDL
MODEL 8
REMARK VINA RESULT:      -8.8      3.784      6.459
REMARK  6 active torsions:
REMARK  status: ('A' for Active; 'I' for Inactive)
REMARK    1  A    between atoms: O_2  and  C_3 
REMARK    2  A    between atoms: C_5  and  C_6 
REMARK    3  A    between atoms: C_12  and  C_13 
REMARK       I    between atoms: C_13  and  N_14 
REMARK    4  A    between atoms: N_14  and  C_15 
REMARK    5  A    between atoms: C_15  and  C_16 
REMARK    6  A    between atoms: C_23  and  C_24 
ROOT
HETATM    1  C   UNL     1      25.346  46.702  50.332  1.00  0.00     0.118 C 
HETATM    2  N   UNL     1      24.328  46.011  49.547  1.00  0.00    -0.365 N 
HETATM    3  C   UNL     1      23.918  44.775  49.926  1.00  0.00     0.138 A 
HETATM    4  N   UNL     1      24.697  44.033  50.791  1.00  0.00    -0.240 N 
HETATM    5  N   UNL     1      24.145  42.865  51.147  1.00  0.00    -0.181 NA
HETATM    6  C   UNL     1      23.049  42.802  50.388  1.00  0.00     0.160 A 
HETATM    7  C   UNL     1      22.835  43.970  49.615  1.00  0.00     0.096 A 
HETATM    8  C   UNL     1      25.944  44.491  51.382  1.00  0.00     0.221 C 
HETATM    9  C   UNL     1      26.486  45.722  50.631  1.00  0.00     0.066 C 
HETATM   10  H   UNL     1      23.901  46.545  48.791  1.00  0.00     0.161 HD
ENDROOT
BRANCH   7  11
HETATM   11  C   UNL     1      21.692  44.188  48.746  1.00  0.00     0.257 C 
HETATM   12  N   UNL     1      20.865  45.229  49.096  1.00  0.00    -0.352 N 
HETATM   13  H   UNL     1      20.968  45.609  50.025  1.00  0.00     0.163 HD
HETATM   14  O   UNL     1      21.458  43.449  47.794  1.00  0.00    -0.267 OA
BRANCH  12  15
HETATM   15  C   UNL     1      19.605  45.410  48.418  1.00  0.00     0.161 C 
BRANCH  15  16
HETATM   16  C   UNL     1      19.069  46.800  48.625  1.00  0.00    -0.041 A 
HETATM   17  C   UNL     1      19.937  47.846  48.966  1.00  0.00     0.009 A 
HETATM   18  C   UNL     1      19.450  49.141  49.152  1.00  0.00     0.001 A 
HETATM   19  C   UNL     1      18.088  49.398  49.010  1.00  0.00     0.000 A 
HETATM   20  C   UNL     1      17.212  48.363  48.689  1.00  0.00     0.001 A 
HETATM   21  C   UNL     1      17.698  47.068  48.499  1.00  0.00     0.009 A 
ENDBRANCH  15  16
ENDBRANCH  12  15
ENDBRANCH   7  11
BRANCH   1  22
HETATM   22  C   UNL     1      25.800  47.954  49.610  1.00  0.00    -0.033 A 
HETATM   23  C   UNL     1      24.856  48.733  48.911  1.00  0.00     0.046 A 
HETATM   24  C   UNL     1      25.241  49.898  48.243  1.00  0.00     0.068 A 
HETATM   25  C   UNL     1      26.579  50.289  48.271  1.00  0.00     0.037 A 
HETATM   26  C   UNL     1      27.530  49.522  48.943  1.00  0.00     0.003 A 
HETATM   27  C   UNL     1      27.144  48.356  49.603  1.00  0.00     0.009 A 
BRANCH  24  28
HETATM   28  O   UNL     1      24.415  50.732  47.541  1.00  0.00    -0.356 OA
HETATM   29  C   UNL     1      23.015  50.524  47.678  1.00  0.00     0.210 C 
ENDBRANCH  24  28
ENDBRANCH   1  22
BRANCH   8  30
HETATM   30  C   UNL     1      26.999  43.404  51.393  1.00  0.00     0.409 C 
HETATM   31  F   UNL     1      27.032  42.701  50.239  1.00  0.00    -0.169 F 
HETATM   32  F   UNL     1      28.229  43.972  51.533  1.00  0.00    -0.169 F 
HETATM   33  F   UNL     1      26.874  42.536  52.418  1.00  0.00    -0.169 F 
ENDBRANCH   8  30
TORSDOF 6
ENDMDL
MODEL 9
REMARK VINA RESULT:      -8.5      3.514      6.827
REMARK  6 active torsions:
REMARK  status: ('A' for Active; 'I' for Inactive)
REMARK    1  A    between atoms: O_2  and  C_3 
REMARK    2  A    between atoms: C_5  and  C_6 
REMARK    3  A    between atoms: C_12  and  C_13 
REMARK       I    between atoms: C_13  and  N_14 
REMARK    4  A    between atoms: N_14  and  C_15 
REMARK    5  A    between atoms: C_15  and  C_16 
REMARK    6  A    between atoms: C_23  and  C_24 
ROOT
HETATM    1  C   UNL     1      28.356  44.131  52.619  1.00  0.00     0.118 C 
HETATM    2  N   UNL     1      28.023  42.767  52.224  1.00  0.00    -0.365 N 
HETATM    3  C   UNL     1      27.183  42.561  51.179  1.00  0.00     0.138 A 
HETATM    4  N   UNL     1      26.370  43.588  50.745  1.00  0.00    -0.240 N 
HETATM    5  N   UNL     1      25.646  43.281  49.661  1.00  0.00    -0.181 NA
HETATM    6  C   UNL     1      25.905  41.985  49.477  1.00  0.00     0.160 A 
HETATM    7  C   UNL     1      26.872  41.474  50.379  1.00  0.00     0.096 A 
HETATM    8  C   UNL     1      26.361  44.931  51.304  1.00  0.00     0.221 C 
HETATM    9  C   UNL     1      27.066  44.957  52.674  1.00  0.00     0.066 C 
HETATM   10  H   UNL     1      28.525  42.022  52.705  1.00  0.00     0.161 HD
ENDROOT
BRANCH   7  11
HETATM   11  C   UNL     1      27.377  40.114  50.365  1.00  0.00     0.257 C 
HETATM   12  N   UNL     1      26.540  39.171  49.815  1.00  0.00    -0.352 N 
HETATM   13  H   UNL     1      25.576  39.433  49.676  1.00  0.00     0.163 HD
HETATM   14  O   UNL     1      28.459  39.824  50.866  1.00  0.00    -0.267 OA
BRANCH  12  15
HETATM   15  C   UNL     1      26.860  37.769  49.924  1.00  0.00     0.161 C 
BRANCH  15  16
HETATM   16  C   UNL     1      27.232  37.188  48.588  1.00  0.00    -0.041 A 
HETATM   17  C   UNL     1      28.343  37.683  47.890  1.00  0.00     0.009 A 
HETATM   18  C   UNL     1      28.702  37.145  46.654  1.00  0.00     0.001 A 
HETATM   19  C   UNL     1      27.946  36.115  46.098  1.00  0.00     0.000 A 
HETATM   20  C   UNL     1      26.830  35.626  46.774  1.00  0.00     0.001 A 
HETATM   21  C   UNL     1      26.471  36.161  48.013  1.00  0.00     0.009 A 
ENDBRANCH  15  16
ENDBRANCH  12  15
ENDBRANCH   7  11
BRANCH   1  22
HETATM   22  C   UNL     1      29.123  44.122  53.926  1.00  0.00    -0.033 A 
HETATM   23  C   UNL     1      28.915  45.158  54.859  1.00  0.00     0.046 A 
HETATM   24  C   UNL     1      29.600  45.174  56.077  1.00  0.00     0.068 A 
HETATM   25  C   UNL     1      30.501  44.149  56.366  1.00  0.00     0.037 A 
HETATM   26  C   UNL     1      30.733  43.127  55.447  1.00  0.00     0.003 A 
HETATM   27  C   UNL     1      30.053  43.117  54.230  1.00  0.00     0.009 A 
BRANCH  24  28
HETATM   28  O   UNL     1      29.475  46.119  57.057  1.00  0.00    -0.356 OA
HETATM   29  C   UNL     1      30.365  46.028  58.163  1.00  0.00     0.210 C 
ENDBRANCH  24  28
ENDBRANCH   1  22
BRANCH   8  30
HETATM   30  C   UNL     1      24.954  45.474  51.452  1.00  0.00     0.409 C 
HETATM   31  F   UNL     1      24.403  45.815  50.267  1.00  0.00    -0.169 F 
HETATM   32  F   UNL     1      24.153  44.511  51.987  1.00  0.00    -0.169 F 
HETATM   33  F   UNL     1      24.866  46.531  52.285  1.00  0.00    -0.169 F 
ENDBRANCH   8  30
TORSDOF 6
ENDMDL
MODEL 10
REMARK VINA RESULT:      -8.5      3.353      7.817
REMARK  6 active torsions:
REMARK  status: ('A' for Active; 'I' for Inactive)
REMARK    1  A    between atoms: O_2  and  C_3 
REMARK    2  A    between atoms: C_5  and  C_6 
REMARK    3  A    between atoms: C_12  and  C_13 
REMARK       I    between atoms: C_13  and  N_14 
REMARK    4  A    between atoms: N_14  and  C_15 
REMARK    5  A    between atoms: C_15  and  C_16 
REMARK    6  A    between atoms: C_23  and  C_24 
ROOT
HETATM    1  C   UNL     1      25.786  46.211  51.336  1.00  0.00     0.118 C 
HETATM    2  N   UNL     1      26.513  45.110  50.713  1.00  0.00    -0.365 N 
HETATM    3  C   UNL     1      26.929  44.068  51.475  1.00  0.00     0.138 A 
HETATM    4  N   UNL     1      27.005  44.214  52.846  1.00  0.00    -0.240 N 
HETATM    5  N   UNL     1      27.355  43.092  53.489  1.00  0.00    -0.181 NA
HETATM    6  C   UNL     1      27.637  42.246  52.496  1.00  0.00     0.160 A 
HETATM    7  C   UNL     1      27.375  42.784  51.210  1.00  0.00     0.096 A 
HETATM    8  C   UNL     1      26.629  45.415  53.574  1.00  0.00     0.221 C 
HETATM    9  C   UNL     1      26.517  46.620  52.619  1.00  0.00     0.066 C 
HETATM   10  H   UNL     1      26.590  45.137  49.697  1.00  0.00     0.161 HD
ENDROOT
BRANCH   7  11
HETATM   11  C   UNL     1      27.541  42.061  49.963  1.00  0.00     0.257 C 
HETATM   12  N   UNL     1      28.279  40.904  50.036  1.00  0.00    -0.352 N 
HETATM   13  H   UNL     1      28.832  40.759  50.868  1.00  0.00     0.163 HD
HETATM   14  O   UNL     1      27.095  42.494  48.905  1.00  0.00    -0.267 OA
BRANCH  12  15
HETATM   15  C   UNL     1      28.665  40.215  48.830  1.00  0.00     0.161 C 
BRANCH  15  16
HETATM   16  C   UNL     1      27.838  38.976  48.620  1.00  0.00    -0.041 A 
HETATM   17  C   UNL     1      27.802  37.979  49.604  1.00  0.00     0.009 A 
HETATM   18  C   UNL     1      27.030  36.830  49.421  1.00  0.00     0.001 A 
HETATM   19  C   UNL     1      26.297  36.663  48.249  1.00  0.00     0.000 A 
HETATM   20  C   UNL     1      26.338  37.640  47.256  1.00  0.00     0.001 A 
HETATM   21  C   UNL     1      27.107  38.792  47.437  1.00  0.00     0.009 A 
ENDBRANCH  15  16
ENDBRANCH  12  15
ENDBRANCH   7  11
BRANCH   1  22
HETATM   22  C   UNL     1      25.615  47.347  50.349  1.00  0.00    -0.033 A 
HETATM   23  C   UNL     1      24.324  47.687  49.899  1.00  0.00     0.046 A 
HETATM   24  C   UNL     1      24.132  48.737  48.996  1.00  0.00     0.068 A 
HETATM   25  C   UNL     1      25.238  49.452  48.538  1.00  0.00     0.037 A 
HETATM   26  C   UNL     1      26.524  49.119  48.959  1.00  0.00     0.003 A 
HETATM   27  C   UNL     1      26.713  48.067  49.855  1.00  0.00     0.009 A 
BRANCH  24  28
HETATM   28  O   UNL     1      22.931  49.158  48.497  1.00  0.00    -0.356 OA
HETATM   29  C   UNL     1      22.939  50.329  47.691  1.00  0.00     0.210 C 
ENDBRANCH  24  28
ENDBRANCH   1  22
BRANCH   8  30
HETATM   30  C   UNL     1      27.612  45.740  54.680  1.00  0.00     0.409 C 
HETATM   31  F   UNL     1      27.532  47.027  55.083  1.00  0.00    -0.169 F 
HETATM   32  F   UNL     1      27.329  44.976  55.772  1.00  0.00    -0.169 F 
HETATM   33  F   UNL     1      28.894  45.469  54.363  1.00  0.00    -0.169 F 
ENDBRANCH   8  30
TORSDOF 6
ENDMDL
