MODEL 1
REMARK VINA RESULT:      -9.5      0.000      0.000
REMARK  6 active torsions:
REMARK  status: ('A' for Active; 'I' for Inactive)
REMARK    1  A    between atoms: C_10  and  C_11 
REMARK       I    between atoms: C_11  and  N_12 
REMARK    2  A    between atoms: N_12  and  C_13 
REMARK    3  A    between atoms: C_13  and  C_14 
REMARK    4  A    between atoms: C_14  and  N_15 
REMARK    5  A    between atoms: C_14  and  C_19 
REMARK    6  A    between atoms: C_20  and  O_21 
ROOT
HETATM    1  C   UNL     1      26.561  44.339  52.199  1.00  0.00     0.276 C 
HETATM    2  N   UNL     1      26.017  45.602  52.055  1.00  0.00    -0.353 N 
HETATM    3  O   UNL     1      26.112  43.381  51.577  1.00  0.00    -0.265 OA
HETATM    4  H   UNL     1      26.368  46.295  52.713  1.00  0.00     0.162 HD
ENDROOT
BRANCH   2   5
HETATM    5  C   UNL     1      24.753  45.822  51.381  1.00  0.00     0.161 C 
BRANCH   5   6
HETATM    6  C   UNL     1      24.782  45.916  49.812  1.00  0.00     0.240 C 
BRANCH   6   7
HETATM    7  N   UNL     1      23.845  44.836  49.192  1.00  0.00    -0.069 N 
HETATM    8  H   UNL     1      23.239  45.320  48.520  1.00  0.00     0.279 HD
HETATM    9  C   UNL     1      24.630  43.814  48.399  1.00  0.00     0.270 C 
HETATM   10  C   UNL     1      22.979  44.135  50.201  1.00  0.00     0.270 C 
ENDBRANCH   6   7
BRANCH   6  11
HETATM   11  C   UNL     1      24.413  47.308  49.304  1.00  0.00     0.007 A 
HETATM   12  C   UNL     1      25.390  48.326  49.251  1.00  0.00     0.076 A 
HETATM   13  C   UNL     1      25.054  49.594  48.769  1.00  0.00     0.037 A 
HETATM   14  C   UNL     1      23.755  49.863  48.338  1.00  0.00     0.003 A 
HETATM   15  C   UNL     1      22.786  48.866  48.376  1.00  0.00     0.001 A 
HETATM   16  C   UNL     1      23.111  47.595  48.850  1.00  0.00     0.012 A 
BRANCH  12  17
HETATM   17  O   UNL     1      26.657  47.963  49.627  1.00  0.00    -0.355 OA
HETATM   18  C   UNL     1      27.732  48.762  49.137  1.00  0.00     0.210 C 
ENDBRANCH  12  17
ENDBRANCH   6  11
ENDBRANCH   5   6
ENDBRANCH   2   5
BRANCH   1  19
HETATM   19  C   UNL     1      27.649  44.275  53.152  1.00  0.00     0.150 A 
HETATM   20  O   UNL     1      27.710  45.241  54.122  1.00  0.00    -0.304 OA
HETATM   21  C   UNL     1      28.750  44.930  54.940  1.00  0.00     0.087 A 
HETATM   22  C   UNL     1      29.117  45.640  56.080  1.00  0.00     0.045 A 
HETATM   23  C   UNL     1      29.394  43.790  54.488  1.00  0.00     0.007 A 
HETATM   24  C   UNL     1      30.211  45.153  56.820  1.00  0.00    -0.053 A 
HETATM   25  C   UNL     1      30.926  44.020  56.372  1.00  0.00    -0.055 A 
HETATM   26  C   UNL     1      30.616  45.895  58.069  1.00  0.00     0.049 C 
HETATM   27  C   UNL     1      32.111  43.487  57.137  1.00  0.00     0.049 C 
HETATM   28  C   UNL     1      30.507  43.328  55.214  1.00  0.00     0.022 A 
HETATM   29  C   UNL     1      28.683  43.363  53.323  1.00  0.00    -0.009 A 
HETATM   30  C   UNL     1      28.978  42.174  52.484  1.00  0.00     0.052 C 
ENDBRANCH   1  19
TORSDOF 6
ENDMDL
MODEL 2
REMARK VINA RESULT:      -9.1      1.389      2.394
REMARK  6 active torsions:
REMARK  status: ('A' for Active; 'I' for Inactive)
REMARK    1  A    between atoms: C_10  and  C_11 
REMARK       I    between atoms: C_11  and  N_12 
REMARK    2  A    between atoms: N_12  and  C_13 
REMARK    3  A    between atoms: C_13  and  C_14 
REMARK    4  A    between atoms: C_14  and  N_15 
REMARK    5  A    between atoms: C_14  and  C_19 
REMARK    6  A    between atoms: C_20  and  O_21 
ROOT
HETATM    1  C   UNL     1      25.912  46.509  53.207  1.00  0.00     0.276 C 
HETATM    2  N   UNL     1      25.361  45.390  52.610  1.00  0.00    -0.353 N 
HETATM    3  O   UNL     1      25.580  47.639  52.863  1.00  0.00    -0.265 OA
HETATM    4  H   UNL     1      25.801  44.509  52.868  1.00  0.00     0.162 HD
ENDROOT
BRANCH   2   5
HETATM    5  C   UNL     1      24.576  45.476  51.395  1.00  0.00     0.161 C 
BRANCH   5   6
HETATM    6  C   UNL     1      25.324  45.920  50.086  1.00  0.00     0.240 C 
BRANCH   6   7
HETATM    7  N   UNL     1      25.348  44.749  49.057  1.00  0.00    -0.069 N 
HETATM    8  H   UNL     1      25.606  45.156  48.151  1.00  0.00     0.279 HD
HETATM    9  C   UNL     1      26.425  43.741  49.394  1.00  0.00     0.270 C 
HETATM   10  C   UNL     1      24.028  44.046  48.909  1.00  0.00     0.270 C 
ENDBRANCH   6   7
BRANCH   6  11
HETATM   11  C   UNL     1      24.715  47.174  49.462  1.00  0.00     0.007 A 
HETATM   12  C   UNL     1      25.494  48.343  49.314  1.00  0.00     0.076 A 
HETATM   13  C   UNL     1      24.940  49.484  48.727  1.00  0.00     0.037 A 
HETATM   14  C   UNL     1      23.617  49.476  48.284  1.00  0.00     0.003 A 
HETATM   15  C   UNL     1      22.843  48.329  48.415  1.00  0.00     0.001 A 
HETATM   16  C   UNL     1      23.387  47.182  48.994  1.00  0.00     0.012 A 
BRANCH  12  17
HETATM   17  O   UNL     1      26.802  48.247  49.711  1.00  0.00    -0.355 OA
HETATM   18  C   UNL     1      27.734  49.127  49.087  1.00  0.00     0.210 C 
ENDBRANCH  12  17
ENDBRANCH   6  11
ENDBRANCH   5   6
ENDBRANCH   2   5
BRANCH   1  19
HETATM   19  C   UNL     1      26.905  46.206  54.216  1.00  0.00     0.150 A 
HETATM   20  O   UNL     1      27.697  45.103  54.025  1.00  0.00    -0.304 OA
HETATM   21  C   UNL     1      28.599  45.070  55.041  1.00  0.00     0.087 A 
HETATM   22  C   UNL     1      29.614  44.129  55.186  1.00  0.00     0.045 A 
HETATM   23  C   UNL     1      28.376  46.120  55.918  1.00  0.00     0.007 A 
HETATM   24  C   UNL     1      30.471  44.267  56.294  1.00  0.00    -0.053 A 
HETATM   25  C   UNL     1      30.254  45.296  57.238  1.00  0.00    -0.055 A 
HETATM   26  C   UNL     1      31.590  43.271  56.462  1.00  0.00     0.049 C 
HETATM   27  C   UNL     1      31.147  45.458  58.442  1.00  0.00     0.049 C 
HETATM   28  C   UNL     1      29.216  46.233  57.041  1.00  0.00     0.022 A 
HETATM   29  C   UNL     1      27.273  46.858  55.385  1.00  0.00    -0.009 A 
HETATM   30  C   UNL     1      26.663  48.086  55.956  1.00  0.00     0.052 C 
ENDBRANCH   1  19
TORSDOF 6
ENDMDL
MODEL 3
REMARK VINA RESULT:      -8.9      1.368      2.334
REMARK  6 active torsions:
REMARK  status: ('A' for Active; 'I' for Inactive)
REMARK    1  A    between atoms: C_10  and  C_11 
REMARK       I    between atoms: C_11  and  N_12 
REMARK    2  A    between atoms: N_12  and  C_13 
REMARK    3  A    between atoms: C_13  and  C_14 
REMARK    4  A    between atoms: C_14  and  N_15 
REMARK    5  A    between atoms: C_14  and  C_19 
REMARK    6  A    between atoms: C_20  and  O_21 
ROOT
HETATM    1  C   UNL     1      27.385  43.634  51.529  1.00  0.00     0.276 C 
HETATM    2  N   UNL     1      27.252  44.818  50.828  1.00  0.00    -0.353 N 
HETATM    3  O   UNL     1      26.763  42.628  51.198  1.00  0.00    -0.265 OA
HETATM    4  H   UNL     1      27.699  45.623  51.262  1.00  0.00     0.162 HD
ENDROOT
BRANCH   2   5
HETATM    5  C   UNL     1      26.204  45.017  49.847  1.00  0.00     0.161 C 
BRANCH   5   6
HETATM    6  C   UNL     1      25.234  46.234  50.069  1.00  0.00     0.240 C 
BRANCH   6   7
HETATM    7  N   UNL     1      24.875  46.366  51.581  1.00  0.00    -0.069 N 
HETATM    8  H   UNL     1      24.009  46.915  51.633  1.00  0.00     0.279 HD
HETATM    9  C   UNL     1      24.563  45.018  52.193  1.00  0.00     0.270 C 
HETATM   10  C   UNL     1      25.931  47.058  52.396  1.00  0.00     0.270 C 
ENDBRANCH   6   7
BRANCH   6  11
HETATM   11  C   UNL     1      25.810  47.544  49.536  1.00  0.00     0.007 A 
HETATM   12  C   UNL     1      24.947  48.599  49.163  1.00  0.00     0.076 A 
HETATM   13  C   UNL     1      25.477  49.803  48.692  1.00  0.00     0.037 A 
HETATM   14  C   UNL     1      26.857  49.972  48.586  1.00  0.00     0.003 A 
HETATM   15  C   UNL     1      27.717  48.946  48.959  1.00  0.00     0.001 A 
HETATM   16  C   UNL     1      27.201  47.741  49.436  1.00  0.00     0.012 A 
BRANCH  12  17
HETATM   17  O   UNL     1      23.609  48.378  49.362  1.00  0.00    -0.355 OA
HETATM   18  C   UNL     1      22.735  49.489  49.172  1.00  0.00     0.210 C 
ENDBRANCH  12  17
ENDBRANCH   6  11
ENDBRANCH   5   6
ENDBRANCH   2   5
BRANCH   1  19
HETATM   19  C   UNL     1      28.275  43.723  52.667  1.00  0.00     0.150 A 
HETATM   20  O   UNL     1      28.161  44.816  53.486  1.00  0.00    -0.304 OA
HETATM   21  C   UNL     1      29.026  44.641  54.519  1.00  0.00     0.087 A 
HETATM   22  C   UNL     1      29.178  45.509  55.597  1.00  0.00     0.045 A 
HETATM   23  C   UNL     1      29.736  43.462  54.359  1.00  0.00     0.007 A 
HETATM   24  C   UNL     1      30.111  45.151  56.588  1.00  0.00    -0.053 A 
HETATM   25  C   UNL     1      30.889  43.981  56.445  1.00  0.00    -0.055 A 
HETATM   26  C   UNL     1      30.281  46.066  57.775  1.00  0.00     0.049 C 
HETATM   27  C   UNL     1      31.906  43.581  57.484  1.00  0.00     0.049 C 
HETATM   28  C   UNL     1      30.689  43.127  55.338  1.00  0.00     0.022 A 
HETATM   29  C   UNL     1      29.251  42.864  53.154  1.00  0.00    -0.009 A 
HETATM   30  C   UNL     1      29.689  41.576  52.560  1.00  0.00     0.052 C 
ENDBRANCH   1  19
TORSDOF 6
ENDMDL
MODEL 4
REMARK VINA RESULT:      -8.9      2.747      5.298
REMARK  6 active torsions:
REMARK  status: ('A' for Active; 'I' for Inactive)
REMARK    1  A    between atoms: C_10  and  C_11 
REMARK       I    between atoms: C_11  and  N_12 
REMARK    2  A    between atoms: N_12  and  C_13 
REMARK    3  A    between atoms: C_13  and  C_14 
REMARK    4  A    between atoms: C_14  and  N_15 
REMARK    5  A    between atoms: C_14  and  C_19 
REMARK    6  A    between atoms: C_20  and  O_21 
ROOT
HETATM    1  C   UNL     1      26.742  44.803  52.152  1.00  0.00     0.276 C 
HETATM    2  N   UNL     1      27.203  43.833  51.281  1.00  0.00    -0.353 N 
HETATM    3  O   UNL     1      25.770  45.498  51.870  1.00  0.00    -0.265 OA
HETATM    4  H   UNL     1      28.090  43.410  51.546  1.00  0.00     0.162 HD
ENDROOT
BRANCH   2   5
HETATM    5  C   UNL     1      26.747  43.754  49.908  1.00  0.00     0.161 C 
BRANCH   5   6
HETATM    6  C   UNL     1      26.017  42.432  49.470  1.00  0.00     0.240 C 
BRANCH   6   7
HETATM    7  N   UNL     1      24.923  42.751  48.406  1.00  0.00    -0.069 N 
HETATM    8  H   UNL     1      25.368  42.659  47.485  1.00  0.00     0.279 HD
HETATM    9  C   UNL     1      23.805  41.732  48.442  1.00  0.00     0.270 C 
HETATM   10  C   UNL     1      24.349  44.135  48.524  1.00  0.00     0.270 C 
ENDBRANCH   6   7
BRANCH   6  11
HETATM   11  C   UNL     1      26.988  41.376  48.945  1.00  0.00     0.007 A 
HETATM   12  C   UNL     1      27.687  40.544  49.849  1.00  0.00     0.076 A 
HETATM   13  C   UNL     1      28.561  39.567  49.367  1.00  0.00     0.037 A 
HETATM   14  C   UNL     1      28.750  39.405  47.995  1.00  0.00     0.003 A 
HETATM   15  C   UNL     1      28.061  40.211  47.095  1.00  0.00     0.001 A 
HETATM   16  C   UNL     1      27.181  41.186  47.563  1.00  0.00     0.012 A 
BRANCH  12  17
HETATM   17  O   UNL     1      27.394  40.720  51.176  1.00  0.00    -0.355 OA
HETATM   18  C   UNL     1      28.496  40.778  52.079  1.00  0.00     0.210 C 
ENDBRANCH  12  17
ENDBRANCH   6  11
ENDBRANCH   5   6
ENDBRANCH   2   5
BRANCH   1  19
HETATM   19  C   UNL     1      27.524  44.921  53.365  1.00  0.00     0.150 A 
HETATM   20  O   UNL     1      28.481  43.971  53.606  1.00  0.00    -0.304 OA
HETATM   21  C   UNL     1      29.135  44.332  54.741  1.00  0.00     0.087 A 
HETATM   22  C   UNL     1      30.214  43.652  55.299  1.00  0.00     0.045 A 
HETATM   23  C   UNL     1      28.585  45.490  55.267  1.00  0.00     0.007 A 
HETATM   24  C   UNL     1      30.781  44.190  56.470  1.00  0.00    -0.053 A 
HETATM   25  C   UNL     1      30.225  45.343  57.066  1.00  0.00    -0.055 A 
HETATM   26  C   UNL     1      31.962  43.481  57.084  1.00  0.00     0.049 C 
HETATM   27  C   UNL     1      30.803  45.932  58.328  1.00  0.00     0.049 C 
HETATM   28  C   UNL     1      29.136  46.004  56.455  1.00  0.00     0.022 A 
HETATM   29  C   UNL     1      27.535  45.874  54.375  1.00  0.00    -0.009 A 
HETATM   30  C   UNL     1      26.653  47.063  54.496  1.00  0.00     0.052 C 
ENDBRANCH   1  19
TORSDOF 6
ENDMDL
MODEL 5
REMARK VINA RESULT:      -8.7      1.681      3.014
REMARK  6 active torsions:
REMARK  status: ('A' for Active; 'I' for Inactive)
REMARK    1  A    between atoms: C_10  and  C_11 
REMARK       I    between atoms: C_11  and  N_12 
REMARK    2  A    between atoms: N_12  and  C_13 
REMARK    3  A    between atoms: C_13  and  C_14 
REMARK    4  A    between atoms: C_14  and  N_15 
REMARK    5  A    between atoms: C_14  and  C_19 
REMARK    6  A    between atoms: C_20  and  O_21 
ROOT
HETATM    1  C   UNL     1      26.857  43.744  51.850  1.00  0.00     0.276 C 
HETATM    2  N   UNL     1      27.033  44.680  50.848  1.00  0.00    -0.353 N 
HETATM    3  O   UNL     1      25.894  42.982  51.844  1.00  0.00    -0.265 OA
HETATM    4  H   UNL     1      27.780  45.350  51.016  1.00  0.00     0.162 HD
ENDROOT
BRANCH   2   5
HETATM    5  C   UNL     1      25.986  44.991  49.895  1.00  0.00     0.161 C 
BRANCH   5   6
HETATM    6  C   UNL     1      24.701  45.708  50.449  1.00  0.00     0.240 C 
BRANCH   6   7
HETATM    7  N   UNL     1      25.053  47.153  50.918  1.00  0.00    -0.069 N 
HETATM    8  H   UNL     1      24.201  47.715  50.809  1.00  0.00     0.279 HD
HETATM    9  C   UNL     1      25.400  47.185  52.390  1.00  0.00     0.270 C 
HETATM   10  C   UNL     1      26.156  47.795  50.125  1.00  0.00     0.270 C 
ENDBRANCH   6   7
BRANCH   6  11
HETATM   11  C   UNL     1      23.563  45.733  49.432  1.00  0.00     0.007 A 
HETATM   12  C   UNL     1      22.787  44.574  49.206  1.00  0.00     0.076 A 
HETATM   13  C   UNL     1      21.735  44.604  48.287  1.00  0.00     0.037 A 
HETATM   14  C   UNL     1      21.442  45.775  47.589  1.00  0.00     0.003 A 
HETATM   15  C   UNL     1      22.191  46.926  47.809  1.00  0.00     0.001 A 
HETATM   16  C   UNL     1      23.241  46.910  48.728  1.00  0.00     0.012 A 
BRANCH  12  17
HETATM   17  O   UNL     1      23.095  43.486  49.981  1.00  0.00    -0.355 OA
HETATM   18  C   UNL     1      23.362  42.262  49.300  1.00  0.00     0.210 C 
ENDBRANCH  12  17
ENDBRANCH   6  11
ENDBRANCH   5   6
ENDBRANCH   2   5
BRANCH   1  19
HETATM   19  C   UNL     1      27.875  43.788  52.879  1.00  0.00     0.150 A 
HETATM   20  O   UNL     1      27.889  44.869  53.721  1.00  0.00    -0.304 OA
HETATM   21  C   UNL     1      28.862  44.652  54.644  1.00  0.00     0.087 A 
HETATM   22  C   UNL     1      29.164  45.496  55.709  1.00  0.00     0.045 A 
HETATM   23  C   UNL     1      29.513  43.456  54.386  1.00  0.00     0.007 A 
HETATM   24  C   UNL     1      30.194  45.095  56.581  1.00  0.00    -0.053 A 
HETATM   25  C   UNL     1      30.914  43.906  56.331  1.00  0.00    -0.055 A 
HETATM   26  C   UNL     1      30.527  45.984  57.752  1.00  0.00     0.049 C 
HETATM   27  C   UNL     1      32.032  43.460  57.240  1.00  0.00     0.049 C 
HETATM   28  C   UNL     1      30.563  43.077  55.243  1.00  0.00     0.022 A 
HETATM   29  C   UNL     1      28.875  42.894  53.237  1.00  0.00    -0.009 A 
HETATM   30  C   UNL     1      29.202  41.604  52.577  1.00  0.00     0.052 C 
ENDBRANCH   1  19
TORSDOF 6
ENDMDL
MODEL 6
REMARK VINA RESULT:      -8.7      1.793      2.410
REMARK  6 active torsions:
REMARK  status: ('A' for Active; 'I' for Inactive)
REMARK    1  A    between atoms: C_10  and  C_11 
REMARK       I    between atoms: C_11  and  N_12 
REMARK    2  A    between atoms: N_12  and  C_13 
REMARK    3  A    between atoms: C_13  and  C_14 
REMARK    4  A    between atoms: C_14  and  N_15 
REMARK    5  A    between atoms: C_14  and  C_19 
REMARK    6  A    between atoms: C_20  and  O_21 
ROOT
HETATM    1  C   UNL     1      26.944  42.648  51.355  1.00  0.00     0.276 C 
HETATM    2  N   UNL     1      27.180  43.404  50.221  1.00  0.00    -0.353 N 
HETATM    3  O   UNL     1      25.989  41.880  51.418  1.00  0.00    -0.265 OA
HETATM    4  H   UNL     1      27.910  44.106  50.321  1.00  0.00     0.162 HD
ENDROOT
BRANCH   2   5
HETATM    5  C   UNL     1      26.196  43.530  49.165  1.00  0.00     0.161 C 
BRANCH   5   6
HETATM    6  C   UNL     1      25.180  44.726  49.269  1.00  0.00     0.240 C 
BRANCH   6   7
HETATM    7  N   UNL     1      23.716  44.194  49.201  1.00  0.00    -0.069 N 
HETATM    8  H   UNL     1      23.300  44.352  50.126  1.00  0.00     0.279 HD
HETATM    9  C   UNL     1      22.885  44.990  48.219  1.00  0.00     0.270 C 
HETATM   10  C   UNL     1      23.619  42.730  48.874  1.00  0.00     0.270 C 
ENDBRANCH   6   7
BRANCH   6  11
HETATM   11  C   UNL     1      25.392  45.564  50.528  1.00  0.00     0.007 A 
HETATM   12  C   UNL     1      26.206  46.718  50.484  1.00  0.00     0.076 A 
HETATM   13  C   UNL     1      26.384  47.493  51.632  1.00  0.00     0.037 A 
HETATM   14  C   UNL     1      25.762  47.135  52.828  1.00  0.00     0.003 A 
HETATM   15  C   UNL     1      24.950  46.008  52.882  1.00  0.00     0.001 A 
HETATM   16  C   UNL     1      24.759  45.228  51.741  1.00  0.00     0.012 A 
BRANCH  12  17
HETATM   17  O   UNL     1      26.726  47.039  49.256  1.00  0.00    -0.355 OA
HETATM   18  C   UNL     1      27.349  48.315  49.132  1.00  0.00     0.210 C 
ENDBRANCH  12  17
ENDBRANCH   6  11
ENDBRANCH   5   6
ENDBRANCH   2   5
BRANCH   1  19
HETATM   19  C   UNL     1      27.892  42.884  52.424  1.00  0.00     0.150 A 
HETATM   20  O   UNL     1      27.867  44.106  53.046  1.00  0.00    -0.304 OA
HETATM   21  C   UNL     1      28.773  44.065  54.057  1.00  0.00     0.087 A 
HETATM   22  C   UNL     1      29.017  45.096  54.961  1.00  0.00     0.045 A 
HETATM   23  C   UNL     1      29.421  42.841  54.075  1.00  0.00     0.007 A 
HETATM   24  C   UNL     1      29.980  44.864  55.961  1.00  0.00    -0.053 A 
HETATM   25  C   UNL     1      30.697  43.647  55.991  1.00  0.00    -0.055 A 
HETATM   26  C   UNL     1      30.248  45.958  56.963  1.00  0.00     0.049 C 
HETATM   27  C   UNL     1      31.744  43.378  57.042  1.00  0.00     0.049 C 
HETATM   28  C   UNL     1      30.405  42.628  55.058  1.00  0.00     0.022 A 
HETATM   29  C   UNL     1      28.852  42.071  53.012  1.00  0.00    -0.009 A 
HETATM   30  C   UNL     1      29.203  40.679  52.633  1.00  0.00     0.052 C 
ENDBRANCH   1  19
TORSDOF 6
ENDMDL
MODEL 7
REMARK VINA RESULT:      -8.6      2.356      9.255
REMARK  6 active torsions:
REMARK  status: ('A' for Active; 'I' for Inactive)
REMARK    1  A    between atoms: C_10  and  C_11 
REMARK       I    between atoms: C_11  and  N_12 
REMARK    2  A    between atoms: N_12  and  C_13 
REMARK    3  A    between atoms: C_13  and  C_14 
REMARK    4  A    between atoms: C_14  and  N_15 
REMARK    5  A    between atoms: C_14  and  C_19 
REMARK    6  A    between atoms: C_20  and  O_21 
ROOT
HETATM    1  C   UNL     1      24.968  47.861  49.946  1.00  0.00     0.276 C 
HETATM    2  N   UNL     1      24.932  47.039  51.057  1.00  0.00    -0.353 N 
HETATM    3  O   UNL     1      26.034  48.187  49.433  1.00  0.00    -0.265 OA
HETATM    4  H   UNL     1      24.015  46.941  51.486  1.00  0.00     0.162 HD
ENDROOT
BRANCH   2   5
HETATM    5  C   UNL     1      26.123  46.732  51.823  1.00  0.00     0.161 C 
BRANCH   5   6
HETATM    6  C   UNL     1      26.108  45.410  52.675  1.00  0.00     0.240 C 
BRANCH   6   7
HETATM    7  N   UNL     1      26.254  44.169  51.743  1.00  0.00    -0.069 N 
HETATM    8  H   UNL     1      26.820  43.480  52.253  1.00  0.00     0.279 HD
HETATM    9  C   UNL     1      24.915  43.513  51.485  1.00  0.00     0.270 C 
HETATM   10  C   UNL     1      26.929  44.470  50.435  1.00  0.00     0.270 C 
ENDBRANCH   6   7
BRANCH   6  11
HETATM   11  C   UNL     1      27.185  45.402  53.758  1.00  0.00     0.007 A 
HETATM   12  C   UNL     1      27.143  46.347  54.808  1.00  0.00     0.076 A 
HETATM   13  C   UNL     1      28.119  46.326  55.807  1.00  0.00     0.037 A 
HETATM   14  C   UNL     1      29.138  45.375  55.777  1.00  0.00     0.003 A 
HETATM   15  C   UNL     1      29.185  44.433  54.755  1.00  0.00     0.001 A 
HETATM   16  C   UNL     1      28.213  44.439  53.754  1.00  0.00     0.012 A 
BRANCH  12  17
HETATM   17  O   UNL     1      26.072  47.202  54.803  1.00  0.00    -0.355 OA
HETATM   18  C   UNL     1      26.237  48.449  55.474  1.00  0.00     0.210 C 
ENDBRANCH  12  17
ENDBRANCH   6  11
ENDBRANCH   5   6
ENDBRANCH   2   5
BRANCH   1  19
HETATM   19  C   UNL     1      23.662  48.300  49.500  1.00  0.00     0.150 A 
HETATM   20  O   UNL     1      23.300  49.597  49.755  1.00  0.00    -0.304 OA
HETATM   21  C   UNL     1      22.087  49.801  49.176  1.00  0.00     0.087 A 
HETATM   22  C   UNL     1      21.394  51.008  49.166  1.00  0.00     0.045 A 
HETATM   23  C   UNL     1      21.636  48.635  48.580  1.00  0.00     0.007 A 
HETATM   24  C   UNL     1      20.157  51.037  48.494  1.00  0.00    -0.053 A 
HETATM   25  C   UNL     1      19.636  49.861  47.910  1.00  0.00    -0.055 A 
HETATM   26  C   UNL     1      19.395  52.338  48.454  1.00  0.00     0.049 C 
HETATM   27  C   UNL     1      18.308  49.860  47.197  1.00  0.00     0.049 C 
HETATM   28  C   UNL     1      20.384  48.663  47.938  1.00  0.00     0.022 A 
HETATM   29  C   UNL     1      22.657  47.656  48.791  1.00  0.00    -0.009 A 
HETATM   30  C   UNL     1      22.649  46.246  48.326  1.00  0.00     0.052 C 
ENDBRANCH   1  19
TORSDOF 6
ENDMDL
MODEL 8
REMARK VINA RESULT:      -8.4      1.409      2.231
REMARK  6 active torsions:
REMARK  status: ('A' for Active; 'I' for Inactive)
REMARK    1  A    between atoms: C_10  and  C_11 
REMARK       I    between atoms: C_11  and  N_12 
REMARK    2  A    between atoms: N_12  and  C_13 
REMARK    3  A    between atoms: C_13  and  C_14 
REMARK    4  A    between atoms: C_14  and  N_15 
REMARK    5  A    between atoms: C_14  and  C_19 
REMARK    6  A    between atoms: C_20  and  O_21 
ROOT
HETATM    1  C   UNL     1      26.010  44.475  52.696  1.00  0.00     0.276 C 
HETATM    2  N   UNL     1      25.953  45.587  51.875  1.00  0.00    -0.353 N 
HETATM    3  O   UNL     1      25.107  43.644  52.702  1.00  0.00    -0.265 OA
HETATM    4  H   UNL     1      26.678  46.280  52.045  1.00  0.00     0.162 HD
ENDROOT
BRANCH   2   5
HETATM    5  C   UNL     1      24.738  45.968  51.183  1.00  0.00     0.161 C 
BRANCH   5   6
HETATM    6  C   UNL     1      24.810  47.232  50.250  1.00  0.00     0.240 C 
BRANCH   6   7
HETATM    7  N   UNL     1      26.149  47.234  49.452  1.00  0.00    -0.069 N 
HETATM    8  H   UNL     1      25.907  47.405  48.469  1.00  0.00     0.279 HD
HETATM    9  C   UNL     1      27.042  48.379  49.877  1.00  0.00     0.270 C 
HETATM   10  C   UNL     1      26.909  45.941  49.541  1.00  0.00     0.270 C 
ENDBRANCH   6   7
BRANCH   6  11
HETATM   11  C   UNL     1      23.616  47.326  49.303  1.00  0.00     0.007 A 
HETATM   12  C   UNL     1      23.139  48.589  48.887  1.00  0.00     0.076 A 
HETATM   13  C   UNL     1      22.058  48.673  48.006  1.00  0.00     0.037 A 
HETATM   14  C   UNL     1      21.443  47.514  47.532  1.00  0.00     0.003 A 
HETATM   15  C   UNL     1      21.909  46.265  47.925  1.00  0.00     0.001 A 
HETATM   16  C   UNL     1      22.992  46.168  48.800  1.00  0.00     0.012 A 
BRANCH  12  17
HETATM   17  O   UNL     1      23.839  49.676  49.343  1.00  0.00    -0.355 OA
HETATM   18  C   UNL     1      23.285  50.961  49.074  1.00  0.00     0.210 C 
ENDBRANCH  12  17
ENDBRANCH   6  11
ENDBRANCH   5   6
ENDBRANCH   2   5
BRANCH   1  19
HETATM   19  C   UNL     1      27.190  44.426  53.535  1.00  0.00     0.150 A 
HETATM   20  O   UNL     1      27.332  45.391  54.498  1.00  0.00    -0.304 OA
HETATM   21  C   UNL     1      28.453  45.095  55.206  1.00  0.00     0.087 A 
HETATM   22  C   UNL     1      28.921  45.808  56.307  1.00  0.00     0.045 A 
HETATM   23  C   UNL     1      29.067  43.967  54.687  1.00  0.00     0.007 A 
HETATM   24  C   UNL     1      30.092  45.337  56.931  1.00  0.00    -0.053 A 
HETATM   25  C   UNL     1      30.776  44.217  56.409  1.00  0.00    -0.055 A 
HETATM   26  C   UNL     1      30.608  46.082  58.136  1.00  0.00     0.049 C 
HETATM   27  C   UNL     1      32.040  43.702  57.049  1.00  0.00     0.049 C 
HETATM   28  C   UNL     1      30.255  43.522  55.296  1.00  0.00     0.022 A 
HETATM   29  C   UNL     1      28.249  43.532  53.598  1.00  0.00    -0.009 A 
HETATM   30  C   UNL     1      28.478  42.349  52.728  1.00  0.00     0.052 C 
ENDBRANCH   1  19
TORSDOF 6
ENDMDL
MODEL 9
REMARK VINA RESULT:      -8.4      1.242      2.535
REMARK  6 active torsions:
REMARK  status: ('A' for Active; 'I' for Inactive)
REMARK    1  A    between atoms: C_10  and  C_11 
REMARK       I    between atoms: C_11  and  N_12 
REMARK    2  A    between atoms: N_12  and  C_13 
REMARK    3  A    between atoms: C_13  and  C_14 
REMARK    4  A    between atoms: C_14  and  N_15 
REMARK    5  A    between atoms: C_14  and  C_19 
REMARK    6  A    between atoms: C_20  and  O_21 
ROOT
HETATM    1  C   UNL     1      26.578  44.202  52.379  1.00  0.00     0.276 C 
HETATM    2  N   UNL     1      25.513  45.076  52.257  1.00  0.00    -0.353 N 
HETATM    3  O   UNL     1      26.749  43.294  51.571  1.00  0.00    -0.265 OA
HETATM    4  H   UNL     1      25.382  45.701  53.049  1.00  0.00     0.162 HD
ENDROOT
BRANCH   2   5
HETATM    5  C   UNL     1      24.415  44.825  51.346  1.00  0.00     0.161 C 
BRANCH   5   6
HETATM    6  C   UNL     1      24.675  45.090  49.818  1.00  0.00     0.240 C 
BRANCH   6   7
HETATM    7  N   UNL     1      23.368  44.851  49.002  1.00  0.00    -0.069 N 
HETATM    8  H   UNL     1      22.976  45.776  48.792  1.00  0.00     0.279 HD
HETATM    9  C   UNL     1      23.662  44.199  47.668  1.00  0.00     0.270 C 
HETATM   10  C   UNL     1      22.333  44.047  49.739  1.00  0.00     0.270 C 
ENDBRANCH   6   7
BRANCH   6  11
HETATM   11  C   UNL     1      25.227  46.488  49.554  1.00  0.00     0.007 A 
HETATM   12  C   UNL     1      24.345  47.571  49.338  1.00  0.00     0.076 A 
HETATM   13  C   UNL     1      24.853  48.853  49.114  1.00  0.00     0.037 A 
HETATM   14  C   UNL     1      26.230  49.074  49.102  1.00  0.00     0.003 A 
HETATM   15  C   UNL     1      27.109  48.019  49.323  1.00  0.00     0.001 A 
HETATM   16  C   UNL     1      26.614  46.735  49.554  1.00  0.00     0.012 A 
BRANCH  12  17
HETATM   17  O   UNL     1      23.008  47.284  49.434  1.00  0.00    -0.355 OA
HETATM   18  C   UNL     1      22.100  48.262  48.934  1.00  0.00     0.210 C 
ENDBRANCH  12  17
ENDBRANCH   6  11
ENDBRANCH   5   6
ENDBRANCH   2   5
BRANCH   1  19
HETATM   19  C   UNL     1      27.409  44.450  53.539  1.00  0.00     0.150 A 
HETATM   20  O   UNL     1      28.416  43.560  53.807  1.00  0.00    -0.304 OA
HETATM   21  C   UNL     1      29.107  44.038  54.876  1.00  0.00     0.087 A 
HETATM   22  C   UNL     1      30.238  43.448  55.432  1.00  0.00     0.045 A 
HETATM   23  C   UNL     1      28.532  45.213  55.333  1.00  0.00     0.007 A 
HETATM   24  C   UNL     1      30.835  44.102  56.527  1.00  0.00    -0.053 A 
HETATM   25  C   UNL     1      30.259  45.279  57.055  1.00  0.00    -0.055 A 
HETATM   26  C   UNL     1      32.073  43.492  57.136  1.00  0.00     0.049 C 
HETATM   27  C   UNL     1      30.869  45.991  58.235  1.00  0.00     0.049 C 
HETATM   28  C   UNL     1      29.116  45.844  56.447  1.00  0.00     0.022 A 
HETATM   29  C   UNL     1      27.426  45.482  54.467  1.00  0.00    -0.009 A 
HETATM   30  C   UNL     1      26.501  46.641  54.536  1.00  0.00     0.052 C 
ENDBRANCH   1  19
TORSDOF 6
ENDMDL
MODEL 10
REMARK VINA RESULT:      -8.3      3.453      5.057
REMARK  6 active torsions:
REMARK  status: ('A' for Active; 'I' for Inactive)
REMARK    1  A    between atoms: C_10  and  C_11 
REMARK       I    between atoms: C_11  and  N_12 
REMARK    2  A    between atoms: N_12  and  C_13 
REMARK    3  A    between atoms: C_13  and  C_14 
REMARK    4  A    between atoms: C_14  and  N_15 
REMARK    5  A    between atoms: C_14  and  C_19 
REMARK    6  A    between atoms: C_20  and  O_21 
ROOT
HETATM    1  C   UNL     1      26.676  43.900  52.101  1.00  0.00     0.276 C 
HETATM    2  N   UNL     1      27.434  43.591  50.987  1.00  0.00    -0.353 N 
HETATM    3  O   UNL     1      25.449  43.925  52.046  1.00  0.00    -0.265 OA
HETATM    4  H   UNL     1      28.435  43.732  51.100  1.00  0.00     0.162 HD
ENDROOT
BRANCH   2   5
HETATM    5  C   UNL     1      26.858  43.535  49.658  1.00  0.00     0.161 C 
BRANCH   5   6
HETATM    6  C   UNL     1      26.769  42.122  48.973  1.00  0.00     0.240 C 
BRANCH   6   7
HETATM    7  N   UNL     1      27.355  41.029  49.919  1.00  0.00    -0.069 N 
HETATM    8  H   UNL     1      27.702  41.515  50.754  1.00  0.00     0.279 HD
HETATM    9  C   UNL     1      26.279  40.078  50.395  1.00  0.00     0.270 C 
HETATM   10  C   UNL     1      28.487  40.248  49.313  1.00  0.00     0.270 C 
ENDBRANCH   6   7
BRANCH   6  11
HETATM   11  C   UNL     1      25.345  41.766  48.553  1.00  0.00     0.007 A 
HETATM   12  C   UNL     1      25.124  40.909  47.451  1.00  0.00     0.076 A 
HETATM   13  C   UNL     1      23.820  40.570  47.079  1.00  0.00     0.037 A 
HETATM   14  C   UNL     1      22.732  41.073  47.791  1.00  0.00     0.003 A 
HETATM   15  C   UNL     1      22.936  41.909  48.883  1.00  0.00     0.001 A 
HETATM   16  C   UNL     1      24.233  42.250  49.268  1.00  0.00     0.012 A 
BRANCH  12  17
HETATM   17  O   UNL     1      26.247  40.404  46.849  1.00  0.00    -0.355 OA
HETATM   18  C   UNL     1      26.291  38.994  46.644  1.00  0.00     0.210 C 
ENDBRANCH  12  17
ENDBRANCH   6  11
ENDBRANCH   5   6
ENDBRANCH   2   5
BRANCH   1  19
HETATM   19  C   UNL     1      27.461  44.212  53.276  1.00  0.00     0.150 A 
HETATM   20  O   UNL     1      28.474  43.353  53.616  1.00  0.00    -0.304 OA
HETATM   21  C   UNL     1      29.118  43.888  54.687  1.00  0.00     0.087 A 
HETATM   22  C   UNL     1      30.240  43.344  55.306  1.00  0.00     0.045 A 
HETATM   23  C   UNL     1      28.508  45.070  55.075  1.00  0.00     0.007 A 
HETATM   24  C   UNL     1      30.787  44.053  56.391  1.00  0.00    -0.053 A 
HETATM   25  C   UNL     1      30.172  45.239  56.850  1.00  0.00    -0.055 A 
HETATM   26  C   UNL     1      32.013  43.493  57.067  1.00  0.00     0.049 C 
HETATM   27  C   UNL     1      30.728  46.011  58.019  1.00  0.00     0.049 C 
HETATM   28  C   UNL     1      29.041  45.757  56.181  1.00  0.00     0.022 A 
HETATM   29  C   UNL     1      27.428  45.281  54.161  1.00  0.00    -0.009 A 
HETATM   30  C   UNL     1      26.481  46.425  54.150  1.00  0.00     0.052 C 
ENDBRANCH   1  19
TORSDOF 6
ENDMDL
