MODEL 1
REMARK VINA RESULT:      -9.4      0.000      0.000
REMARK  9 active torsions:
REMARK  status: ('A' for Active; 'I' for Inactive)
REMARK    1  A    between atoms: O_2  and  C_3 
REMARK    2  A    between atoms: C_5  and  O_6 
REMARK    3  A    between atoms: C_9  and  C_10 
REMARK       I    between atoms: C_10  and  N_11 
REMARK    4  A    between atoms: N_11  and  C_12 
REMARK    5  A    between atoms: C_13  and  C_14 
REMARK       I    between atoms: C_14  and  N_15 
REMARK    6  A    between atoms: N_15  and  C_16 
REMARK    7  A    between atoms: C_16  and  C_17 
REMARK    8  A    between atoms: C_17  and  O_18 
REMARK    9  A    between atoms: O_18  and  C_19 
ROOT
HETATM    1  C   UNL     1      24.499  48.745  49.376  1.00  0.00     0.050 A 
HETATM    2  C   UNL     1      25.456  47.876  49.935  1.00  0.00     0.058 A 
HETATM    3  C   UNL     1      26.814  48.008  49.593  1.00  0.00     0.019 A 
HETATM    4  C   UNL     1      27.239  49.025  48.741  1.00  0.00     0.001 A 
HETATM    5  C   UNL     1      26.311  49.929  48.238  1.00  0.00     0.002 A 
HETATM    6  C   UNL     1      24.957  49.794  48.556  1.00  0.00     0.030 A 
ENDROOT
BRANCH   1   7
HETATM    7  N   UNL     1      23.087  48.674  49.526  1.00  0.00    -0.322 N 
HETATM    8  C   UNL     1      22.227  47.986  48.687  1.00  0.00     0.256 C 
HETATM    9  O   UNL     1      22.558  47.343  47.698  1.00  0.00    -0.267 OA
HETATM   10  H   UNL     1      22.668  49.434  50.046  1.00  0.00     0.169 HD
BRANCH   8  11
HETATM   11  C   UNL     1      20.768  48.134  48.967  1.00  0.00     0.037 A 
HETATM   12  C   UNL     1      19.917  47.122  48.492  1.00  0.00     0.054 A 
HETATM   13  C   UNL     1      18.545  47.197  48.709  1.00  0.00     0.071 A 
HETATM   14  C   UNL     1      18.024  48.300  49.388  1.00  0.00     0.073 A 
HETATM   15  C   UNL     1      18.859  49.306  49.883  1.00  0.00     0.071 A 
HETATM   16  C   UNL     1      20.238  49.218  49.683  1.00  0.00     0.054 A 
BRANCH  13  17
HETATM   17  O   UNL     1      17.620  46.277  48.300  1.00  0.00    -0.356 OA
HETATM   18  C   UNL     1      17.985  45.459  47.192  1.00  0.00     0.210 C 
ENDBRANCH  13  17
BRANCH  15  19
HETATM   19  O   UNL     1      18.203  50.308  50.543  1.00  0.00    -0.356 OA
HETATM   20  C   UNL     1      17.443  51.221  49.763  1.00  0.00     0.210 C 
ENDBRANCH  15  19
ENDBRANCH   8  11
ENDBRANCH   1   7
BRANCH   2  21
HETATM   21  C   UNL     1      25.189  46.877  51.001  1.00  0.00     0.253 C 
HETATM   22  N   UNL     1      26.004  46.978  52.109  1.00  0.00    -0.355 N 
HETATM   23  H   UNL     1      26.644  47.757  52.164  1.00  0.00     0.162 HD
HETATM   24  O   UNL     1      24.372  45.983  50.818  1.00  0.00    -0.268 OA
BRANCH  22  25
HETATM   25  C   UNL     1      25.798  46.173  53.299  1.00  0.00     0.149 C 
BRANCH  25  26
HETATM   26  C   UNL     1      26.959  45.247  53.678  1.00  0.00     0.195 C 
BRANCH  26  27
HETATM   27  O   UNL     1      27.757  45.865  54.699  1.00  0.00    -0.350 OA
BRANCH  27  28
HETATM   28  C   UNL     1      28.810  45.087  55.104  1.00  0.00     0.068 A 
HETATM   29  C   UNL     1      28.973  43.871  54.441  1.00  0.00     0.037 A 
HETATM   30  C   UNL     1      30.023  43.018  54.788  1.00  0.00     0.003 A 
HETATM   31  C   UNL     1      30.923  43.390  55.786  1.00  0.00     0.000 A 
HETATM   32  C   UNL     1      30.778  44.617  56.431  1.00  0.00     0.003 A 
HETATM   33  C   UNL     1      29.725  45.469  56.087  1.00  0.00     0.037 A 
ENDBRANCH  27  28
ENDBRANCH  26  27
ENDBRANCH  25  26
ENDBRANCH  22  25
ENDBRANCH   2  21
TORSDOF 9
ENDMDL
MODEL 2
REMARK VINA RESULT:      -9.4      0.265      2.200
REMARK  9 active torsions:
REMARK  status: ('A' for Active; 'I' for Inactive)
REMARK    1  A    between atoms: O_2  and  C_3 
REMARK    2  A    between atoms: C_5  and  O_6 
REMARK    3  A    between atoms: C_9  and  C_10 
REMARK       I    between atoms: C_10  and  N_11 
REMARK    4  A    between atoms: N_11  and  C_12 
REMARK    5  A    between atoms: C_13  and  C_14 
REMARK       I    between atoms: C_14  and  N_15 
REMARK    6  A    between atoms: N_15  and  C_16 
REMARK    7  A    between atoms: C_16  and  C_17 
REMARK    8  A    between atoms: C_17  and  O_18 
REMARK    9  A    between atoms: O_18  and  C_19 
ROOT
HETATM    1  C   UNL     1      24.411  48.637  49.390  1.00  0.00     0.050 A 
HETATM    2  C   UNL     1      25.397  47.812  49.966  1.00  0.00     0.058 A 
HETATM    3  C   UNL     1      26.754  48.010  49.650  1.00  0.00     0.019 A 
HETATM    4  C   UNL     1      27.146  49.048  48.808  1.00  0.00     0.001 A 
HETATM    5  C   UNL     1      26.186  49.908  48.288  1.00  0.00     0.002 A 
HETATM    6  C   UNL     1      24.834  49.708  48.581  1.00  0.00     0.030 A 
ENDROOT
BRANCH   1   7
HETATM    7  N   UNL     1      23.002  48.498  49.513  1.00  0.00    -0.322 N 
HETATM    8  C   UNL     1      22.163  47.967  48.547  1.00  0.00     0.256 C 
HETATM    9  O   UNL     1      22.513  47.542  47.454  1.00  0.00    -0.267 OA
HETATM   10  H   UNL     1      22.561  49.128  50.171  1.00  0.00     0.169 HD
BRANCH   8  11
HETATM   11  C   UNL     1      20.699  48.016  48.842  1.00  0.00     0.037 A 
HETATM   12  C   UNL     1      20.231  49.114  49.582  1.00  0.00     0.054 A 
HETATM   13  C   UNL     1      18.881  49.223  49.901  1.00  0.00     0.071 A 
HETATM   14  C   UNL     1      18.004  48.219  49.492  1.00  0.00     0.073 A 
HETATM   15  C   UNL     1      18.451  47.129  48.739  1.00  0.00     0.071 A 
HETATM   16  C   UNL     1      19.801  47.032  48.401  1.00  0.00     0.054 A 
BRANCH  13  17
HETATM   17  O   UNL     1      18.308  50.242  50.611  1.00  0.00    -0.356 OA
HETATM   18  C   UNL     1      18.207  51.500  49.949  1.00  0.00     0.210 C 
ENDBRANCH  13  17
BRANCH  15  19
HETATM   19  O   UNL     1      17.469  46.241  48.396  1.00  0.00    -0.356 OA
HETATM   20  C   UNL     1      17.518  45.677  47.093  1.00  0.00     0.210 C 
ENDBRANCH  15  19
ENDBRANCH   8  11
ENDBRANCH   1   7
BRANCH   2  21
HETATM   21  C   UNL     1      25.158  46.800  51.025  1.00  0.00     0.253 C 
HETATM   22  N   UNL     1      25.945  46.939  52.150  1.00  0.00    -0.355 N 
HETATM   23  H   UNL     1      26.545  47.747  52.219  1.00  0.00     0.162 HD
HETATM   24  O   UNL     1      24.390  45.867  50.824  1.00  0.00    -0.268 OA
BRANCH  22  25
HETATM   25  C   UNL     1      25.754  46.122  53.335  1.00  0.00     0.149 C 
BRANCH  25  26
HETATM   26  C   UNL     1      26.962  45.277  53.754  1.00  0.00     0.195 C 
BRANCH  26  27
HETATM   27  O   UNL     1      27.692  45.957  54.786  1.00  0.00    -0.350 OA
BRANCH  27  28
HETATM   28  C   UNL     1      28.788  45.257  55.220  1.00  0.00     0.068 A 
HETATM   29  C   UNL     1      29.144  44.135  54.471  1.00  0.00     0.037 A 
HETATM   30  C   UNL     1      30.250  43.368  54.841  1.00  0.00     0.003 A 
HETATM   31  C   UNL     1      31.013  43.732  55.949  1.00  0.00     0.000 A 
HETATM   32  C   UNL     1      30.675  44.868  56.683  1.00  0.00     0.003 A 
HETATM   33  C   UNL     1      29.567  45.635  56.316  1.00  0.00     0.037 A 
ENDBRANCH  27  28
ENDBRANCH  26  27
ENDBRANCH  25  26
ENDBRANCH  22  25
ENDBRANCH   2  21
TORSDOF 9
ENDMDL
MODEL 3
REMARK VINA RESULT:      -9.2      1.145      1.261
REMARK  9 active torsions:
REMARK  status: ('A' for Active; 'I' for Inactive)
REMARK    1  A    between atoms: O_2  and  C_3 
REMARK    2  A    between atoms: C_5  and  O_6 
REMARK    3  A    between atoms: C_9  and  C_10 
REMARK       I    between atoms: C_10  and  N_11 
REMARK    4  A    between atoms: N_11  and  C_12 
REMARK    5  A    between atoms: C_13  and  C_14 
REMARK       I    between atoms: C_14  and  N_15 
REMARK    6  A    between atoms: N_15  and  C_16 
REMARK    7  A    between atoms: C_16  and  C_17 
REMARK    8  A    between atoms: C_17  and  O_18 
REMARK    9  A    between atoms: O_18  and  C_19 
ROOT
HETATM    1  C   UNL     1      24.762  48.899  49.139  1.00  0.00     0.050 A 
HETATM    2  C   UNL     1      25.605  47.979  49.790  1.00  0.00     0.058 A 
HETATM    3  C   UNL     1      27.001  48.065  49.629  1.00  0.00     0.019 A 
HETATM    4  C   UNL     1      27.569  49.084  48.869  1.00  0.00     0.001 A 
HETATM    5  C   UNL     1      26.747  50.037  48.277  1.00  0.00     0.002 A 
HETATM    6  C   UNL     1      25.360  49.948  48.415  1.00  0.00     0.030 A 
ENDROOT
BRANCH   1   7
HETATM    7  N   UNL     1      23.340  48.881  49.104  1.00  0.00    -0.322 N 
HETATM    8  C   UNL     1      22.517  49.908  49.533  1.00  0.00     0.256 C 
HETATM    9  O   UNL     1      22.892  50.975  50.003  1.00  0.00    -0.267 OA
HETATM   10  H   UNL     1      22.919  47.961  49.101  1.00  0.00     0.169 HD
BRANCH   8  11
HETATM   11  C   UNL     1      21.048  49.634  49.508  1.00  0.00     0.037 A 
HETATM   12  C   UNL     1      20.637  48.388  49.006  1.00  0.00     0.054 A 
HETATM   13  C   UNL     1      19.285  48.066  48.944  1.00  0.00     0.071 A 
HETATM   14  C   UNL     1      18.344  49.003  49.370  1.00  0.00     0.073 A 
HETATM   15  C   UNL     1      18.737  50.240  49.890  1.00  0.00     0.071 A 
HETATM   16  C   UNL     1      20.095  50.553  49.971  1.00  0.00     0.054 A 
BRANCH  13  17
HETATM   17  O   UNL     1      18.765  46.889  48.480  1.00  0.00    -0.356 OA
HETATM   18  C   UNL     1      19.655  45.778  48.426  1.00  0.00     0.210 C 
ENDBRANCH  13  17
BRANCH  15  19
HETATM   19  O   UNL     1      17.701  51.040  50.283  1.00  0.00    -0.356 OA
HETATM   20  C   UNL     1      16.777  51.458  49.288  1.00  0.00     0.210 C 
ENDBRANCH  15  19
ENDBRANCH   8  11
ENDBRANCH   1   7
BRANCH   2  21
HETATM   21  C   UNL     1      25.167  46.966  50.783  1.00  0.00     0.253 C 
HETATM   22  N   UNL     1      26.021  46.794  51.854  1.00  0.00    -0.355 N 
HETATM   23  H   UNL     1      26.813  47.413  51.939  1.00  0.00     0.162 HD
HETATM   24  O   UNL     1      24.172  46.283  50.571  1.00  0.00    -0.268 OA
BRANCH  22  25
HETATM   25  C   UNL     1      25.686  45.946  52.983  1.00  0.00     0.149 C 
BRANCH  25  26
HETATM   26  C   UNL     1      26.757  45.851  54.075  1.00  0.00     0.195 C 
BRANCH  26  27
HETATM   27  O   UNL     1      27.447  44.596  53.968  1.00  0.00    -0.350 OA
BRANCH  27  28
HETATM   28  C   UNL     1      28.606  44.555  54.698  1.00  0.00     0.068 A 
HETATM   29  C   UNL     1      29.389  43.410  54.555  1.00  0.00     0.037 A 
HETATM   30  C   UNL     1      30.588  43.288  55.260  1.00  0.00     0.003 A 
HETATM   31  C   UNL     1      31.015  44.320  56.095  1.00  0.00     0.000 A 
HETATM   32  C   UNL     1      30.247  45.477  56.219  1.00  0.00     0.003 A 
HETATM   33  C   UNL     1      29.045  45.598  55.517  1.00  0.00     0.037 A 
ENDBRANCH  27  28
ENDBRANCH  26  27
ENDBRANCH  25  26
ENDBRANCH  22  25
ENDBRANCH   2  21
TORSDOF 9
ENDMDL
MODEL 4
REMARK VINA RESULT:      -9.1      3.010      5.604
REMARK  9 active torsions:
REMARK  status: ('A' for Active; 'I' for Inactive)
REMARK    1  A    between atoms: O_2  and  C_3 
REMARK    2  A    between atoms: C_5  and  O_6 
REMARK    3  A    between atoms: C_9  and  C_10 
REMARK       I    between atoms: C_10  and  N_11 
REMARK    4  A    between atoms: N_11  and  C_12 
REMARK    5  A    between atoms: C_13  and  C_14 
REMARK       I    between atoms: C_14  and  N_15 
REMARK    6  A    between atoms: N_15  and  C_16 
REMARK    7  A    between atoms: C_16  and  C_17 
REMARK    8  A    between atoms: C_17  and  O_18 
REMARK    9  A    between atoms: O_18  and  C_19 
ROOT
HETATM    1  C   UNL     1      26.926  42.676  51.640  1.00  0.00     0.050 A 
HETATM    2  C   UNL     1      27.307  42.711  52.996  1.00  0.00     0.058 A 
HETATM    3  C   UNL     1      28.187  41.739  53.506  1.00  0.00     0.019 A 
HETATM    4  C   UNL     1      28.731  40.762  52.674  1.00  0.00     0.001 A 
HETATM    5  C   UNL     1      28.413  40.761  51.321  1.00  0.00     0.002 A 
HETATM    6  C   UNL     1      27.525  41.710  50.809  1.00  0.00     0.030 A 
ENDROOT
BRANCH   1   7
HETATM    7  N   UNL     1      25.966  43.506  51.000  1.00  0.00    -0.322 N 
HETATM    8  C   UNL     1      26.258  44.534  50.118  1.00  0.00     0.256 C 
HETATM    9  O   UNL     1      27.380  44.873  49.765  1.00  0.00    -0.267 OA
HETATM   10  H   UNL     1      25.075  43.582  51.474  1.00  0.00     0.169 HD
BRANCH   8  11
HETATM   11  C   UNL     1      25.100  45.350  49.646  1.00  0.00     0.037 A 
HETATM   12  C   UNL     1      25.130  46.727  49.924  1.00  0.00     0.054 A 
HETATM   13  C   UNL     1      24.082  47.550  49.523  1.00  0.00     0.071 A 
HETATM   14  C   UNL     1      22.993  46.985  48.858  1.00  0.00     0.073 A 
HETATM   15  C   UNL     1      22.956  45.620  48.557  1.00  0.00     0.071 A 
HETATM   16  C   UNL     1      24.018  44.800  48.942  1.00  0.00     0.054 A 
BRANCH  13  17
HETATM   17  O   UNL     1      24.001  48.898  49.732  1.00  0.00    -0.356 OA
HETATM   18  C   UNL     1      24.161  49.730  48.587  1.00  0.00     0.210 C 
ENDBRANCH  13  17
BRANCH  15  19
HETATM   19  O   UNL     1      21.834  45.222  47.884  1.00  0.00    -0.356 OA
HETATM   20  C   UNL     1      20.588  45.337  48.558  1.00  0.00     0.210 C 
ENDBRANCH  15  19
ENDBRANCH   8  11
ENDBRANCH   1   7
BRANCH   2  21
HETATM   21  C   UNL     1      26.972  43.794  53.954  1.00  0.00     0.253 C 
HETATM   22  N   UNL     1      27.491  45.032  53.636  1.00  0.00    -0.355 N 
HETATM   23  H   UNL     1      27.969  45.140  52.753  1.00  0.00     0.162 HD
HETATM   24  O   UNL     1      26.372  43.537  54.990  1.00  0.00    -0.268 OA
BRANCH  22  25
HETATM   25  C   UNL     1      27.155  46.229  54.385  1.00  0.00     0.149 C 
BRANCH  25  26
HETATM   26  C   UNL     1      27.945  46.438  55.682  1.00  0.00     0.195 C 
BRANCH  26  27
HETATM   27  O   UNL     1      29.352  46.431  55.397  1.00  0.00    -0.350 OA
BRANCH  27  28
HETATM   28  C   UNL     1      30.040  45.482  56.108  1.00  0.00     0.068 A 
HETATM   29  C   UNL     1      30.343  44.300  55.433  1.00  0.00     0.037 A 
HETATM   30  C   UNL     1      31.046  43.282  56.082  1.00  0.00     0.003 A 
HETATM   31  C   UNL     1      31.462  43.453  57.401  1.00  0.00     0.000 A 
HETATM   32  C   UNL     1      31.183  44.645  58.069  1.00  0.00     0.003 A 
HETATM   33  C   UNL     1      30.477  45.662  57.423  1.00  0.00     0.037 A 
ENDBRANCH  27  28
ENDBRANCH  26  27
ENDBRANCH  25  26
ENDBRANCH  22  25
ENDBRANCH   2  21
TORSDOF 9
ENDMDL
MODEL 5
REMARK VINA RESULT:      -8.9      1.794      9.709
REMARK  9 active torsions:
REMARK  status: ('A' for Active; 'I' for Inactive)
REMARK    1  A    between atoms: O_2  and  C_3 
REMARK    2  A    between atoms: C_5  and  O_6 
REMARK    3  A    between atoms: C_9  and  C_10 
REMARK       I    between atoms: C_10  and  N_11 
REMARK    4  A    between atoms: N_11  and  C_12 
REMARK    5  A    between atoms: C_13  and  C_14 
REMARK       I    between atoms: C_14  and  N_15 
REMARK    6  A    between atoms: N_15  and  C_16 
REMARK    7  A    between atoms: C_16  and  C_17 
REMARK    8  A    between atoms: C_17  and  O_18 
REMARK    9  A    between atoms: O_18  and  C_19 
ROOT
HETATM    1  C   UNL     1      25.861  47.940  49.611  1.00  0.00     0.050 A 
HETATM    2  C   UNL     1      24.574  48.205  49.104  1.00  0.00     0.058 A 
HETATM    3  C   UNL     1      24.342  49.364  48.340  1.00  0.00     0.019 A 
HETATM    4  C   UNL     1      25.384  50.235  48.032  1.00  0.00     0.001 A 
HETATM    5  C   UNL     1      26.671  49.946  48.471  1.00  0.00     0.002 A 
HETATM    6  C   UNL     1      26.907  48.808  49.248  1.00  0.00     0.030 A 
ENDROOT
BRANCH   1   7
HETATM    7  N   UNL     1      26.234  46.885  50.489  1.00  0.00    -0.322 N 
HETATM    8  C   UNL     1      25.936  46.826  51.840  1.00  0.00     0.256 C 
HETATM    9  O   UNL     1      25.312  47.669  52.471  1.00  0.00    -0.267 OA
HETATM   10  H   UNL     1      27.038  46.345  50.198  1.00  0.00     0.169 HD
BRANCH   8  11
HETATM   11  C   UNL     1      26.520  45.678  52.597  1.00  0.00     0.037 A 
HETATM   12  C   UNL     1      27.051  45.952  53.869  1.00  0.00     0.054 A 
HETATM   13  C   UNL     1      27.619  44.934  54.628  1.00  0.00     0.071 A 
HETATM   14  C   UNL     1      27.671  43.643  54.102  1.00  0.00     0.073 A 
HETATM   15  C   UNL     1      27.130  43.350  52.845  1.00  0.00     0.071 A 
HETATM   16  C   UNL     1      26.542  44.368  52.094  1.00  0.00     0.054 A 
BRANCH  13  17
HETATM   17  O   UNL     1      28.162  45.076  55.874  1.00  0.00    -0.356 OA
HETATM   18  C   UNL     1      28.434  46.407  56.301  1.00  0.00     0.210 C 
ENDBRANCH  13  17
BRANCH  15  19
HETATM   19  O   UNL     1      27.239  42.037  52.478  1.00  0.00    -0.356 OA
HETATM   20  C   UNL     1      27.868  41.752  51.236  1.00  0.00     0.210 C 
ENDBRANCH  15  19
ENDBRANCH   8  11
ENDBRANCH   1   7
BRANCH   2  21
HETATM   21  C   UNL     1      23.414  47.281  49.178  1.00  0.00     0.253 C 
HETATM   22  N   UNL     1      22.189  47.864  48.928  1.00  0.00    -0.355 N 
HETATM   23  H   UNL     1      22.169  48.827  48.628  1.00  0.00     0.162 HD
HETATM   24  O   UNL     1      23.571  46.123  49.545  1.00  0.00    -0.268 OA
BRANCH  22  25
HETATM   25  C   UNL     1      20.968  47.087  48.826  1.00  0.00     0.149 C 
BRANCH  25  26
HETATM   26  C   UNL     1      19.670  47.862  49.084  1.00  0.00     0.195 C 
BRANCH  26  27
HETATM   27  O   UNL     1      19.906  48.887  50.062  1.00  0.00    -0.350 OA
BRANCH  27  28
HETATM   28  C   UNL     1      19.389  50.104  49.700  1.00  0.00     0.068 A 
HETATM   29  C   UNL     1      20.185  50.894  48.872  1.00  0.00     0.037 A 
HETATM   30  C   UNL     1      19.733  52.147  48.453  1.00  0.00     0.003 A 
HETATM   31  C   UNL     1      18.475  52.603  48.847  1.00  0.00     0.000 A 
HETATM   32  C   UNL     1      17.667  51.802  49.653  1.00  0.00     0.003 A 
HETATM   33  C   UNL     1      18.120  50.551  50.076  1.00  0.00     0.037 A 
ENDBRANCH  27  28
ENDBRANCH  26  27
ENDBRANCH  25  26
ENDBRANCH  22  25
ENDBRANCH   2  21
TORSDOF 9
ENDMDL
MODEL 6
REMARK VINA RESULT:      -8.9      3.984      7.550
REMARK  9 active torsions:
REMARK  status: ('A' for Active; 'I' for Inactive)
REMARK    1  A    between atoms: O_2  and  C_3 
REMARK    2  A    between atoms: C_5  and  O_6 
REMARK    3  A    between atoms: C_9  and  C_10 
REMARK       I    between atoms: C_10  and  N_11 
REMARK    4  A    between atoms: N_11  and  C_12 
REMARK    5  A    between atoms: C_13  and  C_14 
REMARK       I    between atoms: C_14  and  N_15 
REMARK    6  A    between atoms: N_15  and  C_16 
REMARK    7  A    between atoms: C_16  and  C_17 
REMARK    8  A    between atoms: C_17  and  O_18 
REMARK    9  A    between atoms: O_18  and  C_19 
ROOT
HETATM    1  C   UNL     1      28.744  45.163  54.961  1.00  0.00     0.050 A 
HETATM    2  C   UNL     1      29.680  44.111  54.952  1.00  0.00     0.058 A 
HETATM    3  C   UNL     1      30.642  44.014  55.975  1.00  0.00     0.019 A 
HETATM    4  C   UNL     1      30.653  44.922  57.031  1.00  0.00     0.001 A 
HETATM    5  C   UNL     1      29.690  45.923  57.084  1.00  0.00     0.002 A 
HETATM    6  C   UNL     1      28.743  46.039  56.063  1.00  0.00     0.030 A 
ENDROOT
BRANCH   1   7
HETATM    7  N   UNL     1      27.789  45.468  53.953  1.00  0.00    -0.322 N 
HETATM    8  C   UNL     1      26.549  44.866  53.817  1.00  0.00     0.256 C 
HETATM    9  O   UNL     1      26.099  43.989  54.542  1.00  0.00    -0.267 OA
HETATM   10  H   UNL     1      28.168  45.875  53.107  1.00  0.00     0.169 HD
BRANCH   8  11
HETATM   11  C   UNL     1      25.749  45.261  52.619  1.00  0.00     0.037 A 
HETATM   12  C   UNL     1      25.003  44.254  51.984  1.00  0.00     0.054 A 
HETATM   13  C   UNL     1      24.241  44.546  50.858  1.00  0.00     0.071 A 
HETATM   14  C   UNL     1      24.242  45.848  50.357  1.00  0.00     0.073 A 
HETATM   15  C   UNL     1      24.964  46.867  50.988  1.00  0.00     0.071 A 
HETATM   16  C   UNL     1      25.711  46.576  52.130  1.00  0.00     0.054 A 
BRANCH  13  17
HETATM   17  O   UNL     1      23.475  43.655  50.160  1.00  0.00    -0.356 OA
HETATM   18  C   UNL     1      24.127  42.470  49.711  1.00  0.00     0.210 C 
ENDBRANCH  13  17
BRANCH  15  19
HETATM   19  O   UNL     1      24.848  48.091  50.391  1.00  0.00    -0.356 OA
HETATM   20  C   UNL     1      23.738  48.299  49.528  1.00  0.00     0.210 C 
ENDBRANCH  15  19
ENDBRANCH   8  11
ENDBRANCH   1   7
BRANCH   2  21
HETATM   21  C   UNL     1      29.672  42.963  54.011  1.00  0.00     0.253 C 
HETATM   22  N   UNL     1      28.578  42.130  54.119  1.00  0.00    -0.355 N 
HETATM   23  H   UNL     1      27.832  42.397  54.744  1.00  0.00     0.162 HD
HETATM   24  O   UNL     1      30.639  42.752  53.288  1.00  0.00    -0.268 OA
BRANCH  22  25
HETATM   25  C   UNL     1      28.340  41.039  53.192  1.00  0.00     0.149 C 
BRANCH  25  26
HETATM   26  C   UNL     1      27.574  41.412  51.918  1.00  0.00     0.195 C 
BRANCH  26  27
HETATM   27  O   UNL     1      28.365  41.084  50.765  1.00  0.00    -0.350 OA
BRANCH  27  28
HETATM   28  C   UNL     1      28.191  39.791  50.344  1.00  0.00     0.068 A 
HETATM   29  C   UNL     1      26.935  39.469  49.832  1.00  0.00     0.037 A 
HETATM   30  C   UNL     1      26.673  38.176  49.376  1.00  0.00     0.003 A 
HETATM   31  C   UNL     1      27.674  37.206  49.416  1.00  0.00     0.000 A 
HETATM   32  C   UNL     1      28.939  37.532  49.903  1.00  0.00     0.003 A 
HETATM   33  C   UNL     1      29.201  38.825  50.362  1.00  0.00     0.037 A 
ENDBRANCH  27  28
ENDBRANCH  26  27
ENDBRANCH  25  26
ENDBRANCH  22  25
ENDBRANCH   2  21
TORSDOF 9
ENDMDL
MODEL 7
REMARK VINA RESULT:      -8.9      3.067      5.233
REMARK  9 active torsions:
REMARK  status: ('A' for Active; 'I' for Inactive)
REMARK    1  A    between atoms: O_2  and  C_3 
REMARK    2  A    between atoms: C_5  and  O_6 
REMARK    3  A    between atoms: C_9  and  C_10 
REMARK       I    between atoms: C_10  and  N_11 
REMARK    4  A    between atoms: N_11  and  C_12 
REMARK    5  A    between atoms: C_13  and  C_14 
REMARK       I    between atoms: C_14  and  N_15 
REMARK    6  A    between atoms: N_15  and  C_16 
REMARK    7  A    between atoms: C_16  and  C_17 
REMARK    8  A    between atoms: C_17  and  O_18 
REMARK    9  A    between atoms: O_18  and  C_19 
ROOT
HETATM    1  C   UNL     1      26.852  42.828  51.594  1.00  0.00     0.050 A 
HETATM    2  C   UNL     1      27.277  42.827  52.937  1.00  0.00     0.058 A 
HETATM    3  C   UNL     1      28.134  41.814  53.405  1.00  0.00     0.019 A 
HETATM    4  C   UNL     1      28.613  40.831  52.542  1.00  0.00     0.001 A 
HETATM    5  C   UNL     1      28.253  40.862  51.200  1.00  0.00     0.002 A 
HETATM    6  C   UNL     1      27.387  41.853  50.730  1.00  0.00     0.030 A 
ENDROOT
BRANCH   1   7
HETATM    7  N   UNL     1      25.905  43.704  50.996  1.00  0.00    -0.322 N 
HETATM    8  C   UNL     1      26.207  44.718  50.103  1.00  0.00     0.256 C 
HETATM    9  O   UNL     1      27.327  45.005  49.701  1.00  0.00    -0.267 OA
HETATM   10  H   UNL     1      25.041  43.821  51.509  1.00  0.00     0.169 HD
BRANCH   8  11
HETATM   11  C   UNL     1      25.069  45.590  49.683  1.00  0.00     0.037 A 
HETATM   12  C   UNL     1      24.048  44.992  48.925  1.00  0.00     0.054 A 
HETATM   13  C   UNL     1      22.961  45.744  48.491  1.00  0.00     0.071 A 
HETATM   14  C   UNL     1      22.908  47.102  48.802  1.00  0.00     0.073 A 
HETATM   15  C   UNL     1      23.907  47.709  49.571  1.00  0.00     0.071 A 
HETATM   16  C   UNL     1      24.986  46.948  50.024  1.00  0.00     0.054 A 
BRANCH  13  17
HETATM   17  O   UNL     1      21.910  45.275  47.754  1.00  0.00    -0.356 OA
HETATM   18  C   UNL     1      22.230  44.414  46.664  1.00  0.00     0.210 C 
ENDBRANCH  13  17
BRANCH  15  19
HETATM   19  O   UNL     1      23.703  49.040  49.809  1.00  0.00    -0.356 OA
HETATM   20  C   UNL     1      22.504  49.620  49.314  1.00  0.00     0.210 C 
ENDBRANCH  15  19
ENDBRANCH   8  11
ENDBRANCH   1   7
BRANCH   2  21
HETATM   21  C   UNL     1      27.015  43.907  53.920  1.00  0.00     0.253 C 
HETATM   22  N   UNL     1      27.490  45.151  53.559  1.00  0.00    -0.355 N 
HETATM   23  H   UNL     1      27.888  45.263  52.639  1.00  0.00     0.162 HD
HETATM   24  O   UNL     1      26.508  43.644  55.005  1.00  0.00    -0.268 OA
BRANCH  22  25
HETATM   25  C   UNL     1      27.207  46.344  54.335  1.00  0.00     0.149 C 
BRANCH  25  26
HETATM   26  C   UNL     1      28.401  46.936  55.092  1.00  0.00     0.195 C 
BRANCH  26  27
HETATM   27  O   UNL     1      28.400  46.458  56.445  1.00  0.00    -0.350 OA
BRANCH  27  28
HETATM   28  C   UNL     1      29.464  45.641  56.728  1.00  0.00     0.068 A 
HETATM   29  C   UNL     1      29.978  45.718  58.022  1.00  0.00     0.037 A 
HETATM   30  C   UNL     1      31.060  44.917  58.395  1.00  0.00     0.003 A 
HETATM   31  C   UNL     1      31.616  44.025  57.480  1.00  0.00     0.000 A 
HETATM   32  C   UNL     1      31.086  43.927  56.194  1.00  0.00     0.003 A 
HETATM   33  C   UNL     1      30.007  44.730  55.818  1.00  0.00     0.037 A 
ENDBRANCH  27  28
ENDBRANCH  26  27
ENDBRANCH  25  26
ENDBRANCH  22  25
ENDBRANCH   2  21
TORSDOF 9
ENDMDL
MODEL 8
REMARK VINA RESULT:      -8.8      3.815      9.768
REMARK  9 active torsions:
REMARK  status: ('A' for Active; 'I' for Inactive)
REMARK    1  A    between atoms: O_2  and  C_3 
REMARK    2  A    between atoms: C_5  and  O_6 
REMARK    3  A    between atoms: C_9  and  C_10 
REMARK       I    between atoms: C_10  and  N_11 
REMARK    4  A    between atoms: N_11  and  C_12 
REMARK    5  A    between atoms: C_13  and  C_14 
REMARK       I    between atoms: C_14  and  N_15 
REMARK    6  A    between atoms: N_15  and  C_16 
REMARK    7  A    between atoms: C_16  and  C_17 
REMARK    8  A    between atoms: C_17  and  O_18 
REMARK    9  A    between atoms: O_18  and  C_19 
ROOT
HETATM    1  C   UNL     1      27.602  41.905  51.275  1.00  0.00     0.050 A 
HETATM    2  C   UNL     1      26.430  42.063  50.510  1.00  0.00     0.058 A 
HETATM    3  C   UNL     1      26.100  41.117  49.522  1.00  0.00     0.019 A 
HETATM    4  C   UNL     1      26.894  39.991  49.321  1.00  0.00     0.001 A 
HETATM    5  C   UNL     1      28.016  39.792  50.117  1.00  0.00     0.002 A 
HETATM    6  C   UNL     1      28.363  40.736  51.087  1.00  0.00     0.030 A 
ENDROOT
BRANCH   1   7
HETATM    7  N   UNL     1      28.134  42.821  52.223  1.00  0.00    -0.322 N 
HETATM    8  C   UNL     1      27.889  42.795  53.586  1.00  0.00     0.256 C 
HETATM    9  O   UNL     1      27.182  41.982  54.168  1.00  0.00    -0.267 OA
HETATM   10  H   UNL     1      28.406  43.722  51.850  1.00  0.00     0.169 HD
BRANCH   8  11
HETATM   11  C   UNL     1      28.463  43.919  54.384  1.00  0.00     0.037 A 
HETATM   12  C   UNL     1      29.683  43.683  55.040  1.00  0.00     0.054 A 
HETATM   13  C   UNL     1      30.274  44.682  55.808  1.00  0.00     0.071 A 
HETATM   14  C   UNL     1      29.629  45.912  55.933  1.00  0.00     0.073 A 
HETATM   15  C   UNL     1      28.424  46.170  55.272  1.00  0.00     0.071 A 
HETATM   16  C   UNL     1      27.844  45.174  54.484  1.00  0.00     0.054 A 
BRANCH  13  17
HETATM   17  O   UNL     1      31.455  44.572  56.488  1.00  0.00    -0.356 OA
HETATM   18  C   UNL     1      31.733  43.307  57.081  1.00  0.00     0.210 C 
ENDBRANCH  13  17
BRANCH  15  19
HETATM   19  O   UNL     1      27.928  47.427  55.476  1.00  0.00    -0.356 OA
HETATM   20  C   UNL     1      26.676  47.744  54.883  1.00  0.00     0.210 C 
ENDBRANCH  15  19
ENDBRANCH   8  11
ENDBRANCH   1   7
BRANCH   2  21
HETATM   21  C   UNL     1      25.388  43.095  50.739  1.00  0.00     0.253 C 
HETATM   22  N   UNL     1      25.292  44.054  49.751  1.00  0.00    -0.355 N 
HETATM   23  H   UNL     1      25.852  43.942  48.919  1.00  0.00     0.162 HD
HETATM   24  O   UNL     1      24.761  43.117  51.791  1.00  0.00    -0.268 OA
BRANCH  22  25
HETATM   25  C   UNL     1      24.243  45.057  49.744  1.00  0.00     0.149 C 
BRANCH  25  26
HETATM   26  C   UNL     1      24.513  46.298  50.601  1.00  0.00     0.195 C 
BRANCH  26  27
HETATM   27  O   UNL     1      24.044  47.470  49.917  1.00  0.00    -0.350 OA
BRANCH  27  28
HETATM   28  C   UNL     1      25.059  48.258  49.442  1.00  0.00     0.068 A 
HETATM   29  C   UNL     1      24.689  49.309  48.604  1.00  0.00     0.037 A 
HETATM   30  C   UNL     1      25.660  50.163  48.078  1.00  0.00     0.003 A 
HETATM   31  C   UNL     1      27.002  49.979  48.406  1.00  0.00     0.000 A 
HETATM   32  C   UNL     1      27.373  48.945  49.265  1.00  0.00     0.003 A 
HETATM   33  C   UNL     1      26.402  48.088  49.788  1.00  0.00     0.037 A 
ENDBRANCH  27  28
ENDBRANCH  26  27
ENDBRANCH  25  26
ENDBRANCH  22  25
ENDBRANCH   2  21
TORSDOF 9
ENDMDL
MODEL 9
REMARK VINA RESULT:      -8.6      3.877      9.243
REMARK  9 active torsions:
REMARK  status: ('A' for Active; 'I' for Inactive)
REMARK    1  A    between atoms: O_2  and  C_3 
REMARK    2  A    between atoms: C_5  and  O_6 
REMARK    3  A    between atoms: C_9  and  C_10 
REMARK       I    between atoms: C_10  and  N_11 
REMARK    4  A    between atoms: N_11  and  C_12 
REMARK    5  A    between atoms: C_13  and  C_14 
REMARK       I    between atoms: C_14  and  N_15 
REMARK    6  A    between atoms: N_15  and  C_16 
REMARK    7  A    between atoms: C_16  and  C_17 
REMARK    8  A    between atoms: C_17  and  O_18 
REMARK    9  A    between atoms: O_18  and  C_19 
ROOT
HETATM    1  C   UNL     1      28.975  43.482  54.248  1.00  0.00     0.050 A 
HETATM    2  C   UNL     1      28.249  44.545  54.820  1.00  0.00     0.058 A 
HETATM    3  C   UNL     1      28.811  45.300  55.867  1.00  0.00     0.019 A 
HETATM    4  C   UNL     1      30.104  45.042  56.317  1.00  0.00     0.001 A 
HETATM    5  C   UNL     1      30.852  44.038  55.713  1.00  0.00     0.002 A 
HETATM    6  C   UNL     1      30.296  43.271  54.686  1.00  0.00     0.030 A 
ENDROOT
BRANCH   1   7
HETATM    7  N   UNL     1      28.511  42.558  53.271  1.00  0.00    -0.322 N 
HETATM    8  C   UNL     1      28.239  42.863  51.948  1.00  0.00     0.256 C 
HETATM    9  O   UNL     1      28.357  43.966  51.431  1.00  0.00    -0.267 OA
HETATM   10  H   UNL     1      28.030  41.747  53.637  1.00  0.00     0.169 HD
BRANCH   8  11
HETATM   11  C   UNL     1      27.657  41.762  51.122  1.00  0.00     0.037 A 
HETATM   12  C   UNL     1      26.396  41.991  50.546  1.00  0.00     0.054 A 
HETATM   13  C   UNL     1      25.788  41.008  49.771  1.00  0.00     0.071 A 
HETATM   14  C   UNL     1      26.439  39.788  49.589  1.00  0.00     0.073 A 
HETATM   15  C   UNL     1      27.702  39.551  50.141  1.00  0.00     0.071 A 
HETATM   16  C   UNL     1      28.320  40.546  50.900  1.00  0.00     0.054 A 
BRANCH  13  17
HETATM   17  O   UNL     1      24.571  41.115  49.158  1.00  0.00    -0.356 OA
HETATM   18  C   UNL     1      24.565  41.667  47.845  1.00  0.00     0.210 C 
ENDBRANCH  13  17
BRANCH  15  19
HETATM   19  O   UNL     1      28.218  38.317  49.857  1.00  0.00    -0.356 OA
HETATM   20  C   UNL     1      27.300  37.252  49.652  1.00  0.00     0.210 C 
ENDBRANCH  15  19
ENDBRANCH   8  11
ENDBRANCH   1   7
BRANCH   2  21
HETATM   21  C   UNL     1      26.952  45.066  54.321  1.00  0.00     0.253 C 
HETATM   22  N   UNL     1      27.049  46.126  53.444  1.00  0.00    -0.355 N 
HETATM   23  H   UNL     1      27.967  46.410  53.135  1.00  0.00     0.162 HD
HETATM   24  O   UNL     1      25.898  44.627  54.767  1.00  0.00    -0.268 OA
BRANCH  22  25
HETATM   25  C   UNL     1      25.893  46.672  52.756  1.00  0.00     0.149 C 
BRANCH  25  26
HETATM   26  C   UNL     1      25.729  46.236  51.296  1.00  0.00     0.195 C 
BRANCH  26  27
HETATM   27  O   UNL     1      24.775  47.087  50.643  1.00  0.00    -0.350 OA
BRANCH  27  28
HETATM   28  C   UNL     1      25.357  48.017  49.822  1.00  0.00     0.068 A 
HETATM   29  C   UNL     1      24.490  48.845  49.109  1.00  0.00     0.037 A 
HETATM   30  C   UNL     1      25.000  49.824  48.253  1.00  0.00     0.003 A 
HETATM   31  C   UNL     1      26.378  49.988  48.123  1.00  0.00     0.000 A 
HETATM   32  C   UNL     1      27.247  49.179  48.855  1.00  0.00     0.003 A 
HETATM   33  C   UNL     1      26.738  48.197  49.708  1.00  0.00     0.037 A 
ENDBRANCH  27  28
ENDBRANCH  26  27
ENDBRANCH  25  26
ENDBRANCH  22  25
ENDBRANCH   2  21
TORSDOF 9
ENDMDL
MODEL 10
REMARK VINA RESULT:      -8.5      1.848      9.411
REMARK  9 active torsions:
REMARK  status: ('A' for Active; 'I' for Inactive)
REMARK    1  A    between atoms: O_2  and  C_3 
REMARK    2  A    between atoms: C_5  and  O_6 
REMARK    3  A    between atoms: C_9  and  C_10 
REMARK       I    between atoms: C_10  and  N_11 
REMARK    4  A    between atoms: N_11  and  C_12 
REMARK    5  A    between atoms: C_13  and  C_14 
REMARK       I    between atoms: C_14  and  N_15 
REMARK    6  A    between atoms: N_15  and  C_16 
REMARK    7  A    between atoms: C_16  and  C_17 
REMARK    8  A    between atoms: C_17  and  O_18 
REMARK    9  A    between atoms: O_18  and  C_19 
ROOT
HETATM    1  C   UNL     1      25.836  47.928  49.674  1.00  0.00     0.050 A 
HETATM    2  C   UNL     1      24.535  48.102  49.161  1.00  0.00     0.058 A 
HETATM    3  C   UNL     1      24.231  49.230  48.378  1.00  0.00     0.019 A 
HETATM    4  C   UNL     1      25.216  50.162  48.058  1.00  0.00     0.001 A 
HETATM    5  C   UNL     1      26.517  49.964  48.504  1.00  0.00     0.002 A 
HETATM    6  C   UNL     1      26.825  48.857  49.298  1.00  0.00     0.030 A 
ENDROOT
BRANCH   1   7
HETATM    7  N   UNL     1      26.274  46.913  50.568  1.00  0.00    -0.322 N 
HETATM    8  C   UNL     1      26.006  46.874  51.926  1.00  0.00     0.256 C 
HETATM    9  O   UNL     1      25.357  47.704  52.550  1.00  0.00    -0.267 OA
HETATM   10  H   UNL     1      27.097  46.403  50.274  1.00  0.00     0.169 HD
BRANCH   8  11
HETATM   11  C   UNL     1      26.657  45.773  52.698  1.00  0.00     0.037 A 
HETATM   12  C   UNL     1      26.568  44.476  52.165  1.00  0.00     0.054 A 
HETATM   13  C   UNL     1      27.143  43.400  52.832  1.00  0.00     0.071 A 
HETATM   14  C   UNL     1      27.793  43.623  54.046  1.00  0.00     0.073 A 
HETATM   15  C   UNL     1      27.907  44.910  54.582  1.00  0.00     0.071 A 
HETATM   16  C   UNL     1      27.348  45.992  53.899  1.00  0.00     0.054 A 
BRANCH  13  17
HETATM   17  O   UNL     1      27.125  42.099  52.413  1.00  0.00    -0.356 OA
HETATM   18  C   UNL     1      26.602  41.857  51.110  1.00  0.00     0.210 C 
ENDBRANCH  13  17
BRANCH  15  19
HETATM   19  O   UNL     1      28.589  44.969  55.765  1.00  0.00    -0.356 OA
HETATM   20  C   UNL     1      28.482  46.164  56.527  1.00  0.00     0.210 C 
ENDBRANCH  15  19
ENDBRANCH   8  11
ENDBRANCH   1   7
BRANCH   2  21
HETATM   21  C   UNL     1      23.438  47.105  49.247  1.00  0.00     0.253 C 
HETATM   22  N   UNL     1      22.184  47.595  48.947  1.00  0.00    -0.355 N 
HETATM   23  H   UNL     1      22.107  48.542  48.608  1.00  0.00     0.162 HD
HETATM   24  O   UNL     1      23.663  45.975  49.664  1.00  0.00    -0.268 OA
BRANCH  22  25
HETATM   25  C   UNL     1      21.019  46.734  48.851  1.00  0.00     0.149 C 
BRANCH  25  26
HETATM   26  C   UNL     1      19.713  47.434  48.460  1.00  0.00     0.195 C 
BRANCH  26  27
HETATM   27  O   UNL     1      19.240  48.225  49.562  1.00  0.00    -0.350 OA
BRANCH  27  28
HETATM   28  C   UNL     1      19.199  49.566  49.282  1.00  0.00     0.068 A 
HETATM   29  C   UNL     1      19.436  49.931  47.957  1.00  0.00     0.037 A 
HETATM   30  C   UNL     1      19.408  51.277  47.585  1.00  0.00     0.003 A 
HETATM   31  C   UNL     1      19.124  52.258  48.534  1.00  0.00     0.000 A 
HETATM   32  C   UNL     1      18.861  51.893  49.854  1.00  0.00     0.003 A 
HETATM   33  C   UNL     1      18.892  50.548  50.228  1.00  0.00     0.037 A 
ENDBRANCH  27  28
ENDBRANCH  26  27
ENDBRANCH  25  26
ENDBRANCH  22  25
ENDBRANCH   2  21
TORSDOF 9
ENDMDL
