MODEL 1
REMARK VINA RESULT:      -8.6      0.000      0.000
REMARK  2 active torsions:
REMARK  status: ('A' for Active; 'I' for Inactive)
REMARK    1  A    between atoms: C_2  and  C_3 
REMARK    2  A    between atoms: C_6  and  C_7 
ROOT
HETATM    1  C   UNL     1      25.980  45.610  51.513  1.00  0.00     0.197 C 
HETATM    2  N   UNL     1      26.560  46.029  52.809  1.00  0.00    -0.345 N 
HETATM    3  C   UNL     1      27.310  45.173  53.502  1.00  0.00     0.113 C 
HETATM    4  N   UNL     1      27.848  45.520  54.663  1.00  0.00    -0.376 N 
HETATM    5  H   UNL     1      28.463  44.857  55.119  1.00  0.00     0.161 HD
HETATM    6  C   UNL     1      27.559  43.822  52.969  1.00  0.00     0.029 A 
HETATM    7  C   UNL     1      27.374  43.664  51.590  1.00  0.00     0.025 A 
HETATM    8  N   UNL     1      26.965  44.777  50.847  1.00  0.00    -0.267 NA
HETATM    9  C   UNL     1      27.975  42.724  53.738  1.00  0.00     0.019 A 
HETATM   10  C   UNL     1      28.263  41.504  53.121  1.00  0.00     0.025 A 
HETATM   11  C   UNL     1      28.149  41.382  51.739  1.00  0.00     0.035 A 
HETATM   12 CL   UNL     1      28.535  39.890  50.978  1.00  0.00    -0.084 Cl
HETATM   13  C   UNL     1      27.718  42.461  50.970  1.00  0.00     0.048 A 
HETATM   14  C   UNL     1      26.243  47.364  53.346  1.00  0.00     0.128 C 
HETATM   15  C   UNL     1      26.311  47.365  54.858  1.00  0.00     0.039 C 
HETATM   16  C   UNL     1      27.664  46.840  55.259  1.00  0.00     0.123 C 
HETATM   17  H   UNL     1      26.654  44.524  49.910  1.00  0.00     0.130 HD
ENDROOT
BRANCH   1  18
HETATM   18  C   UNL     1      25.655  46.782  50.607  1.00  0.00    -0.021 A 
HETATM   19  C   UNL     1      26.670  47.586  50.057  1.00  0.00     0.011 A 
HETATM   20  C   UNL     1      26.355  48.669  49.233  1.00  0.00     0.007 A 
HETATM   21  C   UNL     1      25.021  48.971  48.936  1.00  0.00    -0.059 A 
HETATM   22  C   UNL     1      24.007  48.167  49.470  1.00  0.00     0.007 A 
HETATM   23  C   UNL     1      24.319  47.085  50.297  1.00  0.00     0.011 A 
BRANCH  21  24
HETATM   24  C   UNL     1      24.684  50.124  48.023  1.00  0.00     0.034 C 
HETATM   25  C   UNL     1      23.367  50.781  48.404  1.00  0.00     0.010 C 
ENDBRANCH  21  24
ENDBRANCH   1  18
TORSDOF 2
ENDMDL
MODEL 2
REMARK VINA RESULT:      -8.5      2.334      3.882
REMARK  2 active torsions:
REMARK  status: ('A' for Active; 'I' for Inactive)
REMARK    1  A    between atoms: C_2  and  C_3 
REMARK    2  A    between atoms: C_6  and  C_7 
ROOT
HETATM    1  C   UNL     1      26.298  46.571  50.946  1.00  0.00     0.197 C 
HETATM    2  N   UNL     1      25.777  45.199  50.762  1.00  0.00    -0.345 N 
HETATM    3  C   UNL     1      25.979  44.285  51.710  1.00  0.00     0.113 C 
HETATM    4  N   UNL     1      25.520  43.048  51.576  1.00  0.00    -0.376 N 
HETATM    5  H   UNL     1      25.642  42.410  52.353  1.00  0.00     0.161 HD
HETATM    6  C   UNL     1      26.713  44.652  52.934  1.00  0.00     0.029 A 
HETATM    7  C   UNL     1      26.767  46.020  53.229  1.00  0.00     0.025 A 
HETATM    8  N   UNL     1      26.141  46.910  52.349  1.00  0.00    -0.267 NA
HETATM    9  C   UNL     1      27.327  43.736  53.802  1.00  0.00     0.019 A 
HETATM   10  C   UNL     1      27.929  44.181  54.981  1.00  0.00     0.025 A 
HETATM   11  C   UNL     1      27.908  45.537  55.301  1.00  0.00     0.035 A 
HETATM   12 CL   UNL     1      28.620  46.079  56.768  1.00  0.00    -0.084 Cl
HETATM   13  C   UNL     1      27.318  46.456  54.436  1.00  0.00     0.048 A 
HETATM   14  C   UNL     1      25.101  44.844  49.500  1.00  0.00     0.128 C 
HETATM   15  C   UNL     1      25.258  43.369  49.204  1.00  0.00     0.039 C 
HETATM   16  C   UNL     1      24.772  42.602  50.405  1.00  0.00     0.123 C 
HETATM   17  H   UNL     1      26.407  47.878  52.523  1.00  0.00     0.130 HD
ENDROOT
BRANCH   1  18
HETATM   18  C   UNL     1      25.550  47.601  50.120  1.00  0.00    -0.021 A 
HETATM   19  C   UNL     1      24.145  47.672  50.136  1.00  0.00     0.011 A 
HETATM   20  C   UNL     1      23.470  48.619  49.362  1.00  0.00     0.007 A 
HETATM   21  C   UNL     1      24.181  49.517  48.558  1.00  0.00    -0.059 A 
HETATM   22  C   UNL     1      25.579  49.459  48.547  1.00  0.00     0.007 A 
HETATM   23  C   UNL     1      26.258  48.512  49.318  1.00  0.00     0.011 A 
BRANCH  21  24
HETATM   24  C   UNL     1      23.450  50.557  47.745  1.00  0.00     0.034 C 
HETATM   25  C   UNL     1      22.160  50.999  48.419  1.00  0.00     0.010 C 
ENDBRANCH  21  24
ENDBRANCH   1  18
TORSDOF 2
ENDMDL
MODEL 3
REMARK VINA RESULT:      -8.2      3.082      4.852
REMARK  2 active torsions:
REMARK  status: ('A' for Active; 'I' for Inactive)
REMARK    1  A    between atoms: C_2  and  C_3 
REMARK    2  A    between atoms: C_6  and  C_7 
ROOT
HETATM    1  C   UNL     1      27.333  44.041  51.483  1.00  0.00     0.197 C 
HETATM    2  N   UNL     1      27.784  42.635  51.386  1.00  0.00    -0.345 N 
HETATM    3  C   UNL     1      28.639  42.155  52.289  1.00  0.00     0.113 C 
HETATM    4  N   UNL     1      29.058  40.898  52.232  1.00  0.00    -0.376 N 
HETATM    5  H   UNL     1      29.655  40.563  52.978  1.00  0.00     0.161 HD
HETATM    6  C   UNL     1      29.121  43.026  53.374  1.00  0.00     0.029 A 
HETATM    7  C   UNL     1      28.332  44.147  53.657  1.00  0.00     0.025 A 
HETATM    8  N   UNL     1      27.177  44.351  52.893  1.00  0.00    -0.267 NA
HETATM    9  C   UNL     1      30.281  42.793  54.130  1.00  0.00     0.019 A 
HETATM   10  C   UNL     1      30.607  43.638  55.194  1.00  0.00     0.025 A 
HETATM   11  C   UNL     1      29.771  44.705  55.512  1.00  0.00     0.035 A 
HETATM   12 CL   UNL     1      30.156  45.723  56.842  1.00  0.00    -0.084 Cl
HETATM   13  C   UNL     1      28.628  44.955  54.757  1.00  0.00     0.048 A 
HETATM   14  C   UNL     1      27.334  41.806  50.254  1.00  0.00     0.128 C 
HETATM   15  C   UNL     1      28.352  40.734  49.935  1.00  0.00     0.039 C 
HETATM   16  C   UNL     1      28.622  39.963  51.200  1.00  0.00     0.123 C 
HETATM   17  H   UNL     1      26.788  45.284  53.020  1.00  0.00     0.130 HD
ENDROOT
BRANCH   1  18
HETATM   18  C   UNL     1      26.005  44.282  50.791  1.00  0.00    -0.021 A 
HETATM   19  C   UNL     1      24.803  43.771  51.315  1.00  0.00     0.011 A 
HETATM   20  C   UNL     1      23.588  43.992  50.662  1.00  0.00     0.007 A 
HETATM   21  C   UNL     1      23.545  44.730  49.474  1.00  0.00    -0.059 A 
HETATM   22  C   UNL     1      24.735  45.252  48.954  1.00  0.00     0.007 A 
HETATM   23  C   UNL     1      25.952  45.031  49.603  1.00  0.00     0.011 A 
BRANCH  21  24
HETATM   24  C   UNL     1      22.228  44.992  48.785  1.00  0.00     0.034 C 
HETATM   25  C   UNL     1      22.233  46.318  48.039  1.00  0.00     0.010 C 
ENDBRANCH  21  24
ENDBRANCH   1  18
TORSDOF 2
ENDMDL
MODEL 4
REMARK VINA RESULT:      -8.1      9.791     14.204
REMARK  2 active torsions:
REMARK  status: ('A' for Active; 'I' for Inactive)
REMARK    1  A    between atoms: C_2  and  C_3 
REMARK    2  A    between atoms: C_6  and  C_7 
ROOT
HETATM    1  C   UNL     1      16.440  52.123  49.568  1.00  0.00     0.197 C 
HETATM    2  N   UNL     1      15.899  52.494  48.242  1.00  0.00    -0.345 N 
HETATM    3  C   UNL     1      14.897  53.369  48.161  1.00  0.00     0.113 C 
HETATM    4  N   UNL     1      14.394  53.725  46.987  1.00  0.00    -0.376 N 
HETATM    5  H   UNL     1      13.678  54.442  46.975  1.00  0.00     0.161 HD
HETATM    6  C   UNL     1      14.343  53.961  49.391  1.00  0.00     0.029 A 
HETATM    7  C   UNL     1      15.172  53.919  50.519  1.00  0.00     0.025 A 
HETATM    8  N   UNL     1      16.431  53.320  50.391  1.00  0.00    -0.267 NA
HETATM    9  C   UNL     1      13.079  54.562  49.489  1.00  0.00     0.019 A 
HETATM   10  C   UNL     1      12.680  55.168  50.683  1.00  0.00     0.025 A 
HETATM   11  C   UNL     1      13.546  55.187  51.774  1.00  0.00     0.035 A 
HETATM   12 CL   UNL     1      13.067  55.962  53.231  1.00  0.00    -0.084 Cl
HETATM   13  C   UNL     1      14.795  54.576  51.692  1.00  0.00     0.048 A 
HETATM   14  C   UNL     1      16.431  51.838  47.033  1.00  0.00     0.128 C 
HETATM   15  C   UNL     1      15.384  51.793  45.942  1.00  0.00     0.039 C 
HETATM   16  C   UNL     1      14.889  53.199  45.719  1.00  0.00     0.123 C 
HETATM   17  H   UNL     1      16.871  53.145  51.293  1.00  0.00     0.130 HD
ENDROOT
BRANCH   1  18
HETATM   18  C   UNL     1      17.864  51.603  49.499  1.00  0.00    -0.021 A 
HETATM   19  C   UNL     1      18.228  50.384  50.102  1.00  0.00     0.011 A 
HETATM   20  C   UNL     1      19.545  49.923  50.039  1.00  0.00     0.007 A 
HETATM   21  C   UNL     1      20.526  50.664  49.373  1.00  0.00    -0.059 A 
HETATM   22  C   UNL     1      20.168  51.872  48.761  1.00  0.00     0.007 A 
HETATM   23  C   UNL     1      18.852  52.338  48.824  1.00  0.00     0.011 A 
BRANCH  21  24
HETATM   24  C   UNL     1      21.942  50.150  49.282  1.00  0.00     0.034 C 
HETATM   25  C   UNL     1      22.835  51.089  48.485  1.00  0.00     0.010 C 
ENDBRANCH  21  24
ENDBRANCH   1  18
TORSDOF 2
ENDMDL
MODEL 5
REMARK VINA RESULT:      -8.0      3.023      6.309
REMARK  2 active torsions:
REMARK  status: ('A' for Active; 'I' for Inactive)
REMARK    1  A    between atoms: C_2  and  C_3 
REMARK    2  A    between atoms: C_6  and  C_7 
ROOT
HETATM    1  C   UNL     1      28.610  43.305  52.429  1.00  0.00     0.197 C 
HETATM    2  N   UNL     1      27.245  43.844  52.242  1.00  0.00    -0.345 N 
HETATM    3  C   UNL     1      26.412  43.246  51.391  1.00  0.00     0.113 C 
HETATM    4  N   UNL     1      25.181  43.702  51.205  1.00  0.00    -0.376 N 
HETATM    5  H   UNL     1      24.566  43.174  50.597  1.00  0.00     0.161 HD
HETATM    6  C   UNL     1      26.857  42.053  50.650  1.00  0.00     0.029 A 
HETATM    7  C   UNL     1      27.945  41.362  51.198  1.00  0.00     0.025 A 
HETATM    8  N   UNL     1      28.516  41.858  52.376  1.00  0.00    -0.267 NA
HETATM    9  C   UNL     1      26.261  41.574  49.474  1.00  0.00     0.019 A 
HETATM   10  C   UNL     1      26.708  40.385  48.893  1.00  0.00     0.025 A 
HETATM   11  C   UNL     1      27.740  39.667  49.492  1.00  0.00     0.035 A 
HETATM   12 CL   UNL     1      28.267  38.187  48.795  1.00  0.00    -0.084 Cl
HETATM   13  C   UNL     1      28.351  40.144  50.649  1.00  0.00     0.048 A 
HETATM   14  C   UNL     1      26.849  45.076  52.949  1.00  0.00     0.128 C 
HETATM   15  C   UNL     1      25.788  45.823  52.171  1.00  0.00     0.039 C 
HETATM   16  C   UNL     1      24.653  44.869  51.904  1.00  0.00     0.123 C 
HETATM   17  H   UNL     1      29.416  41.426  52.582  1.00  0.00     0.130 HD
ENDROOT
BRANCH   1  18
HETATM   18  C   UNL     1      29.220  43.695  53.763  1.00  0.00    -0.021 A 
HETATM   19  C   UNL     1      28.805  44.853  54.446  1.00  0.00     0.011 A 
HETATM   20  C   UNL     1      29.383  45.206  55.668  1.00  0.00     0.007 A 
HETATM   21  C   UNL     1      30.383  44.410  56.236  1.00  0.00    -0.059 A 
HETATM   22  C   UNL     1      30.792  43.250  55.567  1.00  0.00     0.007 A 
HETATM   23  C   UNL     1      30.218  42.896  54.344  1.00  0.00     0.011 A 
BRANCH  21  24
HETATM   24  C   UNL     1      30.986  44.778  57.570  1.00  0.00     0.034 C 
HETATM   25  C   UNL     1      30.227  45.913  58.241  1.00  0.00     0.010 C 
ENDBRANCH  21  24
ENDBRANCH   1  18
TORSDOF 2
ENDMDL
MODEL 6
REMARK VINA RESULT:      -8.0      6.813     10.401
REMARK  2 active torsions:
REMARK  status: ('A' for Active; 'I' for Inactive)
REMARK    1  A    between atoms: C_2  and  C_3 
REMARK    2  A    between atoms: C_6  and  C_7 
ROOT
HETATM    1  C   UNL     1      20.714  49.571  48.870  1.00  0.00     0.197 C 
HETATM    2  N   UNL     1      20.056  48.788  47.801  1.00  0.00    -0.345 N 
HETATM    3  C   UNL     1      18.780  49.028  47.500  1.00  0.00     0.113 C 
HETATM    4  N   UNL     1      18.163  48.347  46.544  1.00  0.00    -0.376 N 
HETATM    5  H   UNL     1      17.214  48.612  46.310  1.00  0.00     0.161 HD
HETATM    6  C   UNL     1      18.041  50.073  48.231  1.00  0.00     0.029 A 
HETATM    7  C   UNL     1      18.823  51.040  48.875  1.00  0.00     0.025 A 
HETATM    8  N   UNL     1      20.215  50.932  48.782  1.00  0.00    -0.267 NA
HETATM    9  C   UNL     1      16.642  50.161  48.302  1.00  0.00     0.019 A 
HETATM   10  C   UNL     1      16.039  51.239  48.954  1.00  0.00     0.025 A 
HETATM   11  C   UNL     1      16.828  52.235  49.523  1.00  0.00     0.035 A 
HETATM   12 CL   UNL     1      16.084  53.577  50.296  1.00  0.00    -0.084 Cl
HETATM   13  C   UNL     1      18.218  52.146  49.475  1.00  0.00     0.048 A 
HETATM   14  C   UNL     1      20.801  47.707  47.130  1.00  0.00     0.128 C 
HETATM   15  C   UNL     1      19.857  46.637  46.627  1.00  0.00     0.039 C 
HETATM   16  C   UNL     1      18.821  47.306  45.762  1.00  0.00     0.123 C 
HETATM   17  H   UNL     1      20.696  51.540  49.443  1.00  0.00     0.130 HD
ENDROOT
BRANCH   1  18
HETATM   18  C   UNL     1      22.225  49.607  48.729  1.00  0.00    -0.021 A 
HETATM   19  C   UNL     1      23.044  48.671  49.388  1.00  0.00     0.011 A 
HETATM   20  C   UNL     1      24.434  48.722  49.257  1.00  0.00     0.007 A 
HETATM   21  C   UNL     1      25.036  49.705  48.464  1.00  0.00    -0.059 A 
HETATM   22  C   UNL     1      24.226  50.631  47.797  1.00  0.00     0.007 A 
HETATM   23  C   UNL     1      22.836  50.585  47.927  1.00  0.00     0.011 A 
BRANCH  21  24
HETATM   24  C   UNL     1      26.536  49.742  48.302  1.00  0.00     0.034 C 
HETATM   25  C   UNL     1      27.225  48.709  49.181  1.00  0.00     0.010 C 
ENDBRANCH  21  24
ENDBRANCH   1  18
TORSDOF 2
ENDMDL
MODEL 7
REMARK VINA RESULT:      -8.0      2.996      7.211
REMARK  2 active torsions:
REMARK  status: ('A' for Active; 'I' for Inactive)
REMARK    1  A    between atoms: C_2  and  C_3 
REMARK    2  A    between atoms: C_6  and  C_7 
ROOT
HETATM    1  C   UNL     1      27.054  43.954  52.709  1.00  0.00     0.197 C 
HETATM    2  N   UNL     1      27.362  42.967  51.650  1.00  0.00    -0.345 N 
HETATM    3  C   UNL     1      26.770  43.071  50.461  1.00  0.00     0.113 C 
HETATM    4  N   UNL     1      27.030  42.206  49.490  1.00  0.00    -0.376 N 
HETATM    5  H   UNL     1      26.605  42.366  48.585  1.00  0.00     0.161 HD
HETATM    6  C   UNL     1      25.820  44.169  50.211  1.00  0.00     0.029 A 
HETATM    7  C   UNL     1      25.927  45.277  51.062  1.00  0.00     0.025 A 
HETATM    8  N   UNL     1      26.901  45.247  52.066  1.00  0.00    -0.267 NA
HETATM    9  C   UNL     1      24.857  44.175  49.191  1.00  0.00     0.019 A 
HETATM   10  C   UNL     1      24.057  45.303  48.987  1.00  0.00     0.025 A 
HETATM   11  C   UNL     1      24.227  46.427  49.791  1.00  0.00     0.035 A 
HETATM   12 CL   UNL     1      23.265  47.825  49.518  1.00  0.00    -0.084 Cl
HETATM   13  C   UNL     1      25.167  46.423  50.819  1.00  0.00     0.048 A 
HETATM   14  C   UNL     1      28.269  41.843  51.949  1.00  0.00     0.128 C 
HETATM   15  C   UNL     1      27.943  40.646  51.083  1.00  0.00     0.039 C 
HETATM   16  C   UNL     1      27.966  41.097  49.646  1.00  0.00     0.123 C 
HETATM   17  H   UNL     1      26.768  45.984  52.757  1.00  0.00     0.130 HD
ENDROOT
BRANCH   1  18
HETATM   18  C   UNL     1      28.153  44.065  53.749  1.00  0.00    -0.021 A 
HETATM   19  C   UNL     1      29.068  43.018  53.962  1.00  0.00     0.011 A 
HETATM   20  C   UNL     1      30.068  43.130  54.930  1.00  0.00     0.007 A 
HETATM   21  C   UNL     1      30.180  44.290  55.705  1.00  0.00    -0.059 A 
HETATM   22  C   UNL     1      29.281  45.340  55.489  1.00  0.00     0.007 A 
HETATM   23  C   UNL     1      28.277  45.230  54.523  1.00  0.00     0.011 A 
BRANCH  21  24
HETATM   24  C   UNL     1      31.279  44.420  56.731  1.00  0.00     0.034 C 
HETATM   25  C   UNL     1      31.841  43.065  57.133  1.00  0.00     0.010 C 
ENDBRANCH  21  24
ENDBRANCH   1  18
TORSDOF 2
ENDMDL
MODEL 8
REMARK VINA RESULT:      -8.0      3.580      7.475
REMARK  2 active torsions:
REMARK  status: ('A' for Active; 'I' for Inactive)
REMARK    1  A    between atoms: C_2  and  C_3 
REMARK    2  A    between atoms: C_6  and  C_7 
ROOT
HETATM    1  C   UNL     1      24.634  45.437  51.190  1.00  0.00     0.197 C 
HETATM    2  N   UNL     1      24.043  44.513  50.197  1.00  0.00    -0.345 N 
HETATM    3  C   UNL     1      23.379  45.006  49.152  1.00  0.00     0.113 C 
HETATM    4  N   UNL     1      22.842  44.204  48.243  1.00  0.00    -0.376 N 
HETATM    5  H   UNL     1      22.405  44.629  47.434  1.00  0.00     0.161 HD
HETATM    6  C   UNL     1      23.247  46.465  48.993  1.00  0.00     0.029 A 
HETATM    7  C   UNL     1      24.183  47.244  49.685  1.00  0.00     0.025 A 
HETATM    8  N   UNL     1      25.142  46.587  50.463  1.00  0.00    -0.267 NA
HETATM    9  C   UNL     1      22.278  47.097  48.199  1.00  0.00     0.019 A 
HETATM   10  C   UNL     1      22.289  48.486  48.051  1.00  0.00     0.025 A 
HETATM   11  C   UNL     1      23.273  49.243  48.683  1.00  0.00     0.035 A 
HETATM   12 CL   UNL     1      23.306  50.948  48.472  1.00  0.00    -0.084 Cl
HETATM   13  C   UNL     1      24.228  48.626  49.488  1.00  0.00     0.048 A 
HETATM   14  C   UNL     1      24.137  43.057  50.415  1.00  0.00     0.128 C 
HETATM   15  C   UNL     1      22.975  42.341  49.763  1.00  0.00     0.039 C 
HETATM   16  C   UNL     1      22.936  42.750  48.314  1.00  0.00     0.123 C 
HETATM   17  H   UNL     1      25.637  47.222  51.087  1.00  0.00     0.130 HD
ENDROOT
BRANCH   1  18
HETATM   18  C   UNL     1      25.783  44.815  51.962  1.00  0.00    -0.021 A 
HETATM   19  C   UNL     1      27.016  44.539  51.344  1.00  0.00     0.011 A 
HETATM   20  C   UNL     1      28.062  43.957  52.065  1.00  0.00     0.007 A 
HETATM   21  C   UNL     1      27.900  43.639  53.418  1.00  0.00    -0.059 A 
HETATM   22  C   UNL     1      26.679  43.922  54.042  1.00  0.00     0.007 A 
HETATM   23  C   UNL     1      25.631  44.502  53.323  1.00  0.00     0.011 A 
BRANCH  21  24
HETATM   24  C   UNL     1      29.040  43.036  54.202  1.00  0.00     0.034 C 
HETATM   25  C   UNL     1      30.235  42.726  53.314  1.00  0.00     0.010 C 
ENDBRANCH  21  24
ENDBRANCH   1  18
TORSDOF 2
ENDMDL
MODEL 9
REMARK VINA RESULT:      -7.9      3.071      6.589
REMARK  2 active torsions:
REMARK  status: ('A' for Active; 'I' for Inactive)
REMARK    1  A    between atoms: C_2  and  C_3 
REMARK    2  A    between atoms: C_6  and  C_7 
ROOT
HETATM    1  C   UNL     1      27.422  41.970  52.031  1.00  0.00     0.197 C 
HETATM    2  N   UNL     1      26.759  43.270  51.785  1.00  0.00    -0.345 N 
HETATM    3  C   UNL     1      27.093  44.329  52.523  1.00  0.00     0.113 C 
HETATM    4  N   UNL     1      26.520  45.508  52.324  1.00  0.00    -0.376 N 
HETATM    5  H   UNL     1      26.855  46.296  52.866  1.00  0.00     0.161 HD
HETATM    6  C   UNL     1      28.120  44.195  53.570  1.00  0.00     0.029 A 
HETATM    7  C   UNL     1      28.991  43.107  53.438  1.00  0.00     0.025 A 
HETATM    8  N   UNL     1      28.812  42.245  52.350  1.00  0.00    -0.267 NA
HETATM    9  C   UNL     1      28.282  45.079  54.648  1.00  0.00     0.019 A 
HETATM   10  C   UNL     1      29.342  44.909  55.542  1.00  0.00     0.025 A 
HETATM   11  C   UNL     1      30.246  43.867  55.355  1.00  0.00     0.035 A 
HETATM   12 CL   UNL     1      31.568  43.679  56.437  1.00  0.00    -0.084 Cl
HETATM   13  C   UNL     1      30.083  42.973  54.299  1.00  0.00     0.048 A 
HETATM   14  C   UNL     1      25.690  43.358  50.774  1.00  0.00     0.128 C 
HETATM   15  C   UNL     1      24.715  44.463  51.118  1.00  0.00     0.039 C 
HETATM   16  C   UNL     1      25.504  45.733  51.301  1.00  0.00     0.123 C 
HETATM   17  H   UNL     1      29.341  41.380  52.449  1.00  0.00     0.130 HD
ENDROOT
BRANCH   1  18
HETATM   18  C   UNL     1      27.383  41.051  50.824  1.00  0.00    -0.021 A 
HETATM   19  C   UNL     1      26.394  40.059  50.692  1.00  0.00     0.011 A 
HETATM   20  C   UNL     1      26.376  39.213  49.581  1.00  0.00     0.007 A 
HETATM   21  C   UNL     1      27.341  39.340  48.576  1.00  0.00    -0.059 A 
HETATM   22  C   UNL     1      28.320  40.333  48.695  1.00  0.00     0.007 A 
HETATM   23  C   UNL     1      28.343  41.179  49.807  1.00  0.00     0.011 A 
BRANCH  21  24
HETATM   24  C   UNL     1      27.303  38.444  47.362  1.00  0.00     0.034 C 
HETATM   25  C   UNL     1      28.590  37.648  47.207  1.00  0.00     0.010 C 
ENDBRANCH  21  24
ENDBRANCH   1  18
TORSDOF 2
ENDMDL
MODEL 10
REMARK VINA RESULT:      -7.5      2.951      5.060
REMARK  2 active torsions:
REMARK  status: ('A' for Active; 'I' for Inactive)
REMARK    1  A    between atoms: C_2  and  C_3 
REMARK    2  A    between atoms: C_6  and  C_7 
ROOT
HETATM    1  C   UNL     1      24.214  47.305  49.602  1.00  0.00     0.197 C 
HETATM    2  N   UNL     1      23.891  45.880  49.374  1.00  0.00    -0.345 N 
HETATM    3  C   UNL     1      24.419  44.949  50.168  1.00  0.00     0.113 C 
HETATM    4  N   UNL     1      24.144  43.664  49.992  1.00  0.00    -0.376 N 
HETATM    5  H   UNL     1      24.518  43.003  50.662  1.00  0.00     0.161 HD
HETATM    6  C   UNL     1      25.315  45.350  51.267  1.00  0.00     0.029 A 
HETATM    7  C   UNL     1      25.209  46.681  51.689  1.00  0.00     0.025 A 
HETATM    8  N   UNL     1      24.288  47.509  51.038  1.00  0.00    -0.267 NA
HETATM    9  C   UNL     1      26.225  44.496  51.907  1.00  0.00     0.019 A 
HETATM   10  C   UNL     1      26.971  44.954  52.996  1.00  0.00     0.025 A 
HETATM   11  C   UNL     1      26.800  46.258  53.454  1.00  0.00     0.035 A 
HETATM   12 CL   UNL     1      27.695  46.809  54.814  1.00  0.00    -0.084 Cl
HETATM   13  C   UNL     1      25.912  47.119  52.813  1.00  0.00     0.048 A 
HETATM   14  C   UNL     1      23.043  45.504  48.228  1.00  0.00     0.128 C 
HETATM   15  C   UNL     1      23.369  44.104  47.754  1.00  0.00     0.039 C 
HETATM   16  C   UNL     1      23.259  43.179  48.938  1.00  0.00     0.123 C 
HETATM   17  H   UNL     1      24.427  48.494  51.259  1.00  0.00     0.130 HD
ENDROOT
BRANCH   1  18
HETATM   18  C   UNL     1      23.164  48.245  49.040  1.00  0.00    -0.021 A 
HETATM   19  C   UNL     1      21.791  48.001  49.221  1.00  0.00     0.011 A 
HETATM   20  C   UNL     1      20.835  48.869  48.689  1.00  0.00     0.007 A 
HETATM   21  C   UNL     1      21.228  50.001  47.966  1.00  0.00    -0.059 A 
HETATM   22  C   UNL     1      22.593  50.256  47.792  1.00  0.00     0.007 A 
HETATM   23  C   UNL     1      23.552  49.388  48.321  1.00  0.00     0.011 A 
BRANCH  21  24
HETATM   24  C   UNL     1      20.194  50.953  47.416  1.00  0.00     0.034 C 
HETATM   25  C   UNL     1      19.781  51.995  48.444  1.00  0.00     0.010 C 
ENDBRANCH  21  24
ENDBRANCH   1  18
TORSDOF 2
ENDMDL
