MODEL 1
REMARK VINA RESULT:      -8.6      0.000      0.000
REMARK  5 active torsions:
REMARK  status: ('A' for Active; 'I' for Inactive)
REMARK    1  A    between atoms: C_2  and  N_3 
REMARK    2  A    between atoms: C_2  and  C_21 
REMARK       I    between atoms: N_3  and  C_5 
REMARK       I    between atoms: C_5  and  N_6 
REMARK    3  A    between atoms: N_6  and  C_7 
REMARK    4  A    between atoms: C_7  and  C_8 
REMARK    5  A    between atoms: C_10  and  C_11 
ROOT
HETATM    1  N   UNL     1      25.785  47.072  51.286  1.00  0.00    -0.218 N 
HETATM    2  H   UNL     1      25.572  47.953  51.727  1.00  0.00     0.178 HD
HETATM    3  C   UNL     1      26.258  46.077  52.079  1.00  0.00     0.670 C 
HETATM    4  N   UNL     1      26.708  44.926  51.531  1.00  0.00    -0.221 N 
HETATM    5  N   UNL     1      26.294  46.261  53.427  1.00  0.00    -0.231 N 
HETATM    6  C   UNL     1      25.836  47.462  54.120  1.00  0.00     0.165 C 
HETATM    7  H   UNL     1      26.869  44.923  50.534  1.00  0.00     0.178 HD
HETATM    8  H   UNL     1      26.639  45.504  53.997  1.00  0.00     0.177 HD
ENDROOT
BRANCH   4   9
HETATM    9  C   UNL     1      26.824  43.638  52.219  1.00  0.00     0.199 C 
BRANCH   9  10
HETATM   10  C   UNL     1      28.134  43.615  52.915  1.00  0.00     0.077 A 
HETATM   11  N   UNL     1      28.289  44.186  54.168  1.00  0.00    -0.225 NA
HETATM   12  C   UNL     1      29.533  43.891  54.505  1.00  0.00     0.179 A 
HETATM   13  O   UNL     1      30.218  43.204  53.537  1.00  0.00    -0.301 OA
HETATM   14  C   UNL     1      29.319  43.037  52.529  1.00  0.00     0.173 A 
BRANCH  12  15
HETATM   15  C   UNL     1      30.242  44.163  55.752  1.00  0.00     0.017 A 
HETATM   16  C   UNL     1      29.933  45.317  56.490  1.00  0.00     0.016 A 
HETATM   17  C   UNL     1      30.576  45.588  57.701  1.00  0.00     0.001 A 
HETATM   18  C   UNL     1      31.535  44.705  58.192  1.00  0.00     0.000 A 
HETATM   19  C   UNL     1      31.855  43.555  57.472  1.00  0.00     0.001 A 
HETATM   20  C   UNL     1      31.213  43.286  56.260  1.00  0.00     0.016 A 
ENDBRANCH  12  15
ENDBRANCH   9  10
ENDBRANCH   4   9
BRANCH   1  21
HETATM   21  C   UNL     1      25.360  46.899  49.885  1.00  0.00     0.135 C 
HETATM   22  C   UNL     1      23.993  46.222  49.827  1.00  0.00     0.038 C 
BRANCH  21  23
HETATM   23  C   UNL     1      25.349  48.219  49.169  1.00  0.00     0.005 A 
HETATM   24  S   UNL     1      23.884  48.979  48.698  1.00  0.00    -0.104 SA
HETATM   25  C   UNL     1      24.713  50.300  48.002  1.00  0.00     0.050 A 
HETATM   26  C   UNL     1      26.077  50.174  48.122  1.00  0.00     0.008 A 
HETATM   27  C   UNL     1      26.447  48.974  48.792  1.00  0.00     0.017 A 
ENDBRANCH  21  23
ENDBRANCH   1  21
TORSDOF 5
ENDMDL
MODEL 2
REMARK VINA RESULT:      -8.5      1.946      2.994
REMARK  5 active torsions:
REMARK  status: ('A' for Active; 'I' for Inactive)
REMARK    1  A    between atoms: C_2  and  N_3 
REMARK    2  A    between atoms: C_2  and  C_21 
REMARK       I    between atoms: N_3  and  C_5 
REMARK       I    between atoms: C_5  and  N_6 
REMARK    3  A    between atoms: N_6  and  C_7 
REMARK    4  A    between atoms: C_7  and  C_8 
REMARK    5  A    between atoms: C_10  and  C_11 
ROOT
HETATM    1  N   UNL     1      23.949  46.486  49.327  1.00  0.00    -0.218 N 
HETATM    2  H   UNL     1      23.669  46.437  48.361  1.00  0.00     0.178 HD
HETATM    3  C   UNL     1      24.079  45.314  49.998  1.00  0.00     0.670 C 
HETATM    4  N   UNL     1      24.299  45.313  51.332  1.00  0.00    -0.221 N 
HETATM    5  N   UNL     1      23.961  44.141  49.318  1.00  0.00    -0.231 N 
HETATM    6  C   UNL     1      23.723  44.028  47.881  1.00  0.00     0.165 C 
HETATM    7  H   UNL     1      24.157  46.185  51.822  1.00  0.00     0.178 HD
HETATM    8  H   UNL     1      24.073  43.282  49.835  1.00  0.00     0.177 HD
ENDROOT
BRANCH   4   9
HETATM    9  C   UNL     1      24.886  44.215  52.103  1.00  0.00     0.199 C 
BRANCH   9  10
HETATM   10  C   UNL     1      25.923  44.792  52.993  1.00  0.00     0.077 A 
HETATM   11  N   UNL     1      26.870  43.986  53.606  1.00  0.00    -0.225 NA
HETATM   12  C   UNL     1      27.668  44.840  54.225  1.00  0.00     0.179 A 
HETATM   13  O   UNL     1      27.280  46.149  54.097  1.00  0.00    -0.301 OA
HETATM   14  C   UNL     1      26.168  46.105  53.313  1.00  0.00     0.173 A 
BRANCH  12  15
HETATM   15  C   UNL     1      28.892  44.581  54.977  1.00  0.00     0.017 A 
HETATM   16  C   UNL     1      29.313  45.494  55.958  1.00  0.00     0.016 A 
HETATM   17  C   UNL     1      30.465  45.257  56.711  1.00  0.00     0.001 A 
HETATM   18  C   UNL     1      31.212  44.101  56.495  1.00  0.00     0.000 A 
HETATM   19  C   UNL     1      30.810  43.185  55.525  1.00  0.00     0.001 A 
HETATM   20  C   UNL     1      29.658  43.424  54.770  1.00  0.00     0.016 A 
ENDBRANCH  12  15
ENDBRANCH   9  10
ENDBRANCH   4   9
BRANCH   1  21
HETATM   21  C   UNL     1      24.390  47.797  49.836  1.00  0.00     0.135 C 
HETATM   22  C   UNL     1      25.903  47.939  49.691  1.00  0.00     0.038 C 
BRANCH  21  23
HETATM   23  C   UNL     1      23.665  48.909  49.132  1.00  0.00     0.005 A 
HETATM   24  S   UNL     1      21.965  48.871  48.900  1.00  0.00    -0.104 SA
HETATM   25  C   UNL     1      21.975  50.372  48.085  1.00  0.00     0.050 A 
HETATM   26  C   UNL     1      23.242  50.898  47.987  1.00  0.00     0.008 A 
HETATM   27  C   UNL     1      24.219  50.055  48.589  1.00  0.00     0.017 A 
ENDBRANCH  21  23
ENDBRANCH   1  21
TORSDOF 5
ENDMDL
MODEL 3
REMARK VINA RESULT:      -8.2      3.198      9.047
REMARK  5 active torsions:
REMARK  status: ('A' for Active; 'I' for Inactive)
REMARK    1  A    between atoms: C_2  and  N_3 
REMARK    2  A    between atoms: C_2  and  C_21 
REMARK       I    between atoms: N_3  and  C_5 
REMARK       I    between atoms: C_5  and  N_6 
REMARK    3  A    between atoms: N_6  and  C_7 
REMARK    4  A    between atoms: C_7  and  C_8 
REMARK    5  A    between atoms: C_10  and  C_11 
ROOT
HETATM    1  N   UNL     1      27.926  43.444  52.765  1.00  0.00    -0.218 N 
HETATM    2  H   UNL     1      28.505  42.631  52.905  1.00  0.00     0.178 HD
HETATM    3  C   UNL     1      27.255  43.535  51.589  1.00  0.00     0.670 C 
HETATM    4  N   UNL     1      26.587  44.666  51.272  1.00  0.00    -0.221 N 
HETATM    5  N   UNL     1      27.283  42.484  50.724  1.00  0.00    -0.231 N 
HETATM    6  C   UNL     1      27.973  41.220  50.966  1.00  0.00     0.165 C 
HETATM    7  H   UNL     1      26.777  45.485  51.831  1.00  0.00     0.178 HD
HETATM    8  H   UNL     1      26.768  42.570  49.860  1.00  0.00     0.177 HD
ENDROOT
BRANCH   4   9
HETATM    9  C   UNL     1      25.492  44.772  50.305  1.00  0.00     0.199 C 
BRANCH   9  10
HETATM   10  C   UNL     1      25.285  46.213  50.014  1.00  0.00     0.077 A 
HETATM   11  N   UNL     1      24.087  46.673  49.491  1.00  0.00    -0.225 NA
HETATM   12  C   UNL     1      24.233  47.987  49.459  1.00  0.00     0.179 A 
HETATM   13  O   UNL     1      25.464  48.415  49.884  1.00  0.00    -0.301 OA
HETATM   14  C   UNL     1      26.126  47.278  50.231  1.00  0.00     0.173 A 
BRANCH  12  15
HETATM   15  C   UNL     1      23.269  49.014  49.075  1.00  0.00     0.017 A 
HETATM   16  C   UNL     1      21.898  48.711  49.061  1.00  0.00     0.016 A 
HETATM   17  C   UNL     1      20.952  49.683  48.724  1.00  0.00     0.001 A 
HETATM   18  C   UNL     1      21.365  50.972  48.400  1.00  0.00     0.000 A 
HETATM   19  C   UNL     1      22.722  51.291  48.408  1.00  0.00     0.001 A 
HETATM   20  C   UNL     1      23.668  50.317  48.742  1.00  0.00     0.016 A 
ENDBRANCH  12  15
ENDBRANCH   9  10
ENDBRANCH   4   9
BRANCH   1  21
HETATM   21  C   UNL     1      27.706  44.324  53.927  1.00  0.00     0.135 C 
HETATM   22  C   UNL     1      26.475  43.872  54.707  1.00  0.00     0.038 C 
BRANCH  21  23
HETATM   23  C   UNL     1      28.927  44.361  54.801  1.00  0.00     0.005 A 
HETATM   24  S   UNL     1      29.233  45.669  55.869  1.00  0.00    -0.104 SA
HETATM   25  C   UNL     1      30.694  44.972  56.414  1.00  0.00     0.050 A 
HETATM   26  C   UNL     1      30.951  43.767  55.801  1.00  0.00     0.008 A 
HETATM   27  C   UNL     1      29.935  43.414  54.868  1.00  0.00     0.017 A 
ENDBRANCH  21  23
ENDBRANCH   1  21
TORSDOF 5
ENDMDL
MODEL 4
REMARK VINA RESULT:      -8.2      2.529      4.484
REMARK  5 active torsions:
REMARK  status: ('A' for Active; 'I' for Inactive)
REMARK    1  A    between atoms: C_2  and  N_3 
REMARK    2  A    between atoms: C_2  and  C_21 
REMARK       I    between atoms: N_3  and  C_5 
REMARK       I    between atoms: C_5  and  N_6 
REMARK    3  A    between atoms: N_6  and  C_7 
REMARK    4  A    between atoms: C_7  and  C_8 
REMARK    5  A    between atoms: C_10  and  C_11 
ROOT
HETATM    1  N   UNL     1      26.023  45.615  49.936  1.00  0.00    -0.218 N 
HETATM    2  H   UNL     1      26.309  45.880  49.007  1.00  0.00     0.178 HD
HETATM    3  C   UNL     1      26.148  46.545  50.916  1.00  0.00     0.670 C 
HETATM    4  N   UNL     1      25.931  46.208  52.206  1.00  0.00    -0.221 N 
HETATM    5  N   UNL     1      26.518  47.813  50.586  1.00  0.00    -0.231 N 
HETATM    6  C   UNL     1      26.778  48.281  49.227  1.00  0.00     0.165 C 
HETATM    7  H   UNL     1      25.881  45.222  52.423  1.00  0.00     0.178 HD
HETATM    8  H   UNL     1      26.594  48.490  51.330  1.00  0.00     0.177 HD
ENDROOT
BRANCH   4   9
HETATM    9  C   UNL     1      25.595  47.135  53.289  1.00  0.00     0.199 C 
BRANCH   9  10
HETATM   10  C   UNL     1      26.610  46.967  54.358  1.00  0.00     0.077 A 
HETATM   11  N   UNL     1      27.399  45.830  54.425  1.00  0.00    -0.225 NA
HETATM   12  C   UNL     1      28.233  46.074  55.421  1.00  0.00     0.179 A 
HETATM   13  O   UNL     1      28.014  47.276  56.041  1.00  0.00    -0.301 OA
HETATM   14  C   UNL     1      26.978  47.834  55.359  1.00  0.00     0.173 A 
BRANCH  12  15
HETATM   15  C   UNL     1      29.349  45.268  55.910  1.00  0.00     0.017 A 
HETATM   16  C   UNL     1      29.950  45.585  57.139  1.00  0.00     0.016 A 
HETATM   17  C   UNL     1      31.000  44.814  57.643  1.00  0.00     0.001 A 
HETATM   18  C   UNL     1      31.462  43.713  56.926  1.00  0.00     0.000 A 
HETATM   19  C   UNL     1      30.878  43.385  55.704  1.00  0.00     0.001 A 
HETATM   20  C   UNL     1      29.829  44.158  55.199  1.00  0.00     0.016 A 
ENDBRANCH  12  15
ENDBRANCH   9  10
ENDBRANCH   4   9
BRANCH   1  21
HETATM   21  C   UNL     1      25.307  44.334  50.081  1.00  0.00     0.135 C 
HETATM   22  C   UNL     1      24.355  44.124  48.906  1.00  0.00     0.038 C 
BRANCH  21  23
HETATM   23  C   UNL     1      26.279  43.196  50.209  1.00  0.00     0.005 A 
HETATM   24  S   UNL     1      27.018  42.806  51.708  1.00  0.00    -0.104 SA
HETATM   25  C   UNL     1      27.901  41.518  51.016  1.00  0.00     0.050 A 
HETATM   26  C   UNL     1      27.644  41.380  49.672  1.00  0.00     0.008 A 
HETATM   27  C   UNL     1      26.711  42.348  49.204  1.00  0.00     0.017 A 
ENDBRANCH  21  23
ENDBRANCH   1  21
TORSDOF 5
ENDMDL
MODEL 5
REMARK VINA RESULT:      -7.9      2.995      4.671
REMARK  5 active torsions:
REMARK  status: ('A' for Active; 'I' for Inactive)
REMARK    1  A    between atoms: C_2  and  N_3 
REMARK    2  A    between atoms: C_2  and  C_21 
REMARK       I    between atoms: N_3  and  C_5 
REMARK       I    between atoms: C_5  and  N_6 
REMARK    3  A    between atoms: N_6  and  C_7 
REMARK    4  A    between atoms: C_7  and  C_8 
REMARK    5  A    between atoms: C_10  and  C_11 
ROOT
HETATM    1  N   UNL     1      21.997  47.605  48.879  1.00  0.00    -0.218 N 
HETATM    2  H   UNL     1      21.093  47.501  48.445  1.00  0.00     0.178 HD
HETATM    3  C   UNL     1      22.779  46.499  48.961  1.00  0.00     0.670 C 
HETATM    4  N   UNL     1      23.932  46.532  49.665  1.00  0.00    -0.221 N 
HETATM    5  N   UNL     1      22.378  45.353  48.346  1.00  0.00    -0.231 N 
HETATM    6  C   UNL     1      21.153  45.209  47.564  1.00  0.00     0.165 C 
HETATM    7  H   UNL     1      24.075  47.321  50.279  1.00  0.00     0.178 HD
HETATM    8  H   UNL     1      22.980  44.547  48.412  1.00  0.00     0.177 HD
ENDROOT
BRANCH   4   9
HETATM    9  C   UNL     1      25.065  45.619  49.496  1.00  0.00     0.199 C 
BRANCH   9  10
HETATM   10  C   UNL     1      25.634  45.352  50.841  1.00  0.00     0.077 A 
HETATM   11  N   UNL     1      26.816  44.644  50.991  1.00  0.00    -0.225 NA
HETATM   12  C   UNL     1      27.056  44.689  52.290  1.00  0.00     0.179 A 
HETATM   13  O   UNL     1      26.086  45.340  53.007  1.00  0.00    -0.301 OA
HETATM   14  C   UNL     1      25.185  45.755  52.075  1.00  0.00     0.173 A 
BRANCH  12  15
HETATM   15  C   UNL     1      28.204  44.181  53.035  1.00  0.00     0.017 A 
HETATM   16  C   UNL     1      28.464  44.665  54.328  1.00  0.00     0.016 A 
HETATM   17  C   UNL     1      29.540  44.176  55.074  1.00  0.00     0.001 A 
HETATM   18  C   UNL     1      30.368  43.193  54.537  1.00  0.00     0.000 A 
HETATM   19  C   UNL     1      30.126  42.702  53.256  1.00  0.00     0.001 A 
HETATM   20  C   UNL     1      29.051  43.194  52.509  1.00  0.00     0.016 A 
ENDBRANCH  12  15
ENDBRANCH   9  10
ENDBRANCH   4   9
BRANCH   1  21
HETATM   21  C   UNL     1      22.448  48.976  49.176  1.00  0.00     0.135 C 
HETATM   22  C   UNL     1      23.529  49.404  48.186  1.00  0.00     0.038 C 
BRANCH  21  23
HETATM   23  C   UNL     1      21.287  49.929  49.166  1.00  0.00     0.005 A 
HETATM   24  S   UNL     1      19.794  49.538  49.915  1.00  0.00    -0.104 SA
HETATM   25  C   UNL     1      19.098  51.031  49.463  1.00  0.00     0.050 A 
HETATM   26  C   UNL     1      19.978  51.818  48.756  1.00  0.00     0.008 A 
HETATM   27  C   UNL     1      21.241  51.183  48.582  1.00  0.00     0.017 A 
ENDBRANCH  21  23
ENDBRANCH   1  21
TORSDOF 5
ENDMDL
MODEL 6
REMARK VINA RESULT:      -7.9      3.149      5.323
REMARK  5 active torsions:
REMARK  status: ('A' for Active; 'I' for Inactive)
REMARK    1  A    between atoms: C_2  and  N_3 
REMARK    2  A    between atoms: C_2  and  C_21 
REMARK       I    between atoms: N_3  and  C_5 
REMARK       I    between atoms: C_5  and  N_6 
REMARK    3  A    between atoms: N_6  and  C_7 
REMARK    4  A    between atoms: C_7  and  C_8 
REMARK    5  A    between atoms: C_10  and  C_11 
ROOT
HETATM    1  N   UNL     1      26.001  43.506  51.034  1.00  0.00    -0.218 N 
HETATM    2  H   UNL     1      25.356  42.937  50.508  1.00  0.00     0.178 HD
HETATM    3  C   UNL     1      25.607  44.766  51.348  1.00  0.00     0.670 C 
HETATM    4  N   UNL     1      26.479  45.630  51.914  1.00  0.00    -0.221 N 
HETATM    5  N   UNL     1      24.334  45.155  51.067  1.00  0.00    -0.231 N 
HETATM    6  C   UNL     1      23.315  44.304  50.458  1.00  0.00     0.165 C 
HETATM    7  H   UNL     1      27.456  45.376  51.897  1.00  0.00     0.178 HD
HETATM    8  H   UNL     1      24.060  46.092  51.319  1.00  0.00     0.177 HD
ENDROOT
BRANCH   4   9
HETATM    9  C   UNL     1      26.124  46.818  52.694  1.00  0.00     0.199 C 
BRANCH   9  10
HETATM   10  C   UNL     1      26.861  46.749  53.981  1.00  0.00     0.077 A 
HETATM   11  N   UNL     1      27.763  45.729  54.235  1.00  0.00    -0.225 NA
HETATM   12  C   UNL     1      28.285  46.046  55.408  1.00  0.00     0.179 A 
HETATM   13  O   UNL     1      27.751  47.181  55.960  1.00  0.00    -0.301 OA
HETATM   14  C   UNL     1      26.844  47.618  55.044  1.00  0.00     0.173 A 
BRANCH  12  15
HETATM   15  C   UNL     1      29.351  45.382  56.154  1.00  0.00     0.017 A 
HETATM   16  C   UNL     1      30.065  44.329  55.560  1.00  0.00     0.016 A 
HETATM   17  C   UNL     1      31.107  43.695  56.241  1.00  0.00     0.001 A 
HETATM   18  C   UNL     1      31.451  44.108  57.526  1.00  0.00     0.000 A 
HETATM   19  C   UNL     1      30.753  45.151  58.132  1.00  0.00     0.001 A 
HETATM   20  C   UNL     1      29.708  45.783  57.450  1.00  0.00     0.016 A 
ENDBRANCH  12  15
ENDBRANCH   9  10
ENDBRANCH   4   9
BRANCH   1  21
HETATM   21  C   UNL     1      27.196  42.839  51.581  1.00  0.00     0.135 C 
HETATM   22  C   UNL     1      27.036  42.613  53.082  1.00  0.00     0.038 C 
BRANCH  21  23
HETATM   23  C   UNL     1      27.461  41.550  50.857  1.00  0.00     0.005 A 
HETATM   24  S   UNL     1      26.414  40.977  49.623  1.00  0.00    -0.104 SA
HETATM   25  C   UNL     1      27.362  39.579  49.373  1.00  0.00     0.050 A 
HETATM   26  C   UNL     1      28.456  39.541  50.206  1.00  0.00     0.008 A 
HETATM   27  C   UNL     1      28.513  40.675  51.065  1.00  0.00     0.017 A 
ENDBRANCH  21  23
ENDBRANCH   1  21
TORSDOF 5
ENDMDL
MODEL 7
REMARK VINA RESULT:      -7.8      4.764     10.340
REMARK  5 active torsions:
REMARK  status: ('A' for Active; 'I' for Inactive)
REMARK    1  A    between atoms: C_2  and  N_3 
REMARK    2  A    between atoms: C_2  and  C_21 
REMARK       I    between atoms: N_3  and  C_5 
REMARK       I    between atoms: C_5  and  N_6 
REMARK    3  A    between atoms: N_6  and  C_7 
REMARK    4  A    between atoms: C_7  and  C_8 
REMARK    5  A    between atoms: C_10  and  C_11 
ROOT
HETATM    1  N   UNL     1      26.264  47.202  51.423  1.00  0.00    -0.218 N 
HETATM    2  H   UNL     1      27.248  47.416  51.408  1.00  0.00     0.178 HD
HETATM    3  C   UNL     1      25.518  47.626  50.372  1.00  0.00     0.670 C 
HETATM    4  N   UNL     1      24.172  47.510  50.401  1.00  0.00    -0.221 N 
HETATM    5  N   UNL     1      26.139  48.190  49.299  1.00  0.00    -0.231 N 
HETATM    6  C   UNL     1      27.583  48.364  49.166  1.00  0.00     0.165 C 
HETATM    7  H   UNL     1      23.747  47.298  51.292  1.00  0.00     0.178 HD
HETATM    8  H   UNL     1      25.566  48.487  48.525  1.00  0.00     0.177 HD
ENDROOT
BRANCH   4   9
HETATM    9  C   UNL     1      23.287  47.496  49.233  1.00  0.00     0.199 C 
BRANCH   9  10
HETATM   10  C   UNL     1      22.655  48.835  49.131  1.00  0.00     0.077 A 
HETATM   11  N   UNL     1      21.277  48.976  49.107  1.00  0.00    -0.225 NA
HETATM   12  C   UNL     1      21.086  50.285  49.112  1.00  0.00     0.179 A 
HETATM   13  O   UNL     1      22.249  51.011  49.090  1.00  0.00    -0.301 OA
HETATM   14  C   UNL     1      23.240  50.078  49.100  1.00  0.00     0.173 A 
BRANCH  12  15
HETATM   15  C   UNL     1      19.835  51.036  49.169  1.00  0.00     0.017 A 
HETATM   16  C   UNL     1      19.660  52.160  48.346  1.00  0.00     0.016 A 
HETATM   17  C   UNL     1      18.463  52.880  48.361  1.00  0.00     0.001 A 
HETATM   18  C   UNL     1      17.423  52.484  49.199  1.00  0.00     0.000 A 
HETATM   19  C   UNL     1      17.580  51.372  50.024  1.00  0.00     0.001 A 
HETATM   20  C   UNL     1      18.779  50.653  50.010  1.00  0.00     0.016 A 
ENDBRANCH  12  15
ENDBRANCH   9  10
ENDBRANCH   4   9
BRANCH   1  21
HETATM   21  C   UNL     1      25.791  46.276  52.468  1.00  0.00     0.135 C 
HETATM   22  C   UNL     1      25.659  44.864  51.904  1.00  0.00     0.038 C 
BRANCH  21  23
HETATM   23  C   UNL     1      26.707  46.309  53.658  1.00  0.00     0.005 A 
HETATM   24  S   UNL     1      27.504  44.898  54.222  1.00  0.00    -0.104 SA
HETATM   25  C   UNL     1      28.261  45.751  55.493  1.00  0.00     0.050 A 
HETATM   26  C   UNL     1      27.920  47.083  55.496  1.00  0.00     0.008 A 
HETATM   27  C   UNL     1      27.022  47.407  54.440  1.00  0.00     0.017 A 
ENDBRANCH  21  23
ENDBRANCH   1  21
TORSDOF 5
ENDMDL
MODEL 8
REMARK VINA RESULT:      -7.7      2.212      3.657
REMARK  5 active torsions:
REMARK  status: ('A' for Active; 'I' for Inactive)
REMARK    1  A    between atoms: C_2  and  N_3 
REMARK    2  A    between atoms: C_2  and  C_21 
REMARK       I    between atoms: N_3  and  C_5 
REMARK       I    between atoms: C_5  and  N_6 
REMARK    3  A    between atoms: N_6  and  C_7 
REMARK    4  A    between atoms: C_7  and  C_8 
REMARK    5  A    between atoms: C_10  and  C_11 
ROOT
HETATM    1  N   UNL     1      25.077  46.558  49.506  1.00  0.00    -0.218 N 
HETATM    2  H   UNL     1      25.276  46.974  48.611  1.00  0.00     0.178 HD
HETATM    3  C   UNL     1      25.826  46.963  50.562  1.00  0.00     0.670 C 
HETATM    4  N   UNL     1      25.718  46.337  51.755  1.00  0.00    -0.221 N 
HETATM    5  N   UNL     1      26.703  47.992  50.400  1.00  0.00    -0.231 N 
HETATM    6  C   UNL     1      26.900  48.735  49.158  1.00  0.00     0.165 C 
HETATM    7  H   UNL     1      25.230  45.453  51.768  1.00  0.00     0.178 HD
HETATM    8  H   UNL     1      27.242  48.284  51.201  1.00  0.00     0.177 HD
ENDROOT
BRANCH   4   9
HETATM    9  C   UNL     1      26.093  46.898  53.055  1.00  0.00     0.199 C 
BRANCH   9  10
HETATM   10  C   UNL     1      26.993  45.926  53.724  1.00  0.00     0.077 A 
HETATM   11  N   UNL     1      27.977  46.349  54.603  1.00  0.00    -0.225 NA
HETATM   12  C   UNL     1      28.499  45.226  55.066  1.00  0.00     0.179 A 
HETATM   13  O   UNL     1      27.955  44.096  54.514  1.00  0.00    -0.301 OA
HETATM   14  C   UNL     1      27.000  44.554  53.659  1.00  0.00     0.173 A 
BRANCH  12  15
HETATM   15  C   UNL     1      29.527  45.037  56.086  1.00  0.00     0.017 A 
HETATM   16  C   UNL     1      29.520  45.840  57.238  1.00  0.00     0.016 A 
HETATM   17  C   UNL     1      30.476  45.662  58.242  1.00  0.00     0.001 A 
HETATM   18  C   UNL     1      31.450  44.676  58.108  1.00  0.00     0.000 A 
HETATM   19  C   UNL     1      31.473  43.871  56.971  1.00  0.00     0.001 A 
HETATM   20  C   UNL     1      30.518  44.051  55.966  1.00  0.00     0.016 A 
ENDBRANCH  12  15
ENDBRANCH   9  10
ENDBRANCH   4   9
BRANCH   1  21
HETATM   21  C   UNL     1      23.865  45.724  49.608  1.00  0.00     0.135 C 
HETATM   22  C   UNL     1      22.793  46.231  48.647  1.00  0.00     0.038 C 
BRANCH  21  23
HETATM   23  C   UNL     1      24.193  44.281  49.354  1.00  0.00     0.005 A 
HETATM   24  S   UNL     1      22.966  43.112  49.083  1.00  0.00    -0.104 SA
HETATM   25  C   UNL     1      24.108  41.854  48.910  1.00  0.00     0.050 A 
HETATM   26  C   UNL     1      25.400  42.306  49.052  1.00  0.00     0.008 A 
HETATM   27  C   UNL     1      25.451  43.705  49.311  1.00  0.00     0.017 A 
ENDBRANCH  21  23
ENDBRANCH   1  21
TORSDOF 5
ENDMDL
MODEL 9
REMARK VINA RESULT:      -7.4      3.815      7.686
REMARK  5 active torsions:
REMARK  status: ('A' for Active; 'I' for Inactive)
REMARK    1  A    between atoms: C_2  and  N_3 
REMARK    2  A    between atoms: C_2  and  C_21 
REMARK       I    between atoms: N_3  and  C_5 
REMARK       I    between atoms: C_5  and  N_6 
REMARK    3  A    between atoms: N_6  and  C_7 
REMARK    4  A    between atoms: C_7  and  C_8 
REMARK    5  A    between atoms: C_10  and  C_11 
ROOT
HETATM    1  N   UNL     1      28.012  44.912  54.573  1.00  0.00    -0.218 N 
HETATM    2  H   UNL     1      28.276  45.738  55.086  1.00  0.00     0.178 HD
HETATM    3  C   UNL     1      26.934  45.006  53.754  1.00  0.00     0.670 C 
HETATM    4  N   UNL     1      26.434  43.902  53.157  1.00  0.00    -0.221 N 
HETATM    5  N   UNL     1      26.350  46.221  53.559  1.00  0.00    -0.231 N 
HETATM    6  C   UNL     1      26.808  47.473  54.154  1.00  0.00     0.165 C 
HETATM    7  H   UNL     1      26.753  43.008  53.502  1.00  0.00     0.178 HD
HETATM    8  H   UNL     1      25.557  46.269  52.937  1.00  0.00     0.177 HD
ENDROOT
BRANCH   4   9
HETATM    9  C   UNL     1      25.603  43.881  51.951  1.00  0.00     0.199 C 
BRANCH   9  10
HETATM   10  C   UNL     1      26.347  43.138  50.903  1.00  0.00     0.077 A 
HETATM   11  N   UNL     1      27.026  41.967  51.201  1.00  0.00    -0.225 NA
HETATM   12  C   UNL     1      27.472  41.547  50.029  1.00  0.00     0.179 A 
HETATM   13  O   UNL     1      27.171  42.388  48.990  1.00  0.00    -0.301 OA
HETATM   14  C   UNL     1      26.457  43.399  49.559  1.00  0.00     0.173 A 
BRANCH  12  15
HETATM   15  C   UNL     1      28.195  40.321  49.702  1.00  0.00     0.017 A 
HETATM   16  C   UNL     1      28.777  39.561  50.730  1.00  0.00     0.016 A 
HETATM   17  C   UNL     1      29.450  38.370  50.448  1.00  0.00     0.001 A 
HETATM   18  C   UNL     1      29.546  37.920  49.133  1.00  0.00     0.000 A 
HETATM   19  C   UNL     1      28.975  38.661  48.101  1.00  0.00     0.001 A 
HETATM   20  C   UNL     1      28.304  39.855  48.384  1.00  0.00     0.016 A 
ENDBRANCH  12  15
ENDBRANCH   9  10
ENDBRANCH   4   9
BRANCH   1  21
HETATM   21  C   UNL     1      28.945  43.771  54.605  1.00  0.00     0.135 C 
HETATM   22  C   UNL     1      29.617  43.600  53.245  1.00  0.00     0.038 C 
BRANCH  21  23
HETATM   23  C   UNL     1      29.957  43.946  55.700  1.00  0.00     0.005 A 
HETATM   24  S   UNL     1      30.008  45.366  56.663  1.00  0.00    -0.104 SA
HETATM   25  C   UNL     1      31.338  44.789  57.565  1.00  0.00     0.050 A 
HETATM   26  C   UNL     1      31.742  43.541  57.149  1.00  0.00     0.008 A 
HETATM   27  C   UNL     1      30.948  43.054  56.072  1.00  0.00     0.017 A 
ENDBRANCH  21  23
ENDBRANCH   1  21
TORSDOF 5
ENDMDL
MODEL 10
REMARK VINA RESULT:      -7.3      4.509      8.297
REMARK  5 active torsions:
REMARK  status: ('A' for Active; 'I' for Inactive)
REMARK    1  A    between atoms: C_2  and  N_3 
REMARK    2  A    between atoms: C_2  and  C_21 
REMARK       I    between atoms: N_3  and  C_5 
REMARK       I    between atoms: C_5  and  N_6 
REMARK    3  A    between atoms: N_6  and  C_7 
REMARK    4  A    between atoms: C_7  and  C_8 
REMARK    5  A    between atoms: C_10  and  C_11 
ROOT
HETATM    1  N   UNL     1      27.605  44.827  54.988  1.00  0.00    -0.218 N 
HETATM    2  H   UNL     1      27.049  44.828  55.829  1.00  0.00     0.178 HD
HETATM    3  C   UNL     1      27.069  44.241  53.888  1.00  0.00     0.670 C 
HETATM    4  N   UNL     1      27.818  44.067  52.776  1.00  0.00    -0.221 N 
HETATM    5  N   UNL     1      25.779  43.809  53.926  1.00  0.00    -0.231 N 
HETATM    6  C   UNL     1      24.885  43.946  55.073  1.00  0.00     0.165 C 
HETATM    7  H   UNL     1      28.816  44.195  52.868  1.00  0.00     0.178 HD
HETATM    8  H   UNL     1      25.398  43.387  53.093  1.00  0.00     0.177 HD
ENDROOT
BRANCH   4   9
HETATM    9  C   UNL     1      27.304  43.877  51.418  1.00  0.00     0.199 C 
BRANCH   9  10
HETATM   10  C   UNL     1      27.639  42.493  50.998  1.00  0.00     0.077 A 
HETATM   11  N   UNL     1      27.451  42.076  49.691  1.00  0.00    -0.225 NA
HETATM   12  C   UNL     1      27.942  40.849  49.670  1.00  0.00     0.179 A 
HETATM   13  O   UNL     1      28.398  40.417  50.888  1.00  0.00    -0.301 OA
HETATM   14  C   UNL     1      28.198  41.471  51.726  1.00  0.00     0.173 A 
BRANCH  12  15
HETATM   15  C   UNL     1      28.090  39.932  48.543  1.00  0.00     0.017 A 
HETATM   16  C   UNL     1      28.532  38.619  48.768  1.00  0.00     0.016 A 
HETATM   17  C   UNL     1      28.656  37.712  47.711  1.00  0.00     0.001 A 
HETATM   18  C   UNL     1      28.336  38.108  46.415  1.00  0.00     0.000 A 
HETATM   19  C   UNL     1      27.897  39.408  46.173  1.00  0.00     0.001 A 
HETATM   20  C   UNL     1      27.776  40.315  47.230  1.00  0.00     0.016 A 
ENDBRANCH  12  15
ENDBRANCH   9  10
ENDBRANCH   4   9
BRANCH   1  21
HETATM   21  C   UNL     1      28.832  45.644  54.991  1.00  0.00     0.135 C 
HETATM   22  C   UNL     1      28.480  47.129  54.971  1.00  0.00     0.038 C 
BRANCH  21  23
HETATM   23  C   UNL     1      29.694  45.300  56.171  1.00  0.00     0.005 A 
HETATM   24  S   UNL     1      30.873  44.055  56.096  1.00  0.00    -0.104 SA
HETATM   25  C   UNL     1      31.339  44.303  57.720  1.00  0.00     0.050 A 
HETATM   26  C   UNL     1      30.618  45.312  58.315  1.00  0.00     0.008 A 
HETATM   27  C   UNL     1      29.667  45.887  57.425  1.00  0.00     0.017 A 
ENDBRANCH  21  23
ENDBRANCH   1  21
TORSDOF 5
ENDMDL
