MODEL 1
REMARK VINA RESULT:      -9.5      0.000      0.000
REMARK  6 active torsions:
REMARK  status: ('A' for Active; 'I' for Inactive)
REMARK    1  A    between atoms: C_3  and  C_4 
REMARK    2  A    between atoms: C_4  and  C_5 
REMARK    3  A    between atoms: N_8  and  C_10 
REMARK    4  A    between atoms: C_10  and  C_11 
REMARK    5  A    between atoms: N_24  and  C_25 
REMARK    6  A    between atoms: C_25  and  C_26 
ROOT
HETATM    1  C   UNL     1      25.408  45.054  51.427  1.00  0.00     0.149 C 
HETATM    2  N   UNL     1      26.698  44.408  51.221  1.00  0.00    -0.220 NA
HETATM    3  C   UNL     1      26.575  43.240  50.510  1.00  0.00     0.304 C 
HETATM    4  O   UNL     1      27.533  42.625  50.077  1.00  0.00    -0.253 OA
HETATM    5  N   UNL     1      25.264  42.916  50.420  1.00  0.00    -0.270 N 
HETATM    6  C   UNL     1      24.487  43.955  50.852  1.00  0.00     0.257 C 
HETATM    7  O   UNL     1      23.265  43.998  50.841  1.00  0.00    -0.270 OA
HETATM    8  H   UNL     1      27.477  44.989  50.913  1.00  0.00     0.134 HD
ENDROOT
BRANCH   1   9
HETATM    9  C   UNL     1      25.395  46.348  50.616  1.00  0.00     0.067 A 
HETATM   10  C   UNL     1      24.231  47.052  50.321  1.00  0.00     0.030 A 
HETATM   11  C   UNL     1      24.328  48.230  49.585  1.00  0.00     0.003 A 
HETATM   12  C   UNL     1      25.575  48.686  49.172  1.00  0.00     0.019 A 
HETATM   13  C   UNL     1      26.689  47.946  49.518  1.00  0.00     0.117 A 
HETATM   14  N   UNL     1      26.631  46.799  50.235  1.00  0.00    -0.263 NA
ENDBRANCH   1   9
BRANCH   1  15
HETATM   15  C   UNL     1      25.093  45.319  52.942  1.00  0.00     0.028 C 
HETATM   16  C   UNL     1      25.792  46.552  53.540  1.00  0.00     0.035 C 
HETATM   17  C   UNL     1      27.290  46.376  53.735  1.00  0.00     0.235 C 
HETATM   18  N   UNL     1      27.619  45.119  54.508  1.00  0.00    -0.067 N 
HETATM   19  H   UNL     1      27.399  45.310  55.497  1.00  0.00     0.280 HD
HETATM   20  C   UNL     1      26.857  43.872  54.115  1.00  0.00     0.235 C 
HETATM   21  C   UNL     1      25.380  44.151  53.906  1.00  0.00     0.035 C 
BRANCH  18  22
HETATM   22  C   UNL     1      29.114  44.796  54.461  1.00  0.00     0.278 C 
BRANCH  22  23
HETATM   23  C   UNL     1      29.814  44.750  55.787  1.00  0.00     0.028 A 
HETATM   24  C   UNL     1      29.514  45.613  56.852  1.00  0.00     0.045 A 
HETATM   25 CL   UNL     1      28.252  46.785  56.750  1.00  0.00    -0.084 Cl
HETATM   26  C   UNL     1      30.222  45.531  58.055  1.00  0.00     0.024 A 
HETATM   27  C   UNL     1      31.237  44.587  58.211  1.00  0.00     0.005 A 
HETATM   28  C   UNL     1      31.538  43.718  57.166  1.00  0.00     0.043 A 
HETATM   29  C   UNL     1      30.827  43.807  55.974  1.00  0.00     0.126 A 
HETATM   30  F   UNL     1      31.102  42.948  54.982  1.00  0.00    -0.205 F 
ENDBRANCH  22  23
ENDBRANCH  18  22
ENDBRANCH   1  15
BRANCH   5  31
HETATM   31  C   UNL     1      24.776  41.648  49.903  1.00  0.00     0.168 C 
BRANCH  31  32
HETATM   32  C   UNL     1      24.607  41.694  48.373  1.00  0.00     0.140 C 
HETATM   33  O   UNL     1      24.958  40.405  47.806  1.00  0.00    -0.384 OA
HETATM   34  C   UNL     1      23.847  39.958  47.013  1.00  0.00     0.168 C 
HETATM   35  C   UNL     1      22.628  40.643  47.580  1.00  0.00     0.029 C 
HETATM   36  C   UNL     1      23.175  41.999  47.947  1.00  0.00     0.036 C 
ENDBRANCH  31  32
ENDBRANCH   5  31
TORSDOF 6
ENDMDL
MODEL 2
REMARK VINA RESULT:      -9.5      1.846      2.311
REMARK  6 active torsions:
REMARK  status: ('A' for Active; 'I' for Inactive)
REMARK    1  A    between atoms: C_3  and  C_4 
REMARK    2  A    between atoms: C_4  and  C_5 
REMARK    3  A    between atoms: N_8  and  C_10 
REMARK    4  A    between atoms: C_10  and  C_11 
REMARK    5  A    between atoms: N_24  and  C_25 
REMARK    6  A    between atoms: C_25  and  C_26 
ROOT
HETATM    1  C   UNL     1      25.875  44.557  52.008  1.00  0.00     0.149 C 
HETATM    2  N   UNL     1      27.278  44.165  51.961  1.00  0.00    -0.220 NA
HETATM    3  C   UNL     1      27.446  42.947  51.350  1.00  0.00     0.304 C 
HETATM    4  O   UNL     1      28.539  42.503  51.049  1.00  0.00    -0.253 OA
HETATM    5  N   UNL     1      26.234  42.365  51.187  1.00  0.00    -0.270 N 
HETATM    6  C   UNL     1      25.238  43.259  51.463  1.00  0.00     0.257 C 
HETATM    7  O   UNL     1      24.036  43.060  51.353  1.00  0.00    -0.270 OA
HETATM    8  H   UNL     1      27.957  44.864  51.665  1.00  0.00     0.134 HD
ENDROOT
BRANCH   1   9
HETATM    9  C   UNL     1      25.693  45.761  51.086  1.00  0.00     0.067 A 
HETATM   10  C   UNL     1      26.758  46.468  50.536  1.00  0.00     0.030 A 
HETATM   11  C   UNL     1      26.485  47.545  49.696  1.00  0.00     0.003 A 
HETATM   12  C   UNL     1      25.167  47.885  49.414  1.00  0.00     0.019 A 
HETATM   13  C   UNL     1      24.161  47.126  49.980  1.00  0.00     0.117 A 
HETATM   14  N   UNL     1      24.391  46.072  50.798  1.00  0.00    -0.263 NA
ENDBRANCH   1   9
BRANCH   1  15
HETATM   15  C   UNL     1      25.375  44.864  53.464  1.00  0.00     0.028 C 
HETATM   16  C   UNL     1      25.517  46.332  53.899  1.00  0.00     0.035 C 
HETATM   17  C   UNL     1      26.955  46.763  54.149  1.00  0.00     0.235 C 
HETATM   18  N   UNL     1      27.672  45.828  55.097  1.00  0.00    -0.067 N 
HETATM   19  H   UNL     1      27.325  46.039  56.044  1.00  0.00     0.280 HD
HETATM   20  C   UNL     1      27.461  44.347  54.864  1.00  0.00     0.235 C 
HETATM   21  C   UNL     1      26.005  44.018  54.587  1.00  0.00     0.035 C 
BRANCH  18  22
HETATM   22  C   UNL     1      29.178  46.094  55.127  1.00  0.00     0.278 C 
BRANCH  22  23
HETATM   23  C   UNL     1      29.991  45.152  55.965  1.00  0.00     0.028 A 
HETATM   24  C   UNL     1      30.545  43.960  55.475  1.00  0.00     0.045 A 
HETATM   25 CL   UNL     1      30.389  43.493  53.821  1.00  0.00    -0.084 Cl
HETATM   26  C   UNL     1      31.275  43.115  56.317  1.00  0.00     0.024 A 
HETATM   27  C   UNL     1      31.460  43.449  57.659  1.00  0.00     0.005 A 
HETATM   28  C   UNL     1      30.924  44.633  58.156  1.00  0.00     0.043 A 
HETATM   29  C   UNL     1      30.202  45.467  57.310  1.00  0.00     0.126 A 
HETATM   30  F   UNL     1      29.713  46.620  57.787  1.00  0.00    -0.205 F 
ENDBRANCH  22  23
ENDBRANCH  18  22
ENDBRANCH   1  15
BRANCH   5  31
HETATM   31  C   UNL     1      26.047  40.992  50.748  1.00  0.00     0.168 C 
BRANCH  31  32
HETATM   32  C   UNL     1      25.823  40.915  49.227  1.00  0.00     0.140 C 
HETATM   33  O   UNL     1      26.673  41.886  48.561  1.00  0.00    -0.384 OA
HETATM   34  C   UNL     1      27.448  41.185  47.575  1.00  0.00     0.168 C 
HETATM   35  C   UNL     1      27.531  39.755  48.050  1.00  0.00     0.029 C 
HETATM   36  C   UNL     1      26.164  39.547  48.649  1.00  0.00     0.036 C 
ENDBRANCH  31  32
ENDBRANCH   5  31
TORSDOF 6
ENDMDL
MODEL 3
REMARK VINA RESULT:      -8.6      7.216      9.956
REMARK  6 active torsions:
REMARK  status: ('A' for Active; 'I' for Inactive)
REMARK    1  A    between atoms: C_3  and  C_4 
REMARK    2  A    between atoms: C_4  and  C_5 
REMARK    3  A    between atoms: N_8  and  C_10 
REMARK    4  A    between atoms: C_10  and  C_11 
REMARK    5  A    between atoms: N_24  and  C_25 
REMARK    6  A    between atoms: C_25  and  C_26 
ROOT
HETATM    1  C   UNL     1      17.894  50.546  48.685  1.00  0.00     0.149 C 
HETATM    2  N   UNL     1      18.766  50.951  47.589  1.00  0.00    -0.220 NA
HETATM    3  C   UNL     1      18.609  50.144  46.489  1.00  0.00     0.304 C 
HETATM    4  O   UNL     1      19.107  50.397  45.406  1.00  0.00    -0.253 OA
HETATM    5  N   UNL     1      17.865  49.067  46.835  1.00  0.00    -0.270 N 
HETATM    6  C   UNL     1      17.324  49.244  48.078  1.00  0.00     0.257 C 
HETATM    7  O   UNL     1      16.558  48.480  48.649  1.00  0.00    -0.270 OA
HETATM    8  H   UNL     1      18.812  51.942  47.360  1.00  0.00     0.134 HD
ENDROOT
BRANCH   1   9
HETATM    9  C   UNL     1      16.847  51.639  48.881  1.00  0.00     0.067 A 
HETATM   10  C   UNL     1      16.756  52.411  50.036  1.00  0.00     0.030 A 
HETATM   11  C   UNL     1      15.772  53.393  50.111  1.00  0.00     0.003 A 
HETATM   12  C   UNL     1      14.913  53.593  49.037  1.00  0.00     0.019 A 
HETATM   13  C   UNL     1      15.074  52.803  47.915  1.00  0.00     0.117 A 
HETATM   14  N   UNL     1      16.021  51.843  47.808  1.00  0.00    -0.263 NA
ENDBRANCH   1   9
BRANCH   1  15
HETATM   15  C   UNL     1      18.680  50.253  50.012  1.00  0.00     0.028 C 
HETATM   16  C   UNL     1      19.944  51.106  50.214  1.00  0.00     0.035 C 
HETATM   17  C   UNL     1      21.092  50.733  49.286  1.00  0.00     0.235 C 
HETATM   18  N   UNL     1      21.402  49.254  49.331  1.00  0.00    -0.067 N 
HETATM   19  H   UNL     1      21.909  49.082  50.211  1.00  0.00     0.280 HD
HETATM   20  C   UNL     1      20.211  48.319  49.312  1.00  0.00     0.235 C 
HETATM   21  C   UNL     1      19.105  48.790  50.238  1.00  0.00     0.035 C 
BRANCH  18  22
HETATM   22  C   UNL     1      22.350  48.837  48.205  1.00  0.00     0.278 C 
BRANCH  22  23
HETATM   23  C   UNL     1      23.811  48.850  48.545  1.00  0.00     0.028 A 
HETATM   24  C   UNL     1      24.449  47.826  49.262  1.00  0.00     0.045 A 
HETATM   25 CL   UNL     1      23.607  46.410  49.776  1.00  0.00    -0.084 Cl
HETATM   26  C   UNL     1      25.812  47.912  49.565  1.00  0.00     0.024 A 
HETATM   27  C   UNL     1      26.555  49.018  49.155  1.00  0.00     0.005 A 
HETATM   28  C   UNL     1      25.938  50.036  48.434  1.00  0.00     0.043 A 
HETATM   29  C   UNL     1      24.582  49.941  48.137  1.00  0.00     0.126 A 
HETATM   30  F   UNL     1      24.000  50.911  47.418  1.00  0.00    -0.205 F 
ENDBRANCH  22  23
ENDBRANCH  18  22
ENDBRANCH   1  15
BRANCH   5  31
HETATM   31  C   UNL     1      17.659  47.913  45.975  1.00  0.00     0.168 C 
BRANCH  31  32
HETATM   32  C   UNL     1      18.793  46.883  46.138  1.00  0.00     0.140 C 
HETATM   33  O   UNL     1      18.428  45.918  47.160  1.00  0.00    -0.384 OA
HETATM   34  C   UNL     1      18.538  44.607  46.583  1.00  0.00     0.168 C 
HETATM   35  C   UNL     1      18.362  44.791  45.096  1.00  0.00     0.029 C 
HETATM   36  C   UNL     1      19.067  46.102  44.859  1.00  0.00     0.036 C 
ENDBRANCH  31  32
ENDBRANCH   5  31
TORSDOF 6
ENDMDL
MODEL 4
REMARK VINA RESULT:      -8.5      7.262      9.829
REMARK  6 active torsions:
REMARK  status: ('A' for Active; 'I' for Inactive)
REMARK    1  A    between atoms: C_3  and  C_4 
REMARK    2  A    between atoms: C_4  and  C_5 
REMARK    3  A    between atoms: N_8  and  C_10 
REMARK    4  A    between atoms: C_10  and  C_11 
REMARK    5  A    between atoms: N_24  and  C_25 
REMARK    6  A    between atoms: C_25  and  C_26 
ROOT
HETATM    1  C   UNL     1      17.523  50.004  48.637  1.00  0.00     0.149 C 
HETATM    2  N   UNL     1      18.464  50.228  47.547  1.00  0.00    -0.220 NA
HETATM    3  C   UNL     1      18.238  49.373  46.496  1.00  0.00     0.304 C 
HETATM    4  O   UNL     1      18.789  49.492  45.417  1.00  0.00    -0.253 OA
HETATM    5  N   UNL     1      17.361  48.418  46.886  1.00  0.00    -0.270 N 
HETATM    6  C   UNL     1      16.815  48.742  48.097  1.00  0.00     0.257 C 
HETATM    7  O   UNL     1      15.948  48.115  48.690  1.00  0.00    -0.270 OA
HETATM    8  H   UNL     1      18.635  51.189  47.257  1.00  0.00     0.134 HD
ENDROOT
BRANCH   1   9
HETATM    9  C   UNL     1      16.611  51.225  48.729  1.00  0.00     0.067 A 
HETATM   10  C   UNL     1      16.443  51.966  49.896  1.00  0.00     0.030 A 
HETATM   11  C   UNL     1      15.597  53.072  49.872  1.00  0.00     0.003 A 
HETATM   12  C   UNL     1      14.950  53.422  48.691  1.00  0.00     0.019 A 
HETATM   13  C   UNL     1      15.180  52.651  47.568  1.00  0.00     0.117 A 
HETATM   14  N   UNL     1      15.997  51.573  47.555  1.00  0.00    -0.263 NA
ENDBRANCH   1   9
BRANCH   1  15
HETATM   15  C   UNL     1      18.234  49.711  50.006  1.00  0.00     0.028 C 
HETATM   16  C   UNL     1      19.499  50.545  50.267  1.00  0.00     0.035 C 
HETATM   17  C   UNL     1      20.687  50.149  49.402  1.00  0.00     0.235 C 
HETATM   18  N   UNL     1      20.972  48.665  49.473  1.00  0.00    -0.067 N 
HETATM   19  H   UNL     1      21.430  48.492  50.380  1.00  0.00     0.280 HD
HETATM   20  C   UNL     1      19.770  47.748  49.400  1.00  0.00     0.235 C 
HETATM   21  C   UNL     1      18.624  48.243  50.263  1.00  0.00     0.035 C 
BRANCH  18  22
HETATM   22  C   UNL     1      21.971  48.226  48.401  1.00  0.00     0.278 C 
BRANCH  22  23
HETATM   23  C   UNL     1      23.416  48.263  48.801  1.00  0.00     0.028 A 
HETATM   24  C   UNL     1      24.265  49.348  48.539  1.00  0.00     0.045 A 
HETATM   25 CL   UNL     1      23.699  50.786  47.771  1.00  0.00    -0.084 Cl
HETATM   26  C   UNL     1      25.611  49.308  48.920  1.00  0.00     0.024 A 
HETATM   27  C   UNL     1      26.124  48.185  49.568  1.00  0.00     0.005 A 
HETATM   28  C   UNL     1      25.291  47.105  49.845  1.00  0.00     0.043 A 
HETATM   29  C   UNL     1      23.955  47.156  49.462  1.00  0.00     0.126 A 
HETATM   30  F   UNL     1      23.150  46.125  49.756  1.00  0.00    -0.205 F 
ENDBRANCH  22  23
ENDBRANCH  18  22
ENDBRANCH   1  15
BRANCH   5  31
HETATM   31  C   UNL     1      17.039  47.242  46.095  1.00  0.00     0.168 C 
BRANCH  31  32
HETATM   32  C   UNL     1      17.823  46.008  46.580  1.00  0.00     0.140 C 
HETATM   33  O   UNL     1      17.212  44.804  46.046  1.00  0.00    -0.384 OA
HETATM   34  C   UNL     1      18.233  44.064  45.358  1.00  0.00     0.168 C 
HETATM   35  C   UNL     1      19.274  45.075  44.946  1.00  0.00     0.029 C 
HETATM   36  C   UNL     1      19.277  46.017  46.123  1.00  0.00     0.036 C 
ENDBRANCH  31  32
ENDBRANCH   5  31
TORSDOF 6
ENDMDL
MODEL 5
REMARK VINA RESULT:      -8.5      8.662     12.195
REMARK  6 active torsions:
REMARK  status: ('A' for Active; 'I' for Inactive)
REMARK    1  A    between atoms: C_3  and  C_4 
REMARK    2  A    between atoms: C_4  and  C_5 
REMARK    3  A    between atoms: N_8  and  C_10 
REMARK    4  A    between atoms: C_10  and  C_11 
REMARK    5  A    between atoms: N_24  and  C_25 
REMARK    6  A    between atoms: C_25  and  C_26 
ROOT
HETATM    1  C   UNL     1      17.023  51.200  48.451  1.00  0.00     0.149 C 
HETATM    2  N   UNL     1      17.161  50.188  49.491  1.00  0.00    -0.220 NA
HETATM    3  C   UNL     1      18.380  50.265  50.118  1.00  0.00     0.304 C 
HETATM    4  O   UNL     1      18.648  49.635  51.125  1.00  0.00    -0.253 OA
HETATM    5  N   UNL     1      19.182  51.105  49.420  1.00  0.00    -0.270 N 
HETATM    6  C   UNL     1      18.458  51.772  48.471  1.00  0.00     0.257 C 
HETATM    7  O   UNL     1      18.878  52.641  47.720  1.00  0.00    -0.270 OA
HETATM    8  H   UNL     1      16.383  50.059  50.135  1.00  0.00     0.134 HD
ENDROOT
BRANCH   1   9
HETATM    9  C   UNL     1      15.960  52.198  48.905  1.00  0.00     0.067 A 
HETATM   10  C   UNL     1      15.633  52.409  50.241  1.00  0.00     0.030 A 
HETATM   11  C   UNL     1      14.657  53.352  50.552  1.00  0.00     0.003 A 
HETATM   12  C   UNL     1      14.040  54.070  49.533  1.00  0.00     0.019 A 
HETATM   13  C   UNL     1      14.430  53.821  48.231  1.00  0.00     0.117 A 
HETATM   14  N   UNL     1      15.376  52.914  47.894  1.00  0.00    -0.263 NA
ENDBRANCH   1   9
BRANCH   1  15
HETATM   15  C   UNL     1      16.679  50.588  47.047  1.00  0.00     0.028 C 
HETATM   16  C   UNL     1      15.429  49.691  47.023  1.00  0.00     0.035 C 
HETATM   17  C   UNL     1      15.621  48.350  47.718  1.00  0.00     0.235 C 
HETATM   18  N   UNL     1      16.845  47.619  47.214  1.00  0.00    -0.067 N 
HETATM   19  H   UNL     1      16.602  47.232  46.290  1.00  0.00     0.280 HD
HETATM   20  C   UNL     1      18.096  48.450  47.033  1.00  0.00     0.235 C 
HETATM   21  C   UNL     1      17.802  49.782  46.367  1.00  0.00     0.035 C 
BRANCH  18  22
HETATM   22  C   UNL     1      17.195  46.419  48.097  1.00  0.00     0.278 C 
BRANCH  22  23
HETATM   23  C   UNL     1      18.456  45.691  47.739  1.00  0.00     0.028 A 
HETATM   24  C   UNL     1      18.540  44.752  46.700  1.00  0.00     0.045 A 
HETATM   25 CL   UNL     1      17.192  44.388  45.687  1.00  0.00    -0.084 Cl
HETATM   26  C   UNL     1      19.744  44.091  46.434  1.00  0.00     0.024 A 
HETATM   27  C   UNL     1      20.877  44.359  47.200  1.00  0.00     0.005 A 
HETATM   28  C   UNL     1      20.811  45.296  48.227  1.00  0.00     0.043 A 
HETATM   29  C   UNL     1      19.610  45.948  48.483  1.00  0.00     0.126 A 
HETATM   30  F   UNL     1      19.560  46.871  49.455  1.00  0.00    -0.205 F 
ENDBRANCH  22  23
ENDBRANCH  18  22
ENDBRANCH   1  15
BRANCH   5  31
HETATM   31  C   UNL     1      20.600  51.279  49.685  1.00  0.00     0.168 C 
BRANCH  31  32
HETATM   32  C   UNL     1      21.456  50.779  48.506  1.00  0.00     0.140 C 
HETATM   33  O   UNL     1      22.831  51.207  48.689  1.00  0.00    -0.384 OA
HETATM   34  C   UNL     1      23.665  50.040  48.617  1.00  0.00     0.168 C 
HETATM   35  C   UNL     1      22.788  48.876  49.008  1.00  0.00     0.029 C 
HETATM   36  C   UNL     1      21.468  49.260  48.389  1.00  0.00     0.036 C 
ENDBRANCH  31  32
ENDBRANCH   5  31
TORSDOF 6
ENDMDL
MODEL 6
REMARK VINA RESULT:      -8.4      8.063     10.641
REMARK  6 active torsions:
REMARK  status: ('A' for Active; 'I' for Inactive)
REMARK    1  A    between atoms: C_3  and  C_4 
REMARK    2  A    between atoms: C_4  and  C_5 
REMARK    3  A    between atoms: N_8  and  C_10 
REMARK    4  A    between atoms: C_10  and  C_11 
REMARK    5  A    between atoms: N_24  and  C_25 
REMARK    6  A    between atoms: C_25  and  C_26 
ROOT
HETATM    1  C   UNL     1      17.495  50.099  48.649  1.00  0.00     0.149 C 
HETATM    2  N   UNL     1      18.399  50.300  47.524  1.00  0.00    -0.220 NA
HETATM    3  C   UNL     1      18.075  49.494  46.460  1.00  0.00     0.304 C 
HETATM    4  O   UNL     1      18.584  49.614  45.360  1.00  0.00    -0.253 OA
HETATM    5  N   UNL     1      17.158  48.582  46.862  1.00  0.00    -0.270 N 
HETATM    6  C   UNL     1      16.687  48.900  48.106  1.00  0.00     0.257 C 
HETATM    7  O   UNL     1      15.810  48.308  48.720  1.00  0.00    -0.270 OA
HETATM    8  H   UNL     1      18.616  51.258  47.254  1.00  0.00     0.134 HD
ENDROOT
BRANCH   1   9
HETATM    9  C   UNL     1      16.665  51.370  48.818  1.00  0.00     0.067 A 
HETATM   10  C   UNL     1      15.783  51.839  47.849  1.00  0.00     0.030 A 
HETATM   11  C   UNL     1      15.062  53.002  48.105  1.00  0.00     0.003 A 
HETATM   12  C   UNL     1      15.223  53.662  49.318  1.00  0.00     0.019 A 
HETATM   13  C   UNL     1      16.101  53.127  50.241  1.00  0.00     0.117 A 
HETATM   14  N   UNL     1      16.815  51.998  50.026  1.00  0.00    -0.263 NA
ENDBRANCH   1   9
BRANCH   1  15
HETATM   15  C   UNL     1      18.247  49.720  49.975  1.00  0.00     0.028 C 
HETATM   16  C   UNL     1      19.499  50.563  50.269  1.00  0.00     0.035 C 
HETATM   17  C   UNL     1      20.674  50.261  49.350  1.00  0.00     0.235 C 
HETATM   18  N   UNL     1      20.993  48.784  49.301  1.00  0.00    -0.067 N 
HETATM   19  H   UNL     1      21.477  48.554  50.180  1.00  0.00     0.280 HD
HETATM   20  C   UNL     1      19.810  47.846  49.185  1.00  0.00     0.235 C 
HETATM   21  C   UNL     1      18.675  48.246  50.110  1.00  0.00     0.035 C 
BRANCH  18  22
HETATM   22  C   UNL     1      21.974  48.451  48.175  1.00  0.00     0.278 C 
BRANCH  22  23
HETATM   23  C   UNL     1      23.427  48.619  48.506  1.00  0.00     0.028 A 
HETATM   24  C   UNL     1      24.179  47.663  49.207  1.00  0.00     0.045 A 
HETATM   25 CL   UNL     1      23.500  46.158  49.709  1.00  0.00    -0.084 Cl
HETATM   26  C   UNL     1      25.526  47.894  49.502  1.00  0.00     0.024 A 
HETATM   27  C   UNL     1      26.141  49.079  49.101  1.00  0.00     0.005 A 
HETATM   28  C   UNL     1      25.411  50.032  48.396  1.00  0.00     0.043 A 
HETATM   29  C   UNL     1      24.072  49.792  48.107  1.00  0.00     0.126 A 
HETATM   30  F   UNL     1      23.381  50.700  47.402  1.00  0.00    -0.205 F 
ENDBRANCH  22  23
ENDBRANCH  18  22
ENDBRANCH   1  15
BRANCH   5  31
HETATM   31  C   UNL     1      16.729  47.453  46.054  1.00  0.00     0.168 C 
BRANCH  31  32
HETATM   32  C   UNL     1      15.785  47.900  44.922  1.00  0.00     0.140 C 
HETATM   33  O   UNL     1      15.140  46.737  44.340  1.00  0.00    -0.384 OA
HETATM   34  C   UNL     1      13.721  46.954  44.389  1.00  0.00     0.168 C 
HETATM   35  C   UNL     1      13.486  47.920  45.524  1.00  0.00     0.029 C 
HETATM   36  C   UNL     1      14.681  48.831  45.409  1.00  0.00     0.036 C 
ENDBRANCH  31  32
ENDBRANCH   5  31
TORSDOF 6
ENDMDL
MODEL 7
REMARK VINA RESULT:      -8.2      7.861     10.388
REMARK  6 active torsions:
REMARK  status: ('A' for Active; 'I' for Inactive)
REMARK    1  A    between atoms: C_3  and  C_4 
REMARK    2  A    between atoms: C_4  and  C_5 
REMARK    3  A    between atoms: N_8  and  C_10 
REMARK    4  A    between atoms: C_10  and  C_11 
REMARK    5  A    between atoms: N_24  and  C_25 
REMARK    6  A    between atoms: C_25  and  C_26 
ROOT
HETATM    1  C   UNL     1      17.544  49.984  48.678  1.00  0.00     0.149 C 
HETATM    2  N   UNL     1      18.488  50.185  47.585  1.00  0.00    -0.220 NA
HETATM    3  C   UNL     1      18.223  49.355  46.524  1.00  0.00     0.304 C 
HETATM    4  O   UNL     1      18.773  49.466  45.444  1.00  0.00    -0.253 OA
HETATM    5  N   UNL     1      17.311  48.430  46.906  1.00  0.00    -0.270 N 
HETATM    6  C   UNL     1      16.784  48.759  48.124  1.00  0.00     0.257 C 
HETATM    7  O   UNL     1      15.895  48.159  48.713  1.00  0.00    -0.270 OA
HETATM    8  H   UNL     1      18.696  51.143  47.307  1.00  0.00     0.134 HD
ENDROOT
BRANCH   1   9
HETATM    9  C   UNL     1      16.682  51.239  48.790  1.00  0.00     0.067 A 
HETATM   10  C   UNL     1      15.899  51.723  47.746  1.00  0.00     0.030 A 
HETATM   11  C   UNL     1      15.137  52.870  47.954  1.00  0.00     0.003 A 
HETATM   12  C   UNL     1      15.161  53.499  49.194  1.00  0.00     0.019 A 
HETATM   13  C   UNL     1      15.946  52.951  50.190  1.00  0.00     0.117 A 
HETATM   14  N   UNL     1      16.696  51.837  50.022  1.00  0.00    -0.263 NA
ENDBRANCH   1   9
BRANCH   1  15
HETATM   15  C   UNL     1      18.250  49.644  50.038  1.00  0.00     0.028 C 
HETATM   16  C   UNL     1      19.513  50.470  50.333  1.00  0.00     0.035 C 
HETATM   17  C   UNL     1      20.705  50.104  49.461  1.00  0.00     0.235 C 
HETATM   18  N   UNL     1      20.990  48.619  49.482  1.00  0.00    -0.067 N 
HETATM   19  H   UNL     1      21.445  48.415  50.383  1.00  0.00     0.280 HD
HETATM   20  C   UNL     1      19.790  47.705  49.371  1.00  0.00     0.235 C 
HETATM   21  C   UNL     1      18.640  48.168  50.246  1.00  0.00     0.035 C 
BRANCH  18  22
HETATM   22  C   UNL     1      21.995  48.218  48.399  1.00  0.00     0.278 C 
BRANCH  22  23
HETATM   23  C   UNL     1      23.441  48.295  48.789  1.00  0.00     0.028 A 
HETATM   24  C   UNL     1      24.260  49.399  48.512  1.00  0.00     0.045 A 
HETATM   25 CL   UNL     1      23.652  50.815  47.735  1.00  0.00    -0.084 Cl
HETATM   26  C   UNL     1      25.609  49.397  48.885  1.00  0.00     0.024 A 
HETATM   27  C   UNL     1      26.155  48.293  49.539  1.00  0.00     0.005 A 
HETATM   28  C   UNL     1      25.351  47.195  49.831  1.00  0.00     0.043 A 
HETATM   29  C   UNL     1      24.011  47.208  49.457  1.00  0.00     0.126 A 
HETATM   30  F   UNL     1      23.235  46.159  49.765  1.00  0.00    -0.205 F 
ENDBRANCH  22  23
ENDBRANCH  18  22
ENDBRANCH   1  15
BRANCH   5  31
HETATM   31  C   UNL     1      16.938  47.278  46.102  1.00  0.00     0.168 C 
BRANCH  31  32
HETATM   32  C   UNL     1      15.650  47.547  45.300  1.00  0.00     0.140 C 
HETATM   33  O   UNL     1      15.498  48.976  45.091  1.00  0.00    -0.384 OA
HETATM   34  C   UNL     1      15.350  49.197  43.679  1.00  0.00     0.168 C 
HETATM   35  C   UNL     1      16.017  48.025  43.002  1.00  0.00     0.029 C 
HETATM   36  C   UNL     1      15.663  46.888  43.926  1.00  0.00     0.036 C 
ENDBRANCH  31  32
ENDBRANCH   5  31
TORSDOF 6
ENDMDL
MODEL 8
REMARK VINA RESULT:      -7.9     13.728     17.409
REMARK  6 active torsions:
REMARK  status: ('A' for Active; 'I' for Inactive)
REMARK    1  A    between atoms: C_3  and  C_4 
REMARK    2  A    between atoms: C_4  and  C_5 
REMARK    3  A    between atoms: N_8  and  C_10 
REMARK    4  A    between atoms: C_10  and  C_11 
REMARK    5  A    between atoms: N_24  and  C_25 
REMARK    6  A    between atoms: C_25  and  C_26 
ROOT
HETATM    1  C   UNL     1      36.609  52.237  41.058  1.00  0.00     0.149 C 
HETATM    2  N   UNL     1      35.871  52.709  42.223  1.00  0.00    -0.220 NA
HETATM    3  C   UNL     1      36.584  52.535  43.383  1.00  0.00     0.304 C 
HETATM    4  O   UNL     1      36.238  53.008  44.450  1.00  0.00    -0.253 OA
HETATM    5  N   UNL     1      37.662  51.757  43.124  1.00  0.00    -0.270 N 
HETATM    6  C   UNL     1      37.817  51.595  41.776  1.00  0.00     0.257 C 
HETATM    7  O   UNL     1      38.728  50.996  41.219  1.00  0.00    -0.270 OA
HETATM    8  H   UNL     1      35.416  53.619  42.160  1.00  0.00     0.134 HD
ENDROOT
BRANCH   1   9
HETATM    9  C   UNL     1      36.977  53.452  40.210  1.00  0.00     0.067 A 
HETATM   10  C   UNL     1      37.827  53.385  39.109  1.00  0.00     0.030 A 
HETATM   11  C   UNL     1      38.089  54.550  38.393  1.00  0.00     0.003 A 
HETATM   12  C   UNL     1      37.493  55.746  38.777  1.00  0.00     0.019 A 
HETATM   13  C   UNL     1      36.645  55.733  39.867  1.00  0.00     0.117 A 
HETATM   14  N   UNL     1      36.366  54.619  40.583  1.00  0.00    -0.263 NA
ENDBRANCH   1   9
BRANCH   1  15
HETATM   15  C   UNL     1      35.815  51.169  40.224  1.00  0.00     0.028 C 
HETATM   16  C   UNL     1      34.649  51.735  39.396  1.00  0.00     0.035 C 
HETATM   17  C   UNL     1      33.457  52.176  40.233  1.00  0.00     0.235 C 
HETATM   18  N   UNL     1      32.995  51.092  41.180  1.00  0.00    -0.067 N 
HETATM   19  H   UNL     1      32.484  50.399  40.614  1.00  0.00     0.280 HD
HETATM   20  C   UNL     1      34.081  50.345  41.925  1.00  0.00     0.235 C 
HETATM   21  C   UNL     1      35.243  49.980  41.020  1.00  0.00     0.035 C 
BRANCH  18  22
HETATM   22  C   UNL     1      31.993  51.622  42.208  1.00  0.00     0.278 C 
BRANCH  22  23
HETATM   23  C   UNL     1      30.550  51.564  41.803  1.00  0.00     0.028 A 
HETATM   24  C   UNL     1      29.780  50.393  41.845  1.00  0.00     0.045 A 
HETATM   25 CL   UNL     1      30.419  48.901  42.431  1.00  0.00    -0.084 Cl
HETATM   26  C   UNL     1      28.444  50.404  41.431  1.00  0.00     0.024 A 
HETATM   27  C   UNL     1      27.860  51.584  40.971  1.00  0.00     0.005 A 
HETATM   28  C   UNL     1      28.610  52.756  40.934  1.00  0.00     0.043 A 
HETATM   29  C   UNL     1      29.937  52.734  41.349  1.00  0.00     0.126 A 
HETATM   30  F   UNL     1      30.645  53.873  41.338  1.00  0.00    -0.205 F 
ENDBRANCH  22  23
ENDBRANCH  18  22
ENDBRANCH   1  15
BRANCH   5  31
HETATM   31  C   UNL     1      38.533  51.211  44.152  1.00  0.00     0.168 C 
BRANCH  31  32
HETATM   32  C   UNL     1      39.721  52.149  44.436  1.00  0.00     0.140 C 
HETATM   33  O   UNL     1      39.486  53.435  43.804  1.00  0.00    -0.384 OA
HETATM   34  C   UNL     1      39.608  54.447  44.816  1.00  0.00     0.168 C 
HETATM   35  C   UNL     1      39.302  53.765  46.127  1.00  0.00     0.029 C 
HETATM   36  C   UNL     1      39.925  52.408  45.924  1.00  0.00     0.036 C 
ENDBRANCH  31  32
ENDBRANCH   5  31
TORSDOF 6
ENDMDL
MODEL 9
REMARK VINA RESULT:      -7.9      9.658     14.133
REMARK  6 active torsions:
REMARK  status: ('A' for Active; 'I' for Inactive)
REMARK    1  A    between atoms: C_3  and  C_4 
REMARK    2  A    between atoms: C_4  and  C_5 
REMARK    3  A    between atoms: N_8  and  C_10 
REMARK    4  A    between atoms: C_10  and  C_11 
REMARK    5  A    between atoms: N_24  and  C_25 
REMARK    6  A    between atoms: C_25  and  C_26 
ROOT
HETATM    1  C   UNL     1      19.228  49.481  48.408  1.00  0.00     0.149 C 
HETATM    2  N   UNL     1      18.756  50.129  47.190  1.00  0.00    -0.220 NA
HETATM    3  C   UNL     1      18.144  51.329  47.457  1.00  0.00     0.304 C 
HETATM    4  O   UNL     1      17.826  52.117  46.585  1.00  0.00    -0.253 OA
HETATM    5  N   UNL     1      17.950  51.438  48.792  1.00  0.00    -0.270 N 
HETATM    6  C   UNL     1      18.624  50.447  49.451  1.00  0.00     0.257 C 
HETATM    7  O   UNL     1      18.698  50.306  50.664  1.00  0.00    -0.270 OA
HETATM    8  H   UNL     1      19.390  50.166  46.395  1.00  0.00     0.134 HD
ENDROOT
BRANCH   1   9
HETATM    9  C   UNL     1      20.755  49.487  48.381  1.00  0.00     0.067 A 
HETATM   10  C   UNL     1      21.501  50.402  47.643  1.00  0.00     0.030 A 
HETATM   11  C   UNL     1      22.891  50.331  47.696  1.00  0.00     0.003 A 
HETATM   12  C   UNL     1      23.504  49.367  48.488  1.00  0.00     0.019 A 
HETATM   13  C   UNL     1      22.700  48.506  49.208  1.00  0.00     0.117 A 
HETATM   14  N   UNL     1      21.348  48.548  49.182  1.00  0.00    -0.263 NA
ENDBRANCH   1   9
BRANCH   1  15
HETATM   15  C   UNL     1      18.660  48.029  48.587  1.00  0.00     0.028 C 
HETATM   16  C   UNL     1      18.956  47.072  47.419  1.00  0.00     0.035 C 
HETATM   17  C   UNL     1      18.164  47.379  46.156  1.00  0.00     0.235 C 
HETATM   18  N   UNL     1      16.681  47.488  46.428  1.00  0.00    -0.067 N 
HETATM   19  H   UNL     1      16.329  46.527  46.550  1.00  0.00     0.280 HD
HETATM   20  C   UNL     1      16.280  48.269  47.661  1.00  0.00     0.235 C 
HETATM   21  C   UNL     1      17.147  47.924  48.858  1.00  0.00     0.035 C 
BRANCH  18  22
HETATM   22  C   UNL     1      15.924  48.068  45.231  1.00  0.00     0.278 C 
BRANCH  22  23
HETATM   23  C   UNL     1      14.828  47.211  44.673  1.00  0.00     0.028 A 
HETATM   24  C   UNL     1      15.052  46.138  43.798  1.00  0.00     0.045 A 
HETATM   25 CL   UNL     1      16.642  45.664  43.322  1.00  0.00    -0.084 Cl
HETATM   26  C   UNL     1      13.980  45.392  43.296  1.00  0.00     0.024 A 
HETATM   27  C   UNL     1      12.672  45.707  43.663  1.00  0.00     0.005 A 
HETATM   28  C   UNL     1      12.435  46.762  44.539  1.00  0.00     0.043 A 
HETATM   29  C   UNL     1      13.508  47.496  45.033  1.00  0.00     0.126 A 
HETATM   30  F   UNL     1      13.276  48.493  45.899  1.00  0.00    -0.205 F 
ENDBRANCH  22  23
ENDBRANCH  18  22
ENDBRANCH   1  15
BRANCH   5  31
HETATM   31  C   UNL     1      17.162  52.488  49.414  1.00  0.00     0.168 C 
BRANCH  31  32
HETATM   32  C   UNL     1      15.652  52.213  49.275  1.00  0.00     0.140 C 
HETATM   33  O   UNL     1      14.999  52.433  50.553  1.00  0.00    -0.384 OA
HETATM   34  C   UNL     1      13.933  53.372  50.343  1.00  0.00     0.168 C 
HETATM   35  C   UNL     1      14.317  54.173  49.124  1.00  0.00     0.029 C 
HETATM   36  C   UNL     1      14.978  53.129  48.261  1.00  0.00     0.036 C 
ENDBRANCH  31  32
ENDBRANCH   5  31
TORSDOF 6
ENDMDL
MODEL 10
REMARK VINA RESULT:      -7.9     12.400     14.071
REMARK  6 active torsions:
REMARK  status: ('A' for Active; 'I' for Inactive)
REMARK    1  A    between atoms: C_3  and  C_4 
REMARK    2  A    between atoms: C_4  and  C_5 
REMARK    3  A    between atoms: N_8  and  C_10 
REMARK    4  A    between atoms: C_10  and  C_11 
REMARK    5  A    between atoms: N_24  and  C_25 
REMARK    6  A    between atoms: C_25  and  C_26 
ROOT
HETATM    1  C   UNL     1      30.100  49.596  41.012  1.00  0.00     0.149 C 
HETATM    2  N   UNL     1      30.906  49.150  39.882  1.00  0.00    -0.220 NA
HETATM    3  C   UNL     1      30.260  48.189  39.144  1.00  0.00     0.304 C 
HETATM    4  O   UNL     1      30.668  47.797  38.066  1.00  0.00    -0.253 OA
HETATM    5  N   UNL     1      29.167  47.771  39.825  1.00  0.00    -0.270 N 
HETATM    6  C   UNL     1      28.934  48.590  40.895  1.00  0.00     0.257 C 
HETATM    7  O   UNL     1      27.991  48.515  41.671  1.00  0.00    -0.270 OA
HETATM    8  H   UNL     1      31.359  49.862  39.311  1.00  0.00     0.134 HD
ENDROOT
BRANCH   1   9
HETATM    9  C   UNL     1      29.688  51.043  40.754  1.00  0.00     0.067 A 
HETATM   10  C   UNL     1      28.716  51.704  41.499  1.00  0.00     0.030 A 
HETATM   11  C   UNL     1      28.422  53.030  41.192  1.00  0.00     0.003 A 
HETATM   12  C   UNL     1      29.106  53.669  40.164  1.00  0.00     0.019 A 
HETATM   13  C   UNL     1      30.071  52.956  39.480  1.00  0.00     0.117 A 
HETATM   14  N   UNL     1      30.385  51.669  39.754  1.00  0.00    -0.263 NA
ENDBRANCH   1   9
BRANCH   1  15
HETATM   15  C   UNL     1      30.842  49.443  42.388  1.00  0.00     0.028 C 
HETATM   16  C   UNL     1      31.681  50.662  42.806  1.00  0.00     0.035 C 
HETATM   17  C   UNL     1      32.948  50.848  41.983  1.00  0.00     0.235 C 
HETATM   18  N   UNL     1      33.781  49.588  41.928  1.00  0.00    -0.067 N 
HETATM   19  H   UNL     1      34.252  49.501  42.840  1.00  0.00     0.280 HD
HETATM   20  C   UNL     1      33.028  48.296  41.692  1.00  0.00     0.235 C 
HETATM   21  C   UNL     1      31.763  48.216  42.526  1.00  0.00     0.035 C 
BRANCH  18  22
HETATM   22  C   UNL     1      34.894  49.687  40.883  1.00  0.00     0.278 C 
BRANCH  22  23
HETATM   23  C   UNL     1      35.520  51.040  40.722  1.00  0.00     0.028 A 
HETATM   24  C   UNL     1      36.522  51.537  41.568  1.00  0.00     0.045 A 
HETATM   25 CL   UNL     1      37.176  50.596  42.858  1.00  0.00    -0.084 Cl
HETATM   26  C   UNL     1      37.047  52.819  41.375  1.00  0.00     0.024 A 
HETATM   27  C   UNL     1      36.579  53.620  40.334  1.00  0.00     0.005 A 
HETATM   28  C   UNL     1      35.592  53.136  39.479  1.00  0.00     0.043 A 
HETATM   29  C   UNL     1      35.078  51.860  39.680  1.00  0.00     0.126 A 
HETATM   30  F   UNL     1      34.148  51.388  38.836  1.00  0.00    -0.205 F 
ENDBRANCH  22  23
ENDBRANCH  18  22
ENDBRANCH   1  15
BRANCH   5  31
HETATM   31  C   UNL     1      28.355  46.631  39.434  1.00  0.00     0.168 C 
BRANCH  31  32
HETATM   32  C   UNL     1      29.079  45.302  39.719  1.00  0.00     0.140 C 
HETATM   33  O   UNL     1      28.203  44.425  40.476  1.00  0.00    -0.384 OA
HETATM   34  C   UNL     1      28.109  43.181  39.763  1.00  0.00     0.168 C 
HETATM   35  C   UNL     1      28.402  43.506  38.319  1.00  0.00     0.029 C 
HETATM   36  C   UNL     1      29.471  44.560  38.447  1.00  0.00     0.036 C 
ENDBRANCH  31  32
ENDBRANCH   5  31
TORSDOF 6
ENDMDL
