MODEL 1
REMARK VINA RESULT:      -8.1      0.000      0.000
REMARK  9 active torsions:
REMARK  status: ('A' for Active; 'I' for Inactive)
REMARK    1  A    between atoms: C_2  and  C_3 
REMARK    2  A    between atoms: C_3  and  O_4 
REMARK    3  A    between atoms: C_3  and  C_5 
REMARK    4  A    between atoms: C_5  and  N_6 
REMARK    5  A    between atoms: N_6  and  C_8 
REMARK    6  A    between atoms: N_6  and  C_21 
REMARK    7  A    between atoms: C_8  and  C_9 
REMARK    8  A    between atoms: C_10  and  C_11 
REMARK    9  A    between atoms: C_21  and  C_22 
ROOT
HETATM    1  N   UNL     1      27.628  44.657  54.378  1.00  0.00    -0.061 N 
HETATM    2  H   UNL     1      27.485  44.957  55.344  1.00  0.00     0.280 HD
ENDROOT
BRANCH   1   3
HETATM    3  C   UNL     1      26.949  45.720  53.522  1.00  0.00     0.267 C 
BRANCH   3   4
HETATM    4  C   UNL     1      26.135  46.746  54.344  1.00  0.00     0.143 C 
BRANCH   4   5
HETATM    5  C   UNL     1      27.083  47.561  55.236  1.00  0.00     0.029 C 
HETATM    6  C   UNL     1      26.394  48.713  55.955  1.00  0.00     0.007 C 
ENDBRANCH   4   5
BRANCH   4   7
HETATM    7  O   UNL     1      25.441  47.614  53.450  1.00  0.00    -0.394 OA
HETATM    8  H   UNL     1      24.616  47.182  53.159  1.00  0.00     0.210 HD
ENDBRANCH   4   7
ENDBRANCH   3   4
ENDBRANCH   1   3
BRANCH   1   9
HETATM    9  C   UNL     1      27.034  43.262  54.328  1.00  0.00     0.277 C 
BRANCH   9  10
HETATM   10  C   UNL     1      27.597  42.239  53.403  1.00  0.00     0.016 A 
HETATM   11  C   UNL     1      27.381  42.206  51.982  1.00  0.00     0.096 A 
HETATM   12  N   UNL     1      27.963  41.133  51.431  1.00  0.00    -0.174 NA
HETATM   13  N   UNL     1      28.602  40.532  52.433  1.00  0.00    -0.288 N 
HETATM   14  H   UNL     1      29.150  39.702  52.223  1.00  0.00     0.188 HD
HETATM   15  C   UNL     1      28.394  41.134  53.641  1.00  0.00     0.120 A 
BRANCH  11  16
HETATM   16  C   UNL     1      26.606  43.128  51.154  1.00  0.00    -0.005 A 
HETATM   17  C   UNL     1      27.238  44.109  50.377  1.00  0.00     0.014 A 
HETATM   18  C   UNL     1      26.479  44.991  49.604  1.00  0.00     0.001 A 
HETATM   19  C   UNL     1      25.088  44.893  49.592  1.00  0.00     0.000 A 
HETATM   20  C   UNL     1      24.453  43.907  50.345  1.00  0.00     0.001 A 
HETATM   21  C   UNL     1      25.209  43.027  51.121  1.00  0.00     0.014 A 
ENDBRANCH  11  16
ENDBRANCH   9  10
ENDBRANCH   1   9
BRANCH   1  22
HETATM   22  C   UNL     1      29.132  44.614  54.191  1.00  0.00     0.273 C 
BRANCH  22  23
HETATM   23  C   UNL     1      29.887  44.493  55.488  1.00  0.00    -0.033 A 
HETATM   24  C   UNL     1      29.768  45.475  56.485  1.00  0.00     0.009 A 
HETATM   25  C   UNL     1      30.497  45.370  57.670  1.00  0.00     0.001 A 
HETATM   26  C   UNL     1      31.346  44.284  57.876  1.00  0.00     0.000 A 
HETATM   27  C   UNL     1      31.464  43.298  56.900  1.00  0.00     0.001 A 
HETATM   28  C   UNL     1      30.738  43.399  55.712  1.00  0.00     0.009 A 
ENDBRANCH  22  23
ENDBRANCH   1  22
TORSDOF 9
ENDMDL
MODEL 2
REMARK VINA RESULT:      -7.8      2.067      6.015
REMARK  9 active torsions:
REMARK  status: ('A' for Active; 'I' for Inactive)
REMARK    1  A    between atoms: C_2  and  C_3 
REMARK    2  A    between atoms: C_3  and  O_4 
REMARK    3  A    between atoms: C_3  and  C_5 
REMARK    4  A    between atoms: C_5  and  N_6 
REMARK    5  A    between atoms: N_6  and  C_8 
REMARK    6  A    between atoms: N_6  and  C_21 
REMARK    7  A    between atoms: C_8  and  C_9 
REMARK    8  A    between atoms: C_10  and  C_11 
REMARK    9  A    between atoms: C_21  and  C_22 
ROOT
HETATM    1  N   UNL     1      26.778  45.001  51.422  1.00  0.00    -0.061 N 
HETATM    2  H   UNL     1      27.114  45.900  51.772  1.00  0.00     0.280 HD
ENDROOT
BRANCH   1   3
HETATM    3  C   UNL     1      25.595  44.639  52.314  1.00  0.00     0.267 C 
BRANCH   3   4
HETATM    4  C   UNL     1      25.632  45.330  53.698  1.00  0.00     0.143 C 
BRANCH   4   5
HETATM    5  C   UNL     1      25.586  46.854  53.514  1.00  0.00     0.029 C 
HETATM    6  C   UNL     1      26.401  47.612  54.554  1.00  0.00     0.007 C 
ENDBRANCH   4   5
BRANCH   4   7
HETATM    7  O   UNL     1      24.510  44.898  54.465  1.00  0.00    -0.394 OA
HETATM    8  H   UNL     1      24.410  45.481  55.241  1.00  0.00     0.210 HD
ENDBRANCH   4   7
ENDBRANCH   3   4
ENDBRANCH   1   3
BRANCH   1   9
HETATM    9  C   UNL     1      27.990  44.092  51.501  1.00  0.00     0.277 C 
BRANCH   9  10
HETATM   10  C   UNL     1      27.887  42.758  52.156  1.00  0.00     0.016 A 
HETATM   11  C   UNL     1      28.415  42.436  53.453  1.00  0.00     0.096 A 
HETATM   12  N   UNL     1      28.223  41.143  53.744  1.00  0.00    -0.174 NA
HETATM   13  N   UNL     1      27.527  40.656  52.717  1.00  0.00    -0.288 N 
HETATM   14  H   UNL     1      27.236  39.683  52.753  1.00  0.00     0.188 HD
HETATM   15  C   UNL     1      27.323  41.572  51.725  1.00  0.00     0.120 A 
BRANCH  11  16
HETATM   16  C   UNL     1      29.130  43.301  54.390  1.00  0.00    -0.005 A 
HETATM   17  C   UNL     1      28.584  44.521  54.809  1.00  0.00     0.014 A 
HETATM   18  C   UNL     1      29.290  45.342  55.692  1.00  0.00     0.001 A 
HETATM   19  C   UNL     1      30.538  44.944  56.173  1.00  0.00     0.000 A 
HETATM   20  C   UNL     1      31.078  43.722  55.778  1.00  0.00     0.001 A 
HETATM   21  C   UNL     1      30.376  42.902  54.892  1.00  0.00     0.014 A 
ENDBRANCH  11  16
ENDBRANCH   9  10
ENDBRANCH   1   9
BRANCH   1  22
HETATM   22  C   UNL     1      26.380  45.255  49.982  1.00  0.00     0.273 C 
BRANCH  22  23
HETATM   23  C   UNL     1      26.319  46.719  49.634  1.00  0.00    -0.033 A 
HETATM   24  C   UNL     1      25.094  47.403  49.612  1.00  0.00     0.009 A 
HETATM   25  C   UNL     1      25.044  48.752  49.257  1.00  0.00     0.001 A 
HETATM   26  C   UNL     1      26.215  49.432  48.926  1.00  0.00     0.000 A 
HETATM   27  C   UNL     1      27.438  48.767  48.955  1.00  0.00     0.001 A 
HETATM   28  C   UNL     1      27.492  47.418  49.308  1.00  0.00     0.009 A 
ENDBRANCH  22  23
ENDBRANCH   1  22
TORSDOF 9
ENDMDL
MODEL 3
REMARK VINA RESULT:      -7.8     13.102     15.572
REMARK  9 active torsions:
REMARK  status: ('A' for Active; 'I' for Inactive)
REMARK    1  A    between atoms: C_2  and  C_3 
REMARK    2  A    between atoms: C_3  and  O_4 
REMARK    3  A    between atoms: C_3  and  C_5 
REMARK    4  A    between atoms: C_5  and  N_6 
REMARK    5  A    between atoms: N_6  and  C_8 
REMARK    6  A    between atoms: N_6  and  C_21 
REMARK    7  A    between atoms: C_8  and  C_9 
REMARK    8  A    between atoms: C_10  and  C_11 
REMARK    9  A    between atoms: C_21  and  C_22 
ROOT
HETATM    1  N   UNL     1      29.765  48.709  41.165  1.00  0.00    -0.061 N 
HETATM    2  H   UNL     1      30.423  49.055  40.464  1.00  0.00     0.280 HD
ENDROOT
BRANCH   1   3
HETATM    3  C   UNL     1      29.335  47.333  40.669  1.00  0.00     0.267 C 
BRANCH   3   4
HETATM    4  C   UNL     1      29.847  47.002  39.247  1.00  0.00     0.143 C 
BRANCH   4   5
HETATM    5  C   UNL     1      28.727  47.248  38.225  1.00  0.00     0.029 C 
HETATM    6  C   UNL     1      27.430  46.526  38.566  1.00  0.00     0.007 C 
ENDBRANCH   4   5
BRANCH   4   7
HETATM    7  O   UNL     1      30.968  47.832  38.951  1.00  0.00    -0.394 OA
HETATM    8  H   UNL     1      31.064  48.503  39.652  1.00  0.00     0.210 HD
ENDBRANCH   4   7
ENDBRANCH   3   4
ENDBRANCH   1   3
BRANCH   1   9
HETATM    9  C   UNL     1      28.689  49.776  41.226  1.00  0.00     0.277 C 
BRANCH   9  10
HETATM   10  C   UNL     1      28.146  50.365  39.970  1.00  0.00     0.016 A 
HETATM   11  C   UNL     1      28.892  51.183  39.054  1.00  0.00     0.096 A 
HETATM   12  N   UNL     1      28.117  51.617  38.053  1.00  0.00    -0.174 NA
HETATM   13  N   UNL     1      26.933  51.042  38.257  1.00  0.00    -0.288 N 
HETATM   14  H   UNL     1      26.195  51.210  37.578  1.00  0.00     0.188 HD
HETATM   15  C   UNL     1      26.884  50.306  39.406  1.00  0.00     0.120 A 
BRANCH  11  16
HETATM   16  C   UNL     1      30.293  51.597  39.132  1.00  0.00    -0.005 A 
HETATM   17  C   UNL     1      31.257  51.052  38.275  1.00  0.00     0.014 A 
HETATM   18  C   UNL     1      32.593  51.449  38.375  1.00  0.00     0.001 A 
HETATM   19  C   UNL     1      32.972  52.400  39.322  1.00  0.00     0.000 A 
HETATM   20  C   UNL     1      32.015  52.963  40.164  1.00  0.00     0.001 A 
HETATM   21  C   UNL     1      30.680  52.565  40.068  1.00  0.00     0.014 A 
ENDBRANCH  11  16
ENDBRANCH   9  10
ENDBRANCH   1   9
BRANCH   1  22
HETATM   22  C   UNL     1      30.552  48.655  42.460  1.00  0.00     0.273 C 
BRANCH  22  23
HETATM   23  C   UNL     1      31.831  49.449  42.410  1.00  0.00    -0.033 A 
HETATM   24  C   UNL     1      32.877  49.075  41.552  1.00  0.00     0.009 A 
HETATM   25  C   UNL     1      34.070  49.798  41.537  1.00  0.00     0.001 A 
HETATM   26  C   UNL     1      34.230  50.903  42.370  1.00  0.00     0.000 A 
HETATM   27  C   UNL     1      33.194  51.292  43.217  1.00  0.00     0.001 A 
HETATM   28  C   UNL     1      32.000  50.570  43.237  1.00  0.00     0.009 A 
ENDBRANCH  22  23
ENDBRANCH   1  22
TORSDOF 9
ENDMDL
MODEL 4
REMARK VINA RESULT:      -7.7      3.107      4.918
REMARK  9 active torsions:
REMARK  status: ('A' for Active; 'I' for Inactive)
REMARK    1  A    between atoms: C_2  and  C_3 
REMARK    2  A    between atoms: C_3  and  O_4 
REMARK    3  A    between atoms: C_3  and  C_5 
REMARK    4  A    between atoms: C_5  and  N_6 
REMARK    5  A    between atoms: N_6  and  C_8 
REMARK    6  A    between atoms: N_6  and  C_21 
REMARK    7  A    between atoms: C_8  and  C_9 
REMARK    8  A    between atoms: C_10  and  C_11 
REMARK    9  A    between atoms: C_21  and  C_22 
ROOT
HETATM    1  N   UNL     1      27.468  44.891  52.463  1.00  0.00    -0.061 N 
HETATM    2  H   UNL     1      28.307  45.470  52.548  1.00  0.00     0.280 HD
ENDROOT
BRANCH   1   3
HETATM    3  C   UNL     1      27.733  43.972  51.275  1.00  0.00     0.267 C 
BRANCH   3   4
HETATM    4  C   UNL     1      27.506  42.475  51.592  1.00  0.00     0.143 C 
BRANCH   4   5
HETATM    5  C   UNL     1      26.529  41.874  50.570  1.00  0.00     0.029 C 
HETATM    6  C   UNL     1      26.478  42.646  49.258  1.00  0.00     0.007 C 
ENDBRANCH   4   5
BRANCH   4   7
HETATM    7  O   UNL     1      28.755  41.791  51.531  1.00  0.00    -0.394 OA
HETATM    8  H   UNL     1      28.684  40.950  52.021  1.00  0.00     0.210 HD
ENDBRANCH   4   7
ENDBRANCH   3   4
ENDBRANCH   1   3
BRANCH   1   9
HETATM    9  C   UNL     1      26.339  45.891  52.309  1.00  0.00     0.277 C 
BRANCH   9  10
HETATM   10  C   UNL     1      25.199  45.601  51.394  1.00  0.00     0.016 A 
HETATM   11  C   UNL     1      24.879  46.355  50.213  1.00  0.00     0.096 A 
HETATM   12  N   UNL     1      23.764  45.893  49.635  1.00  0.00    -0.174 NA
HETATM   13  N   UNL     1      23.411  44.831  50.358  1.00  0.00    -0.288 N 
HETATM   14  H   UNL     1      22.597  44.299  50.063  1.00  0.00     0.188 HD
HETATM   15  C   UNL     1      24.218  44.627  51.441  1.00  0.00     0.120 A 
BRANCH  11  16
HETATM   16  C   UNL     1      25.569  47.516  49.655  1.00  0.00    -0.005 A 
HETATM   17  C   UNL     1      26.968  47.570  49.600  1.00  0.00     0.014 A 
HETATM   18  C   UNL     1      27.610  48.695  49.078  1.00  0.00     0.001 A 
HETATM   19  C   UNL     1      26.860  49.768  48.596  1.00  0.00     0.000 A 
HETATM   20  C   UNL     1      25.468  49.714  48.628  1.00  0.00     0.001 A 
HETATM   21  C   UNL     1      24.825  48.592  49.153  1.00  0.00     0.014 A 
ENDBRANCH  11  16
ENDBRANCH   9  10
ENDBRANCH   1   9
BRANCH   1  22
HETATM   22  C   UNL     1      27.361  44.147  53.779  1.00  0.00     0.273 C 
BRANCH  22  23
HETATM   23  C   UNL     1      28.606  44.246  54.620  1.00  0.00    -0.033 A 
HETATM   24  C   UNL     1      29.550  43.207  54.634  1.00  0.00     0.009 A 
HETATM   25  C   UNL     1      30.685  43.295  55.441  1.00  0.00     0.001 A 
HETATM   26  C   UNL     1      30.893  44.420  56.236  1.00  0.00     0.000 A 
HETATM   27  C   UNL     1      29.969  45.463  56.222  1.00  0.00     0.001 A 
HETATM   28  C   UNL     1      28.832  45.379  55.418  1.00  0.00     0.009 A 
ENDBRANCH  22  23
ENDBRANCH   1  22
TORSDOF 9
ENDMDL
MODEL 5
REMARK VINA RESULT:      -7.7      8.505     11.787
REMARK  9 active torsions:
REMARK  status: ('A' for Active; 'I' for Inactive)
REMARK    1  A    between atoms: C_2  and  C_3 
REMARK    2  A    between atoms: C_3  and  O_4 
REMARK    3  A    between atoms: C_3  and  C_5 
REMARK    4  A    between atoms: C_5  and  N_6 
REMARK    5  A    between atoms: N_6  and  C_8 
REMARK    6  A    between atoms: N_6  and  C_21 
REMARK    7  A    between atoms: C_8  and  C_9 
REMARK    8  A    between atoms: C_10  and  C_11 
REMARK    9  A    between atoms: C_21  and  C_22 
ROOT
HETATM    1  N   UNL     1      21.237  48.755  48.271  1.00  0.00    -0.061 N 
HETATM    2  H   UNL     1      21.304  49.649  47.779  1.00  0.00     0.280 HD
ENDROOT
BRANCH   1   3
HETATM    3  C   UNL     1      22.665  48.416  48.686  1.00  0.00     0.267 C 
BRANCH   3   4
HETATM    4  C   UNL     1      23.642  49.609  48.565  1.00  0.00     0.143 C 
BRANCH   4   5
HETATM    5  C   UNL     1      25.069  49.141  48.886  1.00  0.00     0.029 C 
HETATM    6  C   UNL     1      26.140  49.887  48.101  1.00  0.00     0.007 C 
ENDBRANCH   4   5
BRANCH   4   7
HETATM    7  O   UNL     1      23.586  50.124  47.236  1.00  0.00    -0.394 OA
HETATM    8  H   UNL     1      22.862  50.775  47.175  1.00  0.00     0.210 HD
ENDBRANCH   4   7
ENDBRANCH   3   4
ENDBRANCH   1   3
BRANCH   1   9
HETATM    9  C   UNL     1      20.583  47.825  47.267  1.00  0.00     0.277 C 
BRANCH   9  10
HETATM   10  C   UNL     1      19.633  46.774  47.726  1.00  0.00     0.016 A 
HETATM   11  C   UNL     1      18.204  46.922  47.777  1.00  0.00     0.096 A 
HETATM   12  N   UNL     1      17.625  45.831  48.293  1.00  0.00    -0.174 NA
HETATM   13  N   UNL     1      18.622  44.971  48.496  1.00  0.00    -0.288 N 
HETATM   14  H   UNL     1      18.394  44.048  48.854  1.00  0.00     0.188 HD
HETATM   15  C   UNL     1      19.849  45.493  48.202  1.00  0.00     0.120 A 
BRANCH  11  16
HETATM   16  C   UNL     1      17.390  48.077  47.399  1.00  0.00    -0.005 A 
HETATM   17  C   UNL     1      17.776  48.921  46.350  1.00  0.00     0.014 A 
HETATM   18  C   UNL     1      16.994  50.029  46.014  1.00  0.00     0.001 A 
HETATM   19  C   UNL     1      15.816  50.293  46.714  1.00  0.00     0.000 A 
HETATM   20  C   UNL     1      15.414  49.445  47.744  1.00  0.00     0.001 A 
HETATM   21  C   UNL     1      16.197  48.340  48.084  1.00  0.00     0.014 A 
ENDBRANCH  11  16
ENDBRANCH   9  10
ENDBRANCH   1   9
BRANCH   1  22
HETATM   22  C   UNL     1      20.321  49.014  49.450  1.00  0.00     0.273 C 
BRANCH  22  23
HETATM   23  C   UNL     1      19.499  50.267  49.298  1.00  0.00    -0.033 A 
HETATM   24  C   UNL     1      19.898  51.288  48.421  1.00  0.00     0.009 A 
HETATM   25  C   UNL     1      19.147  52.458  48.311  1.00  0.00     0.001 A 
HETATM   26  C   UNL     1      17.988  52.620  49.069  1.00  0.00     0.000 A 
HETATM   27  C   UNL     1      17.575  51.610  49.933  1.00  0.00     0.001 A 
HETATM   28  C   UNL     1      18.324  50.438  50.048  1.00  0.00     0.009 A 
ENDBRANCH  22  23
ENDBRANCH   1  22
TORSDOF 9
ENDMDL
MODEL 6
REMARK VINA RESULT:      -7.6      4.247      6.606
REMARK  9 active torsions:
REMARK  status: ('A' for Active; 'I' for Inactive)
REMARK    1  A    between atoms: C_2  and  C_3 
REMARK    2  A    between atoms: C_3  and  O_4 
REMARK    3  A    between atoms: C_3  and  C_5 
REMARK    4  A    between atoms: C_5  and  N_6 
REMARK    5  A    between atoms: N_6  and  C_8 
REMARK    6  A    between atoms: N_6  and  C_21 
REMARK    7  A    between atoms: C_8  and  C_9 
REMARK    8  A    between atoms: C_10  and  C_11 
REMARK    9  A    between atoms: C_21  and  C_22 
ROOT
HETATM    1  N   UNL     1      25.570  45.940  51.038  1.00  0.00    -0.061 N 
HETATM    2  H   UNL     1      26.574  46.135  51.036  1.00  0.00     0.280 HD
ENDROOT
BRANCH   1   3
HETATM    3  C   UNL     1      25.404  44.681  50.194  1.00  0.00     0.267 C 
BRANCH   3   4
HETATM    4  C   UNL     1      26.670  43.793  50.155  1.00  0.00     0.143 C 
BRANCH   4   5
HETATM    5  C   UNL     1      26.521  42.638  51.157  1.00  0.00     0.029 C 
HETATM    6  C   UNL     1      27.832  42.245  51.824  1.00  0.00     0.007 C 
ENDBRANCH   4   5
BRANCH   4   7
HETATM    7  O   UNL     1      26.835  43.275  48.837  1.00  0.00    -0.394 OA
HETATM    8  H   UNL     1      27.497  43.813  48.362  1.00  0.00     0.210 HD
ENDBRANCH   4   7
ENDBRANCH   3   4
ENDBRANCH   1   3
BRANCH   1   9
HETATM    9  C   UNL     1      24.942  47.209  50.495  1.00  0.00     0.277 C 
BRANCH   9  10
HETATM   10  C   UNL     1      25.740  48.137  49.645  1.00  0.00     0.016 A 
HETATM   11  C   UNL     1      25.187  49.156  48.795  1.00  0.00     0.096 A 
HETATM   12  N   UNL     1      26.149  49.784  48.108  1.00  0.00    -0.174 NA
HETATM   13  N   UNL     1      27.291  49.257  48.547  1.00  0.00    -0.288 N 
HETATM   14  H   UNL     1      28.163  49.625  48.176  1.00  0.00     0.188 HD
HETATM   15  C   UNL     1      27.104  48.246  49.446  1.00  0.00     0.120 A 
BRANCH  11  16
HETATM   16  C   UNL     1      23.784  49.510  48.587  1.00  0.00    -0.005 A 
HETATM   17  C   UNL     1      22.867  48.575  48.089  1.00  0.00     0.014 A 
HETATM   18  C   UNL     1      21.534  48.937  47.883  1.00  0.00     0.001 A 
HETATM   19  C   UNL     1      21.105  50.230  48.182  1.00  0.00     0.000 A 
HETATM   20  C   UNL     1      22.005  51.160  48.698  1.00  0.00     0.001 A 
HETATM   21  C   UNL     1      23.339  50.801  48.902  1.00  0.00     0.014 A 
ENDBRANCH  11  16
ENDBRANCH   9  10
ENDBRANCH   1   9
BRANCH   1  22
HETATM   22  C   UNL     1      25.205  45.732  52.494  1.00  0.00     0.273 C 
BRANCH  22  23
HETATM   23  C   UNL     1      26.311  46.113  53.443  1.00  0.00    -0.033 A 
HETATM   24  C   UNL     1      27.306  45.189  53.798  1.00  0.00     0.009 A 
HETATM   25  C   UNL     1      28.308  45.542  54.703  1.00  0.00     0.001 A 
HETATM   26  C   UNL     1      28.332  46.821  55.256  1.00  0.00     0.000 A 
HETATM   27  C   UNL     1      27.358  47.751  54.903  1.00  0.00     0.001 A 
HETATM   28  C   UNL     1      26.353  47.401  54.000  1.00  0.00     0.009 A 
ENDBRANCH  22  23
ENDBRANCH   1  22
TORSDOF 9
ENDMDL
MODEL 7
REMARK VINA RESULT:      -7.5      2.676      7.320
REMARK  9 active torsions:
REMARK  status: ('A' for Active; 'I' for Inactive)
REMARK    1  A    between atoms: C_2  and  C_3 
REMARK    2  A    between atoms: C_3  and  O_4 
REMARK    3  A    between atoms: C_3  and  C_5 
REMARK    4  A    between atoms: C_5  and  N_6 
REMARK    5  A    between atoms: N_6  and  C_8 
REMARK    6  A    between atoms: N_6  and  C_21 
REMARK    7  A    between atoms: C_8  and  C_9 
REMARK    8  A    between atoms: C_10  and  C_11 
REMARK    9  A    between atoms: C_21  and  C_22 
ROOT
HETATM    1  N   UNL     1      26.007  45.489  51.054  1.00  0.00    -0.061 N 
HETATM    2  H   UNL     1      25.250  46.145  51.257  1.00  0.00     0.280 HD
ENDROOT
BRANCH   1   3
HETATM    3  C   UNL     1      25.356  44.348  50.282  1.00  0.00     0.267 C 
BRANCH   3   4
HETATM    4  C   UNL     1      23.922  44.019  50.760  1.00  0.00     0.143 C 
BRANCH   4   5
HETATM    5  C   UNL     1      22.980  43.940  49.550  1.00  0.00     0.029 C 
HETATM    6  C   UNL     1      23.577  44.533  48.280  1.00  0.00     0.007 C 
ENDBRANCH   4   5
BRANCH   4   7
HETATM    7  O   UNL     1      23.935  42.771  51.449  1.00  0.00    -0.394 OA
HETATM    8  H   UNL     1      23.038  42.386  51.432  1.00  0.00     0.210 HD
ENDBRANCH   4   7
ENDBRANCH   3   4
ENDBRANCH   1   3
BRANCH   1   9
HETATM    9  C   UNL     1      26.580  45.148  52.417  1.00  0.00     0.277 C 
BRANCH   9  10
HETATM   10  C   UNL     1      26.633  46.181  53.489  1.00  0.00     0.016 A 
HETATM   11  C   UNL     1      27.560  46.181  54.587  1.00  0.00     0.096 A 
HETATM   12  N   UNL     1      27.321  47.201  55.420  1.00  0.00    -0.174 NA
HETATM   13  N   UNL     1      26.333  47.890  54.850  1.00  0.00    -0.288 N 
HETATM   14  H   UNL     1      26.016  48.741  55.307  1.00  0.00     0.188 HD
HETATM   15  C   UNL     1      25.862  47.308  53.708  1.00  0.00     0.120 A 
BRANCH  11  16
HETATM   16  C   UNL     1      28.621  45.220  54.888  1.00  0.00    -0.005 A 
HETATM   17  C   UNL     1      29.632  45.524  55.808  1.00  0.00     0.014 A 
HETATM   18  C   UNL     1      30.647  44.599  56.069  1.00  0.00     0.001 A 
HETATM   19  C   UNL     1      30.650  43.363  55.424  1.00  0.00     0.000 A 
HETATM   20  C   UNL     1      29.636  43.044  54.524  1.00  0.00     0.001 A 
HETATM   21  C   UNL     1      28.623  43.969  54.258  1.00  0.00     0.014 A 
ENDBRANCH  11  16
ENDBRANCH   9  10
ENDBRANCH   1   9
BRANCH   1  22
HETATM   22  C   UNL     1      27.005  46.274  50.226  1.00  0.00     0.273 C 
BRANCH  22  23
HETATM   23  C   UNL     1      26.427  47.536  49.641  1.00  0.00    -0.033 A 
HETATM   24  C   UNL     1      25.040  47.750  49.620  1.00  0.00     0.009 A 
HETATM   25  C   UNL     1      24.513  48.908  49.046  1.00  0.00     0.001 A 
HETATM   26  C   UNL     1      25.363  49.865  48.494  1.00  0.00     0.000 A 
HETATM   27  C   UNL     1      26.742  49.669  48.519  1.00  0.00     0.001 A 
HETATM   28  C   UNL     1      27.273  48.512  49.090  1.00  0.00     0.009 A 
ENDBRANCH  22  23
ENDBRANCH   1  22
TORSDOF 9
ENDMDL
MODEL 8
REMARK VINA RESULT:      -7.4      2.643      7.089
REMARK  9 active torsions:
REMARK  status: ('A' for Active; 'I' for Inactive)
REMARK    1  A    between atoms: C_2  and  C_3 
REMARK    2  A    between atoms: C_3  and  O_4 
REMARK    3  A    between atoms: C_3  and  C_5 
REMARK    4  A    between atoms: C_5  and  N_6 
REMARK    5  A    between atoms: N_6  and  C_8 
REMARK    6  A    between atoms: N_6  and  C_21 
REMARK    7  A    between atoms: C_8  and  C_9 
REMARK    8  A    between atoms: C_10  and  C_11 
REMARK    9  A    between atoms: C_21  and  C_22 
ROOT
HETATM    1  N   UNL     1      25.303  45.319  51.731  1.00  0.00    -0.061 N 
HETATM    2  H   UNL     1      24.417  45.819  51.628  1.00  0.00     0.280 HD
ENDROOT
BRANCH   1   3
HETATM    3  C   UNL     1      25.119  44.015  50.963  1.00  0.00     0.267 C 
BRANCH   3   4
HETATM    4  C   UNL     1      25.984  43.925  49.683  1.00  0.00     0.143 C 
BRANCH   4   5
HETATM    5  C   UNL     1      26.812  42.631  49.710  1.00  0.00     0.029 C 
HETATM    6  C   UNL     1      26.439  41.700  50.856  1.00  0.00     0.007 C 
ENDBRANCH   4   5
BRANCH   4   7
HETATM    7  O   UNL     1      25.130  43.934  48.541  1.00  0.00    -0.394 OA
HETATM    8  H   UNL     1      24.253  44.272  48.800  1.00  0.00     0.210 HD
ENDBRANCH   4   7
ENDBRANCH   3   4
ENDBRANCH   1   3
BRANCH   1   9
HETATM    9  C   UNL     1      25.495  45.202  53.231  1.00  0.00     0.277 C 
BRANCH   9  10
HETATM   10  C   UNL     1      26.297  46.220  53.966  1.00  0.00     0.016 A 
HETATM   11  C   UNL     1      27.653  46.038  54.405  1.00  0.00     0.096 A 
HETATM   12  N   UNL     1      28.084  47.103  55.093  1.00  0.00    -0.174 NA
HETATM   13  N   UNL     1      27.082  47.979  55.038  1.00  0.00    -0.288 N 
HETATM   14  H   UNL     1      27.216  48.888  55.473  1.00  0.00     0.188 HD
HETATM   15  C   UNL     1      25.977  47.493  54.401  1.00  0.00     0.120 A 
BRANCH  11  16
HETATM   16  C   UNL     1      28.522  44.875  54.232  1.00  0.00    -0.005 A 
HETATM   17  C   UNL     1      28.459  44.091  53.073  1.00  0.00     0.014 A 
HETATM   18  C   UNL     1      29.287  42.974  52.933  1.00  0.00     0.001 A 
HETATM   19  C   UNL     1      30.189  42.640  53.942  1.00  0.00     0.000 A 
HETATM   20  C   UNL     1      30.273  43.427  55.089  1.00  0.00     0.001 A 
HETATM   21  C   UNL     1      29.445  44.541  55.233  1.00  0.00     0.014 A 
ENDBRANCH  11  16
ENDBRANCH   9  10
ENDBRANCH   1   9
BRANCH   1  22
HETATM   22  C   UNL     1      26.349  46.228  51.117  1.00  0.00     0.273 C 
BRANCH  22  23
HETATM   23  C   UNL     1      25.759  47.323  50.268  1.00  0.00    -0.033 A 
HETATM   24  C   UNL     1      26.585  48.235  49.593  1.00  0.00     0.009 A 
HETATM   25  C   UNL     1      26.028  49.265  48.834  1.00  0.00     0.001 A 
HETATM   26  C   UNL     1      24.643  49.392  48.736  1.00  0.00     0.000 A 
HETATM   27  C   UNL     1      23.813  48.486  49.391  1.00  0.00     0.001 A 
HETATM   28  C   UNL     1      24.366  47.455  50.152  1.00  0.00     0.009 A 
ENDBRANCH  22  23
ENDBRANCH   1  22
TORSDOF 9
ENDMDL
MODEL 9
REMARK VINA RESULT:      -7.3      3.117      6.159
REMARK  9 active torsions:
REMARK  status: ('A' for Active; 'I' for Inactive)
REMARK    1  A    between atoms: C_2  and  C_3 
REMARK    2  A    between atoms: C_3  and  O_4 
REMARK    3  A    between atoms: C_3  and  C_5 
REMARK    4  A    between atoms: C_5  and  N_6 
REMARK    5  A    between atoms: N_6  and  C_8 
REMARK    6  A    between atoms: N_6  and  C_21 
REMARK    7  A    between atoms: C_8  and  C_9 
REMARK    8  A    between atoms: C_10  and  C_11 
REMARK    9  A    between atoms: C_21  and  C_22 
ROOT
HETATM    1  N   UNL     1      25.986  42.133  50.336  1.00  0.00    -0.061 N 
HETATM    2  H   UNL     1      26.649  42.911  50.303  1.00  0.00     0.280 HD
ENDROOT
BRANCH   1   3
HETATM    3  C   UNL     1      26.028  41.510  48.945  1.00  0.00     0.267 C 
BRANCH   3   4
HETATM    4  C   UNL     1      27.460  41.195  48.454  1.00  0.00     0.143 C 
BRANCH   4   5
HETATM    5  C   UNL     1      27.664  39.673  48.399  1.00  0.00     0.029 C 
HETATM    6  C   UNL     1      28.930  39.208  49.108  1.00  0.00     0.007 C 
ENDBRANCH   4   5
BRANCH   4   7
HETATM    7  O   UNL     1      27.642  41.757  47.156  1.00  0.00    -0.394 OA
HETATM    8  H   UNL     1      28.595  41.900  46.999  1.00  0.00     0.210 HD
ENDBRANCH   4   7
ENDBRANCH   3   4
ENDBRANCH   1   3
BRANCH   1   9
HETATM    9  C   UNL     1      24.677  42.776  50.752  1.00  0.00     0.277 C 
BRANCH   9  10
HETATM   10  C   UNL     1      24.470  44.241  50.575  1.00  0.00     0.016 A 
HETATM   11  C   UNL     1      24.937  45.254  51.482  1.00  0.00     0.096 A 
HETATM   12  N   UNL     1      24.544  46.471  51.088  1.00  0.00    -0.174 NA
HETATM   13  N   UNL     1      23.917  46.276  49.930  1.00  0.00    -0.288 N 
HETATM   14  H   UNL     1      23.566  47.089  49.431  1.00  0.00     0.188 HD
HETATM   15  C   UNL     1      23.817  44.957  49.589  1.00  0.00     0.120 A 
BRANCH  11  16
HETATM   16  C   UNL     1      25.695  45.091  52.722  1.00  0.00    -0.005 A 
HETATM   17  C   UNL     1      26.783  45.922  53.019  1.00  0.00     0.014 A 
HETATM   18  C   UNL     1      27.505  45.741  54.202  1.00  0.00     0.001 A 
HETATM   19  C   UNL     1      27.138  44.738  55.099  1.00  0.00     0.000 A 
HETATM   20  C   UNL     1      26.044  43.921  54.821  1.00  0.00     0.001 A 
HETATM   21  C   UNL     1      25.323  44.098  53.638  1.00  0.00     0.014 A 
ENDBRANCH  11  16
ENDBRANCH   9  10
ENDBRANCH   1   9
BRANCH   1  22
HETATM   22  C   UNL     1      26.507  41.209  51.418  1.00  0.00     0.273 C 
BRANCH  22  23
HETATM   23  C   UNL     1      27.674  41.783  52.177  1.00  0.00    -0.033 A 
HETATM   24  C   UNL     1      28.399  42.872  51.667  1.00  0.00     0.009 A 
HETATM   25  C   UNL     1      29.498  43.376  52.363  1.00  0.00     0.001 A 
HETATM   26  C   UNL     1      29.882  42.805  53.575  1.00  0.00     0.000 A 
HETATM   27  C   UNL     1      29.163  41.733  54.097  1.00  0.00     0.001 A 
HETATM   28  C   UNL     1      28.064  41.224  53.404  1.00  0.00     0.009 A 
ENDBRANCH  22  23
ENDBRANCH   1  22
TORSDOF 9
ENDMDL
MODEL 10
REMARK VINA RESULT:      -7.2     14.307     16.765
REMARK  9 active torsions:
REMARK  status: ('A' for Active; 'I' for Inactive)
REMARK    1  A    between atoms: C_2  and  C_3 
REMARK    2  A    between atoms: C_3  and  O_4 
REMARK    3  A    between atoms: C_3  and  C_5 
REMARK    4  A    between atoms: C_5  and  N_6 
REMARK    5  A    between atoms: N_6  and  C_8 
REMARK    6  A    between atoms: N_6  and  C_21 
REMARK    7  A    between atoms: C_8  and  C_9 
REMARK    8  A    between atoms: C_10  and  C_11 
REMARK    9  A    between atoms: C_21  and  C_22 
ROOT
HETATM    1  N   UNL     1      37.843  44.129  65.157  1.00  0.00    -0.061 N 
HETATM    2  H   UNL     1      38.078  44.108  64.162  1.00  0.00     0.280 HD
ENDROOT
BRANCH   1   3
HETATM    3  C   UNL     1      36.587  44.986  65.256  1.00  0.00     0.267 C 
BRANCH   3   4
HETATM    4  C   UNL     1      36.408  45.959  64.066  1.00  0.00     0.143 C 
BRANCH   4   5
HETATM    5  C   UNL     1      36.648  47.400  64.538  1.00  0.00     0.029 C 
HETATM    6  C   UNL     1      36.349  47.610  66.016  1.00  0.00     0.007 C 
ENDBRANCH   4   5
BRANCH   4   7
HETATM    7  O   UNL     1      37.341  45.619  63.043  1.00  0.00    -0.394 OA
HETATM    8  H   UNL     1      37.999  46.335  62.959  1.00  0.00     0.210 HD
ENDBRANCH   4   7
ENDBRANCH   3   4
ENDBRANCH   1   3
BRANCH   1   9
HETATM    9  C   UNL     1      39.092  44.675  65.824  1.00  0.00     0.277 C 
BRANCH   9  10
HETATM   10  C   UNL     1      40.299  44.991  65.010  1.00  0.00     0.016 A 
HETATM   11  C   UNL     1      40.856  46.305  64.840  1.00  0.00     0.096 A 
HETATM   12  N   UNL     1      41.901  46.280  64.003  1.00  0.00    -0.174 NA
HETATM   13  N   UNL     1      42.074  44.995  63.701  1.00  0.00    -0.288 N 
HETATM   14  H   UNL     1      42.853  44.744  63.097  1.00  0.00     0.188 HD
HETATM   15  C   UNL     1      41.126  44.181  64.253  1.00  0.00     0.120 A 
BRANCH  11  16
HETATM   16  C   UNL     1      40.397  47.572  65.405  1.00  0.00    -0.005 A 
HETATM   17  C   UNL     1      40.440  47.806  66.786  1.00  0.00     0.014 A 
HETATM   18  C   UNL     1      39.982  49.018  67.309  1.00  0.00     0.001 A 
HETATM   19  C   UNL     1      39.491  50.007  66.457  1.00  0.00     0.000 A 
HETATM   20  C   UNL     1      39.465  49.791  65.081  1.00  0.00     0.001 A 
HETATM   21  C   UNL     1      39.918  48.579  64.557  1.00  0.00     0.014 A 
ENDBRANCH  11  16
ENDBRANCH   9  10
ENDBRANCH   1   9
BRANCH   1  22
HETATM   22  C   UNL     1      37.608  42.682  65.543  1.00  0.00     0.273 C 
BRANCH  22  23
HETATM   23  C   UNL     1      38.239  41.704  64.588  1.00  0.00    -0.033 A 
HETATM   24  C   UNL     1      38.744  40.476  65.044  1.00  0.00     0.009 A 
HETATM   25  C   UNL     1      39.356  39.590  64.156  1.00  0.00     0.001 A 
HETATM   26  C   UNL     1      39.465  39.916  62.806  1.00  0.00     0.000 A 
HETATM   27  C   UNL     1      38.957  41.126  62.339  1.00  0.00     0.001 A 
HETATM   28  C   UNL     1      38.346  42.016  63.223  1.00  0.00     0.009 A 
ENDBRANCH  22  23
ENDBRANCH   1  22
TORSDOF 9
ENDMDL
