MODEL 1
REMARK VINA RESULT:     -10.4      0.000      0.000
REMARK  4 active torsions:
REMARK  status: ('A' for Active; 'I' for Inactive)
REMARK    1  A    between atoms: C_4  and  N_5 
REMARK    2  A    between atoms: N_5  and  C_6 
REMARK    3  A    between atoms: C_8  and  C_9 
REMARK    4  A    between atoms: C_23  and  O_24 
ROOT
HETATM    1  C   UNL     1      26.149  44.702  51.535  1.00  0.00     0.722 A 
HETATM    2  N   UNL     1      26.937  44.851  52.559  1.00  0.00    -0.063 NA
HETATM    3  C   UNL     1      27.920  43.908  52.776  1.00  0.00     0.091 A 
HETATM    4  C   UNL     1      28.133  42.858  51.971  1.00  0.00     0.108 A 
HETATM    5  C   UNL     1      27.245  42.685  50.817  1.00  0.00     0.261 A 
HETATM    6  O   UNL     1      27.377  41.741  50.047  1.00  0.00    -0.268 OA
HETATM    7  N   UNL     1      26.290  43.640  50.683  1.00  0.00    -0.154 N 
HETATM    8  H   UNL     1      25.650  43.566  49.900  1.00  0.00     0.187 HD
ENDROOT
BRANCH   1   9
HETATM    9  N   UNL     1      25.174  45.620  51.305  1.00  0.00    -0.017 N 
HETATM   10  H   UNL     1      24.280  45.481  51.747  1.00  0.00     0.203 HD
BRANCH   9  11
HETATM   11  C   UNL     1      25.209  46.756  50.514  1.00  0.00     0.742 A 
HETATM   12  N   UNL     1      26.380  47.339  50.220  1.00  0.00    -0.066 NA
HETATM   13  C   UNL     1      26.357  48.437  49.434  1.00  0.00     0.062 A 
HETATM   14  C   UNL     1      27.703  49.037  49.139  1.00  0.00     0.072 C 
HETATM   15  C   UNL     1      25.172  48.982  48.929  1.00  0.00     0.021 A 
HETATM   16  C   UNL     1      23.997  48.313  49.299  1.00  0.00     0.121 A 
HETATM   17  C   UNL     1      25.110  50.128  48.100  1.00  0.00     0.016 A 
HETATM   18  N   UNL     1      24.032  47.215  50.081  1.00  0.00    -0.059 NA
HETATM   19  C   UNL     1      22.770  48.827  48.838  1.00  0.00     0.098 A 
HETATM   20  C   UNL     1      22.718  49.954  48.005  1.00  0.00     0.039 A 
HETATM   21  C   UNL     1      23.889  50.605  47.639  1.00  0.00     0.004 A 
BRANCH  19  22
HETATM   22  O   UNL     1      21.643  48.134  49.226  1.00  0.00    -0.354 OA
HETATM   23  C   UNL     1      20.415  48.851  49.221  1.00  0.00     0.210 C 
ENDBRANCH  19  22
ENDBRANCH   9  11
ENDBRANCH   1   9
BRANCH   3  24
HETATM   24  C   UNL     1      28.805  44.110  53.951  1.00  0.00    -0.006 A 
HETATM   25  C   UNL     1      29.823  43.178  54.224  1.00  0.00     0.017 A 
HETATM   26  C   UNL     1      30.674  43.345  55.320  1.00  0.00     0.043 A 
HETATM   27  C   UNL     1      30.517  44.451  56.145  1.00  0.00     0.116 A 
HETATM   28  F   UNL     1      31.332  44.612  57.197  1.00  0.00    -0.206 F 
HETATM   29  C   UNL     1      29.532  45.396  55.892  1.00  0.00     0.043 A 
HETATM   30  C   UNL     1      28.682  45.230  54.794  1.00  0.00     0.017 A 
ENDBRANCH   3  24
TORSDOF 4
ENDMDL
MODEL 2
REMARK VINA RESULT:     -10.3      3.898      9.185
REMARK  4 active torsions:
REMARK  status: ('A' for Active; 'I' for Inactive)
REMARK    1  A    between atoms: C_4  and  N_5 
REMARK    2  A    between atoms: N_5  and  C_6 
REMARK    3  A    between atoms: C_8  and  C_9 
REMARK    4  A    between atoms: C_23  and  O_24 
ROOT
HETATM    1  C   UNL     1      24.441  48.030  49.795  1.00  0.00     0.722 A 
HETATM    2  N   UNL     1      23.279  48.614  49.731  1.00  0.00    -0.063 NA
HETATM    3  C   UNL     1      23.166  49.778  49.001  1.00  0.00     0.091 A 
HETATM    4  C   UNL     1      24.182  50.331  48.323  1.00  0.00     0.108 A 
HETATM    5  C   UNL     1      25.492  49.679  48.394  1.00  0.00     0.261 A 
HETATM    6  O   UNL     1      26.466  50.137  47.807  1.00  0.00    -0.268 OA
HETATM    7  N   UNL     1      25.529  48.551  49.150  1.00  0.00    -0.154 N 
HETATM    8  H   UNL     1      26.414  48.062  49.231  1.00  0.00     0.187 HD
ENDROOT
BRANCH   1   9
HETATM    9  N   UNL     1      24.572  46.883  50.510  1.00  0.00    -0.017 N 
HETATM   10  H   UNL     1      24.011  46.091  50.241  1.00  0.00     0.203 HD
BRANCH   9  11
HETATM   11  C   UNL     1      25.375  46.621  51.607  1.00  0.00     0.742 A 
HETATM   12  N   UNL     1      25.385  47.460  52.653  1.00  0.00    -0.066 NA
HETATM   13  C   UNL     1      26.177  47.150  53.702  1.00  0.00     0.062 A 
HETATM   14  C   UNL     1      26.137  48.128  54.842  1.00  0.00     0.072 C 
HETATM   15  C   UNL     1      26.980  46.005  53.732  1.00  0.00     0.021 A 
HETATM   16  C   UNL     1      26.914  45.194  52.590  1.00  0.00     0.121 A 
HETATM   17  C   UNL     1      27.818  45.646  54.814  1.00  0.00     0.016 A 
HETATM   18  N   UNL     1      26.116  45.511  51.550  1.00  0.00    -0.059 NA
HETATM   19  C   UNL     1      27.715  44.037  52.553  1.00  0.00     0.098 A 
HETATM   20  C   UNL     1      28.533  43.681  53.636  1.00  0.00     0.039 A 
HETATM   21  C   UNL     1      28.585  44.488  54.765  1.00  0.00     0.004 A 
BRANCH  19  22
HETATM   22  O   UNL     1      27.614  43.271  51.411  1.00  0.00    -0.354 OA
HETATM   23  C   UNL     1      27.741  41.864  51.568  1.00  0.00     0.210 C 
ENDBRANCH  19  22
ENDBRANCH   9  11
ENDBRANCH   1   9
BRANCH   3  24
HETATM   24  C   UNL     1      21.826  50.415  48.945  1.00  0.00    -0.006 A 
HETATM   25  C   UNL     1      21.160  50.525  47.711  1.00  0.00     0.017 A 
HETATM   26  C   UNL     1      19.896  51.115  47.628  1.00  0.00     0.043 A 
HETATM   27  C   UNL     1      19.288  51.594  48.781  1.00  0.00     0.116 A 
HETATM   28  F   UNL     1      18.076  52.161  48.704  1.00  0.00    -0.206 F 
HETATM   29  C   UNL     1      19.914  51.485  50.016  1.00  0.00     0.043 A 
HETATM   30  C   UNL     1      21.178  50.892  50.099  1.00  0.00     0.017 A 
ENDBRANCH   3  24
TORSDOF 4
ENDMDL
MODEL 3
REMARK VINA RESULT:     -10.2      2.247      3.599
REMARK  4 active torsions:
REMARK  status: ('A' for Active; 'I' for Inactive)
REMARK    1  A    between atoms: C_4  and  N_5 
REMARK    2  A    between atoms: N_5  and  C_6 
REMARK    3  A    between atoms: C_8  and  C_9 
REMARK    4  A    between atoms: C_23  and  O_24 
ROOT
HETATM    1  C   UNL     1      26.370  45.711  52.501  1.00  0.00     0.722 A 
HETATM    2  N   UNL     1      27.365  45.134  53.110  1.00  0.00    -0.063 NA
HETATM    3  C   UNL     1      27.803  45.665  54.304  1.00  0.00     0.091 A 
HETATM    4  C   UNL     1      27.240  46.728  54.895  1.00  0.00     0.108 A 
HETATM    5  C   UNL     1      26.121  47.383  54.212  1.00  0.00     0.261 A 
HETATM    6  O   UNL     1      25.568  48.366  54.691  1.00  0.00    -0.268 OA
HETATM    7  N   UNL     1      25.762  46.817  53.031  1.00  0.00    -0.154 N 
HETATM    8  H   UNL     1      24.993  47.233  52.519  1.00  0.00     0.187 HD
ENDROOT
BRANCH   1   9
HETATM    9  N   UNL     1      25.925  45.203  51.322  1.00  0.00    -0.017 N 
HETATM   10  H   UNL     1      26.389  44.389  50.952  1.00  0.00     0.203 HD
BRANCH   9  11
HETATM   11  C   UNL     1      24.902  45.653  50.504  1.00  0.00     0.742 A 
HETATM   12  N   UNL     1      23.916  44.822  50.137  1.00  0.00    -0.066 NA
HETATM   13  C   UNL     1      22.937  45.315  49.349  1.00  0.00     0.062 A 
HETATM   14  C   UNL     1      21.861  44.334  48.979  1.00  0.00     0.072 C 
HETATM   15  C   UNL     1      22.919  46.642  48.905  1.00  0.00     0.021 A 
HETATM   16  C   UNL     1      23.997  47.432  49.329  1.00  0.00     0.121 A 
HETATM   17  C   UNL     1      21.908  47.195  48.083  1.00  0.00     0.016 A 
HETATM   18  N   UNL     1      24.967  46.929  50.120  1.00  0.00    -0.059 NA
HETATM   19  C   UNL     1      24.044  48.771  48.898  1.00  0.00     0.098 A 
HETATM   20  C   UNL     1      23.032  49.316  48.095  1.00  0.00     0.039 A 
HETATM   21  C   UNL     1      21.965  48.526  47.686  1.00  0.00     0.004 A 
BRANCH  19  22
HETATM   22  O   UNL     1      25.121  49.509  49.342  1.00  0.00    -0.354 OA
HETATM   23  C   UNL     1      26.148  49.779  48.397  1.00  0.00     0.210 C 
ENDBRANCH  19  22
ENDBRANCH   9  11
ENDBRANCH   1   9
BRANCH   3  24
HETATM   24  C   UNL     1      28.937  44.980  54.975  1.00  0.00    -0.006 A 
HETATM   25  C   UNL     1      29.554  45.582  56.086  1.00  0.00     0.017 A 
HETATM   26  C   UNL     1      30.620  44.958  56.741  1.00  0.00     0.043 A 
HETATM   27  C   UNL     1      31.070  43.724  56.292  1.00  0.00     0.116 A 
HETATM   28  F   UNL     1      32.093  43.125  56.917  1.00  0.00    -0.206 F 
HETATM   29  C   UNL     1      30.471  43.097  55.207  1.00  0.00     0.043 A 
HETATM   30  C   UNL     1      29.402  43.721  54.554  1.00  0.00     0.017 A 
ENDBRANCH   3  24
TORSDOF 4
ENDMDL
MODEL 4
REMARK VINA RESULT:     -10.1      2.200      2.965
REMARK  4 active torsions:
REMARK  status: ('A' for Active; 'I' for Inactive)
REMARK    1  A    between atoms: C_4  and  N_5 
REMARK    2  A    between atoms: N_5  and  C_6 
REMARK    3  A    between atoms: C_8  and  C_9 
REMARK    4  A    between atoms: C_23  and  O_24 
ROOT
HETATM    1  C   UNL     1      26.243  46.708  53.095  1.00  0.00     0.722 A 
HETATM    2  N   UNL     1      27.223  45.938  53.469  1.00  0.00    -0.063 NA
HETATM    3  C   UNL     1      27.754  46.112  54.729  1.00  0.00     0.091 A 
HETATM    4  C   UNL     1      27.297  47.014  55.609  1.00  0.00     0.108 A 
HETATM    5  C   UNL     1      26.196  47.887  55.191  1.00  0.00     0.261 A 
HETATM    6  O   UNL     1      25.738  48.740  55.942  1.00  0.00    -0.268 OA
HETATM    7  N   UNL     1      25.742  47.669  53.930  1.00  0.00    -0.154 N 
HETATM    8  H   UNL     1      24.980  48.248  53.593  1.00  0.00     0.187 HD
ENDROOT
BRANCH   1   9
HETATM    9  N   UNL     1      25.707  46.552  51.856  1.00  0.00    -0.017 N 
HETATM   10  H   UNL     1      25.363  45.640  51.602  1.00  0.00     0.203 HD
BRANCH   9  11
HETATM   11  C   UNL     1      25.567  47.480  50.839  1.00  0.00     0.742 A 
HETATM   12  N   UNL     1      26.642  48.118  50.354  1.00  0.00    -0.066 NA
HETATM   13  C   UNL     1      26.450  49.003  49.352  1.00  0.00     0.062 A 
HETATM   14  C   UNL     1      27.696  49.679  48.851  1.00  0.00     0.072 C 
HETATM   15  C   UNL     1      25.188  49.278  48.816  1.00  0.00     0.021 A 
HETATM   16  C   UNL     1      24.123  48.573  49.394  1.00  0.00     0.121 A 
HETATM   17  C   UNL     1      24.950  50.196  47.765  1.00  0.00     0.016 A 
HETATM   18  N   UNL     1      24.327  47.688  50.391  1.00  0.00    -0.059 NA
HETATM   19  C   UNL     1      22.825  48.822  48.910  1.00  0.00     0.098 A 
HETATM   20  C   UNL     1      22.598  49.723  47.858  1.00  0.00     0.039 A 
HETATM   21  C   UNL     1      23.662  50.410  47.288  1.00  0.00     0.004 A 
BRANCH  19  22
HETATM   22  O   UNL     1      21.811  48.104  49.508  1.00  0.00    -0.354 OA
HETATM   23  C   UNL     1      20.819  47.557  48.649  1.00  0.00     0.210 C 
ENDBRANCH  19  22
ENDBRANCH   9  11
ENDBRANCH   1   9
BRANCH   3  24
HETATM   24  C   UNL     1      28.867  45.213  55.126  1.00  0.00    -0.006 A 
HETATM   25  C   UNL     1      29.677  45.552  56.225  1.00  0.00     0.017 A 
HETATM   26  C   UNL     1      30.728  44.723  56.625  1.00  0.00     0.043 A 
HETATM   27  C   UNL     1      30.971  43.544  55.932  1.00  0.00     0.116 A 
HETATM   28  F   UNL     1      31.979  42.748  56.313  1.00  0.00    -0.206 F 
HETATM   29  C   UNL     1      30.178  43.175  54.853  1.00  0.00     0.043 A 
HETATM   30  C   UNL     1      29.125  44.004  54.455  1.00  0.00     0.017 A 
ENDBRANCH   3  24
TORSDOF 4
ENDMDL
MODEL 5
REMARK VINA RESULT:      -9.7      3.667      8.896
REMARK  4 active torsions:
REMARK  status: ('A' for Active; 'I' for Inactive)
REMARK    1  A    between atoms: C_4  and  N_5 
REMARK    2  A    between atoms: N_5  and  C_6 
REMARK    3  A    between atoms: C_8  and  C_9 
REMARK    4  A    between atoms: C_23  and  O_24 
ROOT
HETATM    1  C   UNL     1      25.285  46.738  50.457  1.00  0.00     0.722 A 
HETATM    2  N   UNL     1      24.239  47.378  50.021  1.00  0.00    -0.063 NA
HETATM    3  C   UNL     1      24.430  48.529  49.286  1.00  0.00     0.091 A 
HETATM    4  C   UNL     1      25.638  49.013  48.965  1.00  0.00     0.108 A 
HETATM    5  C   UNL     1      26.819  48.297  49.456  1.00  0.00     0.261 A 
HETATM    6  O   UNL     1      27.952  48.691  49.208  1.00  0.00    -0.268 OA
HETATM    7  N   UNL     1      26.550  47.187  50.190  1.00  0.00    -0.154 N 
HETATM    8  H   UNL     1      27.333  46.656  50.553  1.00  0.00     0.187 HD
ENDROOT
BRANCH   1   9
HETATM    9  N   UNL     1      25.116  45.602  51.184  1.00  0.00    -0.017 N 
HETATM   10  H   UNL     1      24.176  45.320  51.409  1.00  0.00     0.203 HD
BRANCH   9  11
HETATM   11  C   UNL     1      26.071  44.743  51.700  1.00  0.00     0.742 A 
HETATM   12  N   UNL     1      26.232  43.519  51.177  1.00  0.00    -0.066 NA
HETATM   13  C   UNL     1      27.186  42.726  51.710  1.00  0.00     0.062 A 
HETATM   14  C   UNL     1      27.318  41.371  51.074  1.00  0.00     0.072 C 
HETATM   15  C   UNL     1      27.996  43.129  52.777  1.00  0.00     0.021 A 
HETATM   16  C   UNL     1      27.747  44.419  53.267  1.00  0.00     0.121 A 
HETATM   17  C   UNL     1      29.007  42.328  53.358  1.00  0.00     0.016 A 
HETATM   18  N   UNL     1      26.794  45.204  52.723  1.00  0.00    -0.059 NA
HETATM   19  C   UNL     1      28.517  44.873  54.354  1.00  0.00     0.098 A 
HETATM   20  C   UNL     1      29.528  44.079  54.915  1.00  0.00     0.039 A 
HETATM   21  C   UNL     1      29.770  42.805  54.418  1.00  0.00     0.004 A 
BRANCH  19  22
HETATM   22  O   UNL     1      28.238  46.149  54.798  1.00  0.00    -0.354 OA
HETATM   23  C   UNL     1      28.374  46.387  56.193  1.00  0.00     0.210 C 
ENDBRANCH  19  22
ENDBRANCH   9  11
ENDBRANCH   1   9
BRANCH   3  24
HETATM   24  C   UNL     1      23.216  49.232  48.800  1.00  0.00    -0.006 A 
HETATM   25  C   UNL     1      22.162  48.492  48.235  1.00  0.00     0.017 A 
HETATM   26  C   UNL     1      21.006  49.126  47.773  1.00  0.00     0.043 A 
HETATM   27  C   UNL     1      20.893  50.506  47.881  1.00  0.00     0.116 A 
HETATM   28  F   UNL     1      19.786  51.117  47.438  1.00  0.00    -0.206 F 
HETATM   29  C   UNL     1      21.910  51.263  48.449  1.00  0.00     0.043 A 
HETATM   30  C   UNL     1      23.066  50.627  48.913  1.00  0.00     0.017 A 
ENDBRANCH   3  24
TORSDOF 4
ENDMDL
MODEL 6
REMARK VINA RESULT:      -9.5      4.040      9.131
REMARK  4 active torsions:
REMARK  status: ('A' for Active; 'I' for Inactive)
REMARK    1  A    between atoms: C_4  and  N_5 
REMARK    2  A    between atoms: N_5  and  C_6 
REMARK    3  A    between atoms: C_8  and  C_9 
REMARK    4  A    between atoms: C_23  and  O_24 
ROOT
HETATM    1  C   UNL     1      23.190  47.672  49.266  1.00  0.00     0.722 A 
HETATM    2  N   UNL     1      22.429  48.726  49.324  1.00  0.00    -0.063 NA
HETATM    3  C   UNL     1      21.102  48.600  48.974  1.00  0.00     0.091 A 
HETATM    4  C   UNL     1      20.537  47.441  48.607  1.00  0.00     0.108 A 
HETATM    5  C   UNL     1      21.391  46.252  48.538  1.00  0.00     0.261 A 
HETATM    6  O   UNL     1      20.942  45.163  48.199  1.00  0.00    -0.268 OA
HETATM    7  N   UNL     1      22.689  46.460  48.874  1.00  0.00    -0.154 N 
HETATM    8  H   UNL     1      23.322  45.668  48.842  1.00  0.00     0.187 HD
ENDROOT
BRANCH   1   9
HETATM    9  N   UNL     1      24.501  47.777  49.605  1.00  0.00    -0.017 N 
HETATM   10  H   UNL     1      25.077  48.414  49.078  1.00  0.00     0.203 HD
BRANCH   9  11
HETATM   11  C   UNL     1      25.208  47.108  50.590  1.00  0.00     0.742 A 
HETATM   12  N   UNL     1      25.241  47.589  51.842  1.00  0.00    -0.066 NA
HETATM   13  C   UNL     1      25.935  46.890  52.766  1.00  0.00     0.062 A 
HETATM   14  C   UNL     1      25.927  47.480  54.149  1.00  0.00     0.072 C 
HETATM   15  C   UNL     1      26.613  45.704  52.468  1.00  0.00     0.021 A 
HETATM   16  C   UNL     1      26.533  45.286  51.132  1.00  0.00     0.121 A 
HETATM   17  C   UNL     1      27.346  44.944  53.410  1.00  0.00     0.016 A 
HETATM   18  N   UNL     1      25.833  45.989  50.218  1.00  0.00    -0.059 NA
HETATM   19  C   UNL     1      27.212  44.109  50.765  1.00  0.00     0.098 A 
HETATM   20  C   UNL     1      27.924  43.353  51.708  1.00  0.00     0.039 A 
HETATM   21  C   UNL     1      27.992  43.773  53.031  1.00  0.00     0.004 A 
BRANCH  19  22
HETATM   22  O   UNL     1      27.101  43.737  49.442  1.00  0.00    -0.354 OA
HETATM   23  C   UNL     1      26.452  42.501  49.175  1.00  0.00     0.210 C 
ENDBRANCH  19  22
ENDBRANCH   9  11
ENDBRANCH   1   9
BRANCH   3  24
HETATM   24  C   UNL     1      20.260  49.821  49.056  1.00  0.00    -0.006 A 
HETATM   25  C   UNL     1      19.118  49.825  49.877  1.00  0.00     0.017 A 
HETATM   26  C   UNL     1      18.310  50.961  49.978  1.00  0.00     0.043 A 
HETATM   27  C   UNL     1      18.644  52.103  49.262  1.00  0.00     0.116 A 
HETATM   28  F   UNL     1      17.870  53.193  49.356  1.00  0.00    -0.206 F 
HETATM   29  C   UNL     1      19.775  52.135  48.456  1.00  0.00     0.043 A 
HETATM   30  C   UNL     1      20.584  50.999  48.358  1.00  0.00     0.017 A 
ENDBRANCH   3  24
TORSDOF 4
ENDMDL
MODEL 7
REMARK VINA RESULT:      -9.4      2.063      3.035
REMARK  4 active torsions:
REMARK  status: ('A' for Active; 'I' for Inactive)
REMARK    1  A    between atoms: C_4  and  N_5 
REMARK    2  A    between atoms: N_5  and  C_6 
REMARK    3  A    between atoms: C_8  and  C_9 
REMARK    4  A    between atoms: C_23  and  O_24 
ROOT
HETATM    1  C   UNL     1      26.797  45.097  52.634  1.00  0.00     0.722 A 
HETATM    2  N   UNL     1      27.567  45.172  53.681  1.00  0.00    -0.063 NA
HETATM    3  C   UNL     1      28.542  44.213  53.852  1.00  0.00     0.091 A 
HETATM    4  C   UNL     1      28.766  43.218  52.982  1.00  0.00     0.108 A 
HETATM    5  C   UNL     1      27.899  43.127  51.803  1.00  0.00     0.261 A 
HETATM    6  O   UNL     1      28.042  42.236  50.974  1.00  0.00    -0.268 OA
HETATM    7  N   UNL     1      26.949  44.093  51.716  1.00  0.00    -0.154 N 
HETATM    8  H   UNL     1      26.323  44.074  50.919  1.00  0.00     0.187 HD
ENDROOT
BRANCH   1   9
HETATM    9  N   UNL     1      25.829  46.033  52.449  1.00  0.00    -0.017 N 
HETATM   10  H   UNL     1      25.638  46.671  53.204  1.00  0.00     0.203 HD
BRANCH   9  11
HETATM   11  C   UNL     1      25.019  46.249  51.348  1.00  0.00     0.742 A 
HETATM   12  N   UNL     1      24.916  47.475  50.815  1.00  0.00    -0.066 NA
HETATM   13  C   UNL     1      24.122  47.627  49.734  1.00  0.00     0.062 A 
HETATM   14  C   UNL     1      24.056  49.024  49.183  1.00  0.00     0.072 C 
HETATM   15  C   UNL     1      23.408  46.568  49.163  1.00  0.00     0.021 A 
HETATM   16  C   UNL     1      23.567  45.327  49.795  1.00  0.00     0.121 A 
HETATM   17  C   UNL     1      22.570  46.689  48.029  1.00  0.00     0.016 A 
HETATM   18  N   UNL     1      24.367  45.185  50.872  1.00  0.00    -0.059 NA
HETATM   19  C   UNL     1      22.858  44.226  49.278  1.00  0.00     0.098 A 
HETATM   20  C   UNL     1      22.041  44.351  48.145  1.00  0.00     0.039 A 
HETATM   21  C   UNL     1      21.896  45.584  47.523  1.00  0.00     0.004 A 
BRANCH  19  22
HETATM   22  O   UNL     1      23.049  43.027  49.932  1.00  0.00    -0.354 OA
HETATM   23  C   UNL     1      23.777  42.024  49.234  1.00  0.00     0.210 C 
ENDBRANCH  19  22
ENDBRANCH   9  11
ENDBRANCH   1   9
BRANCH   3  24
HETATM   24  C   UNL     1      29.407  44.332  55.053  1.00  0.00    -0.006 A 
HETATM   25  C   UNL     1      30.371  43.343  55.317  1.00  0.00     0.017 A 
HETATM   26  C   UNL     1      31.202  43.431  56.437  1.00  0.00     0.043 A 
HETATM   27  C   UNL     1      31.078  44.514  57.297  1.00  0.00     0.116 A 
HETATM   28  F   UNL     1      31.873  44.599  58.372  1.00  0.00    -0.206 F 
HETATM   29  C   UNL     1      30.146  45.514  57.054  1.00  0.00     0.043 A 
HETATM   30  C   UNL     1      29.316  45.427  55.932  1.00  0.00     0.017 A 
ENDBRANCH   3  24
TORSDOF 4
ENDMDL
MODEL 8
REMARK VINA RESULT:      -9.3      3.395      8.230
REMARK  4 active torsions:
REMARK  status: ('A' for Active; 'I' for Inactive)
REMARK    1  A    between atoms: C_4  and  N_5 
REMARK    2  A    between atoms: N_5  and  C_6 
REMARK    3  A    between atoms: C_8  and  C_9 
REMARK    4  A    between atoms: C_23  and  O_24 
ROOT
HETATM    1  C   UNL     1      24.766  44.534  51.474  1.00  0.00     0.722 A 
HETATM    2  N   UNL     1      24.581  45.737  51.014  1.00  0.00    -0.063 NA
HETATM    3  C   UNL     1      24.180  45.886  49.704  1.00  0.00     0.091 A 
HETATM    4  C   UNL     1      23.937  44.857  48.879  1.00  0.00     0.108 A 
HETATM    5  C   UNL     1      24.147  43.501  49.393  1.00  0.00     0.261 A 
HETATM    6  O   UNL     1      23.954  42.516  48.689  1.00  0.00    -0.268 OA
HETATM    7  N   UNL     1      24.563  43.436  50.683  1.00  0.00    -0.154 N 
HETATM    8  H   UNL     1      24.723  42.519  51.086  1.00  0.00     0.187 HD
ENDROOT
BRANCH   1   9
HETATM    9  N   UNL     1      25.162  44.367  52.763  1.00  0.00    -0.017 N 
HETATM   10  H   UNL     1      24.481  44.516  53.490  1.00  0.00     0.203 HD
BRANCH   9  11
HETATM   11  C   UNL     1      26.408  44.025  53.260  1.00  0.00     0.742 A 
HETATM   12  N   UNL     1      26.994  42.879  52.883  1.00  0.00    -0.066 NA
HETATM   13  C   UNL     1      28.215  42.601  53.388  1.00  0.00     0.062 A 
HETATM   14  C   UNL     1      28.818  41.306  52.921  1.00  0.00     0.072 C 
HETATM   15  C   UNL     1      28.877  43.451  54.281  1.00  0.00     0.021 A 
HETATM   16  C   UNL     1      28.182  44.618  54.627  1.00  0.00     0.121 A 
HETATM   17  C   UNL     1      30.158  43.194  54.826  1.00  0.00     0.016 A 
HETATM   18  N   UNL     1      26.965  44.888  54.113  1.00  0.00    -0.059 NA
HETATM   19  C   UNL     1      28.789  45.503  55.538  1.00  0.00     0.098 A 
HETATM   20  C   UNL     1      30.065  45.249  56.063  1.00  0.00     0.039 A 
HETATM   21  C   UNL     1      30.747  44.093  55.708  1.00  0.00     0.004 A 
BRANCH  19  22
HETATM   22  O   UNL     1      28.068  46.638  55.845  1.00  0.00    -0.354 OA
HETATM   23  C   UNL     1      28.108  47.699  54.899  1.00  0.00     0.210 C 
ENDBRANCH  19  22
ENDBRANCH   9  11
ENDBRANCH   1   9
BRANCH   3  24
HETATM   24  C   UNL     1      23.973  47.272  49.211  1.00  0.00    -0.006 A 
HETATM   25  C   UNL     1      25.023  48.204  49.294  1.00  0.00     0.017 A 
HETATM   26  C   UNL     1      24.859  49.513  48.834  1.00  0.00     0.043 A 
HETATM   27  C   UNL     1      23.644  49.897  48.282  1.00  0.00     0.116 A 
HETATM   28  F   UNL     1      23.484  51.152  47.842  1.00  0.00    -0.206 F 
HETATM   29  C   UNL     1      22.594  48.994  48.172  1.00  0.00     0.043 A 
HETATM   30  C   UNL     1      22.759  47.683  48.630  1.00  0.00     0.017 A 
ENDBRANCH   3  24
TORSDOF 4
ENDMDL
MODEL 9
REMARK VINA RESULT:      -9.2      4.463      6.647
REMARK  4 active torsions:
REMARK  status: ('A' for Active; 'I' for Inactive)
REMARK    1  A    between atoms: C_4  and  N_5 
REMARK    2  A    between atoms: N_5  and  C_6 
REMARK    3  A    between atoms: C_8  and  C_9 
REMARK    4  A    between atoms: C_23  and  O_24 
ROOT
HETATM    1  C   UNL     1      27.582  42.272  52.581  1.00  0.00     0.722 A 
HETATM    2  N   UNL     1      28.387  42.507  53.576  1.00  0.00    -0.063 NA
HETATM    3  C   UNL     1      28.529  43.806  54.015  1.00  0.00     0.091 A 
HETATM    4  C   UNL     1      27.858  44.843  53.495  1.00  0.00     0.108 A 
HETATM    5  C   UNL     1      26.953  44.584  52.372  1.00  0.00     0.261 A 
HETATM    6  O   UNL     1      26.317  45.488  51.843  1.00  0.00    -0.268 OA
HETATM    7  N   UNL     1      26.883  43.285  51.982  1.00  0.00    -0.154 N 
HETATM    8  H   UNL     1      26.271  43.053  51.209  1.00  0.00     0.187 HD
ENDROOT
BRANCH   1   9
HETATM    9  N   UNL     1      27.430  40.998  52.133  1.00  0.00    -0.017 N 
HETATM   10  H   UNL     1      27.139  40.296  52.794  1.00  0.00     0.203 HD
BRANCH   9  11
HETATM   11  C   UNL     1      27.634  40.485  50.864  1.00  0.00     0.742 A 
HETATM   12  N   UNL     1      28.648  39.639  50.633  1.00  0.00    -0.066 NA
HETATM   13  C   UNL     1      28.795  39.158  49.379  1.00  0.00     0.062 A 
HETATM   14  C   UNL     1      29.946  38.211  49.190  1.00  0.00     0.072 C 
HETATM   15  C   UNL     1      27.942  39.512  48.328  1.00  0.00     0.021 A 
HETATM   16  C   UNL     1      26.919  40.411  48.661  1.00  0.00     0.121 A 
HETATM   17  C   UNL     1      28.062  39.026  47.005  1.00  0.00     0.016 A 
HETATM   18  N   UNL     1      26.779  40.881  49.918  1.00  0.00    -0.059 NA
HETATM   19  C   UNL     1      26.040  40.820  47.640  1.00  0.00     0.098 A 
HETATM   20  C   UNL     1      26.157  40.323  46.334  1.00  0.00     0.039 A 
HETATM   21  C   UNL     1      27.170  39.427  46.017  1.00  0.00     0.004 A 
BRANCH  19  22
HETATM   22  O   UNL     1      25.049  41.703  48.017  1.00  0.00    -0.354 OA
HETATM   23  C   UNL     1      23.711  41.225  47.966  1.00  0.00     0.210 C 
ENDBRANCH  19  22
ENDBRANCH   9  11
ENDBRANCH   1   9
BRANCH   3  24
HETATM   24  C   UNL     1      29.451  44.039  55.156  1.00  0.00    -0.006 A 
HETATM   25  C   UNL     1      29.334  45.217  55.915  1.00  0.00     0.017 A 
HETATM   26  C   UNL     1      30.185  45.461  56.997  1.00  0.00     0.043 A 
HETATM   27  C   UNL     1      31.153  44.524  57.330  1.00  0.00     0.116 A 
HETATM   28  F   UNL     1      31.971  44.756  58.366  1.00  0.00    -0.206 F 
HETATM   29  C   UNL     1      31.282  43.344  56.609  1.00  0.00     0.043 A 
HETATM   30  C   UNL     1      30.429  43.099  55.528  1.00  0.00     0.017 A 
ENDBRANCH   3  24
TORSDOF 4
ENDMDL
MODEL 10
REMARK VINA RESULT:      -9.1      1.930      3.126
REMARK  4 active torsions:
REMARK  status: ('A' for Active; 'I' for Inactive)
REMARK    1  A    between atoms: C_4  and  N_5 
REMARK    2  A    between atoms: N_5  and  C_6 
REMARK    3  A    between atoms: C_8  and  C_9 
REMARK    4  A    between atoms: C_23  and  O_24 
ROOT
HETATM    1  C   UNL     1      25.371  46.166  50.760  1.00  0.00     0.722 A 
HETATM    2  N   UNL     1      26.221  46.295  51.737  1.00  0.00    -0.063 NA
HETATM    3  C   UNL     1      26.325  45.275  52.658  1.00  0.00     0.091 A 
HETATM    4  C   UNL     1      25.621  44.136  52.588  1.00  0.00     0.108 A 
HETATM    5  C   UNL     1      24.660  43.988  51.491  1.00  0.00     0.261 A 
HETATM    6  O   UNL     1      23.976  42.978  51.374  1.00  0.00    -0.268 OA
HETATM    7  N   UNL     1      24.599  45.043  50.639  1.00  0.00    -0.154 N 
HETATM    8  H   UNL     1      23.949  44.990  49.863  1.00  0.00     0.187 HD
ENDROOT
BRANCH   1   9
HETATM    9  N   UNL     1      25.254  47.162  49.843  1.00  0.00    -0.017 N 
HETATM   10  H   UNL     1      26.096  47.521  49.424  1.00  0.00     0.203 HD
BRANCH   9  11
HETATM   11  C   UNL     1      24.114  47.801  49.384  1.00  0.00     0.742 A 
HETATM   12  N   UNL     1      24.087  49.136  49.272  1.00  0.00    -0.066 NA
HETATM   13  C   UNL     1      22.955  49.707  48.808  1.00  0.00     0.062 A 
HETATM   14  C   UNL     1      22.994  51.205  48.701  1.00  0.00     0.072 C 
HETATM   15  C   UNL     1      21.825  48.965  48.450  1.00  0.00     0.021 A 
HETATM   16  C   UNL     1      21.941  47.577  48.612  1.00  0.00     0.121 A 
HETATM   17  C   UNL     1      20.624  49.527  47.956  1.00  0.00     0.016 A 
HETATM   18  N   UNL     1      23.079  47.018  49.073  1.00  0.00    -0.059 NA
HETATM   19  C   UNL     1      20.829  46.778  48.287  1.00  0.00     0.098 A 
HETATM   20  C   UNL     1      19.647  47.341  47.785  1.00  0.00     0.039 A 
HETATM   21  C   UNL     1      19.545  48.717  47.621  1.00  0.00     0.004 A 
BRANCH  19  22
HETATM   22  O   UNL     1      20.992  45.419  48.462  1.00  0.00    -0.354 OA
HETATM   23  C   UNL     1      20.897  44.607  47.298  1.00  0.00     0.210 C 
ENDBRANCH  19  22
ENDBRANCH   9  11
ENDBRANCH   1   9
BRANCH   3  24
HETATM   24  C   UNL     1      27.308  45.451  53.757  1.00  0.00    -0.006 A 
HETATM   25  C   UNL     1      27.276  46.620  54.538  1.00  0.00     0.017 A 
HETATM   26  C   UNL     1      28.186  46.811  55.582  1.00  0.00     0.043 A 
HETATM   27  C   UNL     1      29.128  45.829  55.856  1.00  0.00     0.116 A 
HETATM   28  F   UNL     1      30.002  46.010  56.856  1.00  0.00    -0.206 F 
HETATM   29  C   UNL     1      29.174  44.656  55.112  1.00  0.00     0.043 A 
HETATM   30  C   UNL     1      28.262  44.465  54.070  1.00  0.00     0.017 A 
ENDBRANCH   3  24
TORSDOF 4
ENDMDL
