MODEL 1
REMARK VINA RESULT:      -8.9      0.000      0.000
REMARK  7 active torsions:
REMARK  status: ('A' for Active; 'I' for Inactive)
REMARK    1  A    between atoms: C_3  and  C_4 
REMARK    2  A    between atoms: C_4  and  N_5 
REMARK    3  A    between atoms: C_9  and  C_28 
REMARK    4  A    between atoms: C_9  and  C_10 
REMARK    5  A    between atoms: N_13  and  C_15 
REMARK    6  A    between atoms: C_15  and  C_16 
REMARK    7  A    between atoms: C_28  and  C_29 
ROOT
HETATM    1  C   UNL     1      33.275  52.812  39.763  1.00  0.00     0.112 C 
HETATM    2  C   UNL     1      31.760  52.926  39.782  1.00  0.00    -0.109 C 
HETATM    3  C   UNL     1      30.460  53.023  39.800  1.00  0.00    -0.087 C 
ENDROOT
BRANCH   3   4
HETATM    4  C   UNL     1      28.945  53.138  39.820  1.00  0.00     0.230 C 
BRANCH   4   5
HETATM    5  N   UNL     1      28.327  51.852  39.626  1.00  0.00    -0.257 N 
HETATM    6  C   UNL     1      27.681  51.174  40.601  1.00  0.00     0.327 A 
HETATM    7  O   UNL     1      27.524  51.481  41.769  1.00  0.00    -0.247 OA
HETATM    8  N   UNL     1      27.304  49.954  40.105  1.00  0.00    -0.324 N 
HETATM    9  C   UNL     1      27.746  49.716  38.737  1.00  0.00     0.123 A 
HETATM   10  H   UNL     1      26.579  49.439  40.596  1.00  0.00     0.165 HD
HETATM   11  C   UNL     1      28.452  51.082  38.504  1.00  0.00     0.257 A 
HETATM   12  O   UNL     1      29.102  51.377  37.513  1.00  0.00    -0.270 OA
BRANCH   9  13
HETATM   13  C   UNL     1      26.481  49.585  37.851  1.00  0.00     0.080 C 
BRANCH  13  14
HETATM   14  C   UNL     1      25.169  49.285  38.535  1.00  0.00    -0.052 A 
HETATM   15  C   UNL     1      24.129  50.224  38.535  1.00  0.00     0.049 A 
HETATM   16  C   UNL     1      22.934  49.948  39.195  1.00  0.00     0.116 A 
HETATM   17  F   UNL     1      21.953  50.858  39.186  1.00  0.00    -0.206 F 
HETATM   18  C   UNL     1      22.749  48.748  39.868  1.00  0.00     0.042 A 
HETATM   19  C   UNL     1      23.777  47.809  39.886  1.00  0.00     0.003 A 
HETATM   20  C   UNL     1      24.981  48.077  39.226  1.00  0.00     0.007 A 
ENDBRANCH  13  14
ENDBRANCH   9  13
BRANCH   9  21
HETATM   21  C   UNL     1      28.729  48.481  38.681  1.00  0.00     0.027 C 
HETATM   22  C   UNL     1      28.436  47.391  39.735  1.00  0.00     0.035 C 
HETATM   23  C   UNL     1      28.924  47.709  41.155  1.00  0.00     0.235 C 
HETATM   24  N   UNL     1      30.358  48.178  41.180  1.00  0.00    -0.067 N 
HETATM   25  H   UNL     1      30.946  47.349  41.027  1.00  0.00     0.280 HD
HETATM   26  C   UNL     1      30.723  49.192  40.125  1.00  0.00     0.235 C 
HETATM   27  C   UNL     1      30.242  48.762  38.756  1.00  0.00     0.035 C 
BRANCH  24  28
HETATM   28  C   UNL     1      30.760  48.749  42.541  1.00  0.00     0.273 C 
BRANCH  28  29
HETATM   29  C   UNL     1      32.009  49.585  42.587  1.00  0.00    -0.030 A 
HETATM   30  C   UNL     1      33.132  49.285  41.805  1.00  0.00     0.048 A 
HETATM   31  C   UNL     1      34.260  50.108  41.848  1.00  0.00     0.102 A 
HETATM   32  C   UNL     1      34.278  51.238  42.668  1.00  0.00     0.102 A 
HETATM   33  O   UNL     1      35.316  49.736  41.058  1.00  0.00    -0.346 OA
HETATM   34  O   UNL     1      35.353  52.079  42.768  1.00  0.00    -0.346 OA
HETATM   35  C   UNL     1      33.158  51.564  43.423  1.00  0.00     0.040 A 
HETATM   36  C   UNL     1      36.540  51.486  42.230  1.00  0.00     0.202 C 
HETATM   37  C   UNL     1      36.252  50.812  40.898  1.00  0.00     0.202 C 
HETATM   38  C   UNL     1      32.031  50.742  43.387  1.00  0.00     0.012 A 
ENDBRANCH  28  29
ENDBRANCH  24  28
ENDBRANCH   9  21
ENDBRANCH   4   5
ENDBRANCH   3   4
TORSDOF 7
ENDMDL
MODEL 2
REMARK VINA RESULT:      -8.7     11.369     14.700
REMARK  7 active torsions:
REMARK  status: ('A' for Active; 'I' for Inactive)
REMARK    1  A    between atoms: C_3  and  C_4 
REMARK    2  A    between atoms: C_4  and  N_5 
REMARK    3  A    between atoms: C_9  and  C_28 
REMARK    4  A    between atoms: C_9  and  C_10 
REMARK    5  A    between atoms: N_13  and  C_15 
REMARK    6  A    between atoms: C_15  and  C_16 
REMARK    7  A    between atoms: C_28  and  C_29 
ROOT
HETATM    1  C   UNL     1      28.776  40.785  45.404  1.00  0.00     0.112 C 
HETATM    2  C   UNL     1      27.629  40.826  46.401  1.00  0.00    -0.109 C 
HETATM    3  C   UNL     1      26.645  40.861  47.255  1.00  0.00    -0.087 C 
ENDROOT
BRANCH   3   4
HETATM    4  C   UNL     1      25.497  40.901  48.251  1.00  0.00     0.230 C 
BRANCH   4   5
HETATM    5  N   UNL     1      25.879  41.602  49.449  1.00  0.00    -0.257 N 
HETATM    6  C   UNL     1      26.135  40.989  50.628  1.00  0.00     0.327 A 
HETATM    7  O   UNL     1      26.074  39.804  50.902  1.00  0.00    -0.247 OA
HETATM    8  N   UNL     1      26.371  41.951  51.574  1.00  0.00    -0.324 N 
HETATM    9  C   UNL     1      26.221  43.313  51.076  1.00  0.00     0.123 A 
HETATM   10  H   UNL     1      26.847  41.678  52.428  1.00  0.00     0.165 HD
HETATM   11  C   UNL     1      25.870  42.959  49.603  1.00  0.00     0.257 A 
HETATM   12  O   UNL     1      25.538  43.764  48.747  1.00  0.00    -0.270 OA
BRANCH   9  13
HETATM   13  C   UNL     1      27.606  44.002  51.168  1.00  0.00     0.080 C 
BRANCH  13  14
HETATM   14  C   UNL     1      28.406  43.811  52.435  1.00  0.00    -0.052 A 
HETATM   15  C   UNL     1      28.109  44.549  53.588  1.00  0.00     0.049 A 
HETATM   16  C   UNL     1      28.872  44.386  54.741  1.00  0.00     0.116 A 
HETATM   17  F   UNL     1      28.574  45.102  55.833  1.00  0.00    -0.206 F 
HETATM   18  C   UNL     1      29.940  43.500  54.774  1.00  0.00     0.042 A 
HETATM   19  C   UNL     1      30.254  42.766  53.632  1.00  0.00     0.003 A 
HETATM   20  C   UNL     1      29.494  42.923  52.468  1.00  0.00     0.007 A 
ENDBRANCH  13  14
ENDBRANCH   9  13
BRANCH   9  21
HETATM   21  C   UNL     1      25.056  44.055  51.841  1.00  0.00     0.027 C 
HETATM   22  C   UNL     1      23.638  43.673  51.359  1.00  0.00     0.035 C 
HETATM   23  C   UNL     1      23.193  44.336  50.049  1.00  0.00     0.235 C 
HETATM   24  N   UNL     1      23.431  45.827  50.048  1.00  0.00    -0.067 N 
HETATM   25  H   UNL     1      22.711  46.243  50.652  1.00  0.00     0.280 HD
HETATM   26  C   UNL     1      24.774  46.265  50.576  1.00  0.00     0.235 C 
HETATM   27  C   UNL     1      25.096  45.594  51.894  1.00  0.00     0.035 C 
BRANCH  24  28
HETATM   28  C   UNL     1      23.245  46.445  48.661  1.00  0.00     0.273 C 
BRANCH  28  29
HETATM   29  C   UNL     1      22.586  47.795  48.600  1.00  0.00    -0.030 A 
HETATM   30  C   UNL     1      21.199  47.950  48.715  1.00  0.00     0.048 A 
HETATM   31  C   UNL     1      20.629  49.224  48.690  1.00  0.00     0.102 A 
HETATM   32  C   UNL     1      21.435  50.356  48.553  1.00  0.00     0.102 A 
HETATM   33  O   UNL     1      19.264  49.284  48.800  1.00  0.00    -0.346 OA
HETATM   34  O   UNL     1      20.942  51.632  48.509  1.00  0.00    -0.346 OA
HETATM   35  C   UNL     1      22.815  50.217  48.472  1.00  0.00     0.040 A 
HETATM   36  C   UNL     1      19.532  51.646  48.265  1.00  0.00     0.202 C 
HETATM   37  C   UNL     1      18.823  50.611  49.126  1.00  0.00     0.202 C 
HETATM   38  C   UNL     1      23.389  48.945  48.490  1.00  0.00     0.012 A 
ENDBRANCH  28  29
ENDBRANCH  24  28
ENDBRANCH   9  21
ENDBRANCH   4   5
ENDBRANCH   3   4
TORSDOF 7
ENDMDL
MODEL 3
REMARK VINA RESULT:      -8.4     12.514     17.104
REMARK  7 active torsions:
REMARK  status: ('A' for Active; 'I' for Inactive)
REMARK    1  A    between atoms: C_3  and  C_4 
REMARK    2  A    between atoms: C_4  and  N_5 
REMARK    3  A    between atoms: C_9  and  C_28 
REMARK    4  A    between atoms: C_9  and  C_10 
REMARK    5  A    between atoms: N_13  and  C_15 
REMARK    6  A    between atoms: C_15  and  C_16 
REMARK    7  A    between atoms: C_28  and  C_29 
ROOT
HETATM    1  C   UNL     1      14.859  48.497  42.947  1.00  0.00     0.112 C 
HETATM    2  C   UNL     1      15.655  47.970  44.130  1.00  0.00    -0.109 C 
HETATM    3  C   UNL     1      16.338  47.519  45.144  1.00  0.00    -0.087 C 
ENDROOT
BRANCH   3   4
HETATM    4  C   UNL     1      17.136  46.993  46.327  1.00  0.00     0.230 C 
BRANCH   4   5
HETATM    5  N   UNL     1      17.455  48.054  47.246  1.00  0.00    -0.257 N 
HETATM    6  C   UNL     1      16.594  48.526  48.177  1.00  0.00     0.327 A 
HETATM    7  O   UNL     1      15.445  48.188  48.395  1.00  0.00    -0.247 OA
HETATM    8  N   UNL     1      17.180  49.590  48.810  1.00  0.00    -0.324 N 
HETATM    9  C   UNL     1      18.490  49.941  48.275  1.00  0.00     0.123 A 
HETATM   10  H   UNL     1      16.805  49.881  49.707  1.00  0.00     0.165 HD
HETATM   11  C   UNL     1      18.580  48.827  47.194  1.00  0.00     0.257 A 
HETATM   12  O   UNL     1      19.469  48.725  46.363  1.00  0.00    -0.270 OA
BRANCH   9  13
HETATM   13  C   UNL     1      19.533  49.711  49.399  1.00  0.00     0.080 C 
BRANCH  13  14
HETATM   14  C   UNL     1      20.995  49.748  49.023  1.00  0.00    -0.052 A 
HETATM   15  C   UNL     1      21.762  48.576  49.012  1.00  0.00     0.049 A 
HETATM   16  C   UNL     1      23.116  48.626  48.693  1.00  0.00     0.116 A 
HETATM   17  F   UNL     1      23.834  47.497  48.689  1.00  0.00    -0.206 F 
HETATM   18  C   UNL     1      23.735  49.831  48.387  1.00  0.00     0.042 A 
HETATM   19  C   UNL     1      22.988  51.007  48.404  1.00  0.00     0.003 A 
HETATM   20  C   UNL     1      21.627  50.966  48.724  1.00  0.00     0.007 A 
ENDBRANCH  13  14
ENDBRANCH   9  13
BRANCH   9  21
HETATM   21  C   UNL     1      18.469  51.401  47.676  1.00  0.00     0.027 C 
HETATM   22  C   UNL     1      18.594  52.521  48.732  1.00  0.00     0.035 C 
HETATM   23  C   UNL     1      17.309  52.828  49.513  1.00  0.00     0.235 C 
HETATM   24  N   UNL     1      16.114  53.007  48.609  1.00  0.00    -0.067 N 
HETATM   25  H   UNL     1      16.213  53.927  48.162  1.00  0.00     0.280 HD
HETATM   26  C   UNL     1      15.978  51.982  47.510  1.00  0.00     0.235 C 
HETATM   27  C   UNL     1      17.284  51.790  46.770  1.00  0.00     0.035 C 
BRANCH  24  28
HETATM   28  C   UNL     1      14.796  53.042  49.386  1.00  0.00     0.273 C 
BRANCH  28  29
HETATM   29  C   UNL     1      14.477  54.310  50.127  1.00  0.00    -0.030 A 
HETATM   30  C   UNL     1      13.914  54.298  51.410  1.00  0.00     0.048 A 
HETATM   31  C   UNL     1      13.666  55.498  52.081  1.00  0.00     0.102 A 
HETATM   32  C   UNL     1      13.979  56.720  51.482  1.00  0.00     0.102 A 
HETATM   33  O   UNL     1      13.105  55.395  53.327  1.00  0.00    -0.346 OA
HETATM   34  O   UNL     1      13.752  57.931  52.077  1.00  0.00    -0.346 OA
HETATM   35  C   UNL     1      14.570  56.743  50.224  1.00  0.00     0.040 A 
HETATM   36  C   UNL     1      12.858  57.815  53.189  1.00  0.00     0.202 C 
HETATM   37  C   UNL     1      13.228  56.623  54.059  1.00  0.00     0.202 C 
HETATM   38  C   UNL     1      14.813  55.547  49.547  1.00  0.00     0.012 A 
ENDBRANCH  28  29
ENDBRANCH  24  28
ENDBRANCH   9  21
ENDBRANCH   4   5
ENDBRANCH   3   4
TORSDOF 7
ENDMDL
MODEL 4
REMARK VINA RESULT:      -8.3      3.336      8.906
REMARK  7 active torsions:
REMARK  status: ('A' for Active; 'I' for Inactive)
REMARK    1  A    between atoms: C_3  and  C_4 
REMARK    2  A    between atoms: C_4  and  N_5 
REMARK    3  A    between atoms: C_9  and  C_28 
REMARK    4  A    between atoms: C_9  and  C_10 
REMARK    5  A    between atoms: N_13  and  C_15 
REMARK    6  A    between atoms: C_15  and  C_16 
REMARK    7  A    between atoms: C_28  and  C_29 
ROOT
HETATM    1  C   UNL     1      29.039  47.254  39.512  1.00  0.00     0.112 C 
HETATM    2  C   UNL     1      29.849  47.805  40.674  1.00  0.00    -0.109 C 
HETATM    3  C   UNL     1      30.544  48.277  41.671  1.00  0.00    -0.087 C 
ENDROOT
BRANCH   3   4
HETATM    4  C   UNL     1      31.355  48.827  42.832  1.00  0.00     0.230 C 
BRANCH   4   5
HETATM    5  N   UNL     1      32.333  49.778  42.374  1.00  0.00    -0.257 N 
HETATM    6  C   UNL     1      32.373  51.068  42.778  1.00  0.00     0.327 A 
HETATM    7  O   UNL     1      31.624  51.653  43.540  1.00  0.00    -0.247 OA
HETATM    8  N   UNL     1      33.359  51.712  42.079  1.00  0.00    -0.324 N 
HETATM    9  C   UNL     1      34.019  50.871  41.088  1.00  0.00     0.123 A 
HETATM   10  H   UNL     1      33.711  52.591  42.445  1.00  0.00     0.165 HD
HETATM   11  C   UNL     1      33.229  49.561  41.366  1.00  0.00     0.257 A 
HETATM   12  O   UNL     1      33.324  48.532  40.715  1.00  0.00    -0.270 OA
BRANCH   9  13
HETATM   13  C   UNL     1      35.503  50.726  41.509  1.00  0.00     0.080 C 
BRANCH  13  14
HETATM   14  C   UNL     1      36.226  51.964  41.984  1.00  0.00    -0.052 A 
HETATM   15  C   UNL     1      36.270  52.289  43.346  1.00  0.00     0.049 A 
HETATM   16  C   UNL     1      36.913  53.449  43.770  1.00  0.00     0.116 A 
HETATM   17  F   UNL     1      36.943  53.745  45.075  1.00  0.00    -0.206 F 
HETATM   18  C   UNL     1      37.516  54.307  42.860  1.00  0.00     0.042 A 
HETATM   19  C   UNL     1      37.473  54.002  41.502  1.00  0.00     0.003 A 
HETATM   20  C   UNL     1      36.828  52.839  41.066  1.00  0.00     0.007 A 
ENDBRANCH  13  14
ENDBRANCH   9  13
BRANCH   9  21
HETATM   21  C   UNL     1      33.791  51.448  39.636  1.00  0.00     0.027 C 
HETATM   22  C   UNL     1      33.627  52.983  39.583  1.00  0.00     0.035 C 
HETATM   23  C   UNL     1      32.247  53.506  40.001  1.00  0.00     0.235 C 
HETATM   24  N   UNL     1      31.120  52.772  39.315  1.00  0.00    -0.067 N 
HETATM   25  H   UNL     1      31.094  53.107  38.344  1.00  0.00     0.280 HD
HETATM   26  C   UNL     1      31.261  51.271  39.272  1.00  0.00     0.235 C 
HETATM   27  C   UNL     1      32.639  50.859  38.799  1.00  0.00     0.035 C 
BRANCH  24  28
HETATM   28  C   UNL     1      29.755  53.100  39.924  1.00  0.00     0.273 C 
BRANCH  28  29
HETATM   29  C   UNL     1      28.707  52.024  39.864  1.00  0.00    -0.030 A 
HETATM   30  C   UNL     1      28.167  51.580  38.650  1.00  0.00     0.048 A 
HETATM   31  C   UNL     1      27.222  50.552  38.635  1.00  0.00     0.102 A 
HETATM   32  C   UNL     1      26.808  49.955  39.827  1.00  0.00     0.102 A 
HETATM   33  O   UNL     1      26.740  50.186  37.406  1.00  0.00    -0.346 OA
HETATM   34  O   UNL     1      25.878  48.953  39.885  1.00  0.00    -0.346 OA
HETATM   35  C   UNL     1      27.362  50.364  41.035  1.00  0.00     0.040 A 
HETATM   36  C   UNL     1      25.142  48.843  38.662  1.00  0.00     0.202 C 
HETATM   37  C   UNL     1      26.074  48.916  37.462  1.00  0.00     0.202 C 
HETATM   38  C   UNL     1      28.302  51.395  41.056  1.00  0.00     0.012 A 
ENDBRANCH  28  29
ENDBRANCH  24  28
ENDBRANCH   9  21
ENDBRANCH   4   5
ENDBRANCH   3   4
TORSDOF 7
ENDMDL
MODEL 5
REMARK VINA RESULT:      -8.0     25.741     28.513
REMARK  7 active torsions:
REMARK  status: ('A' for Active; 'I' for Inactive)
REMARK    1  A    between atoms: C_3  and  C_4 
REMARK    2  A    between atoms: C_4  and  N_5 
REMARK    3  A    between atoms: C_9  and  C_28 
REMARK    4  A    between atoms: C_9  and  C_10 
REMARK    5  A    between atoms: N_13  and  C_15 
REMARK    6  A    between atoms: C_15  and  C_16 
REMARK    7  A    between atoms: C_28  and  C_29 
ROOT
HETATM    1  C   UNL     1      40.015  36.626  66.449  1.00  0.00     0.112 C 
HETATM    2  C   UNL     1      40.511  38.039  66.711  1.00  0.00    -0.109 C 
HETATM    3  C   UNL     1      40.936  39.251  66.935  1.00  0.00    -0.087 C 
ENDROOT
BRANCH   3   4
HETATM    4  C   UNL     1      41.431  40.664  67.196  1.00  0.00     0.230 C 
BRANCH   4   5
HETATM    5  N   UNL     1      40.803  41.603  66.304  1.00  0.00    -0.257 N 
HETATM    6  C   UNL     1      40.145  42.710  66.721  1.00  0.00     0.327 A 
HETATM    7  O   UNL     1      39.942  43.095  67.857  1.00  0.00    -0.247 OA
HETATM    8  N   UNL     1      39.590  43.321  65.628  1.00  0.00    -0.324 N 
HETATM    9  C   UNL     1      39.804  42.599  64.380  1.00  0.00     0.123 A 
HETATM   10  H   UNL     1      39.308  44.293  65.713  1.00  0.00     0.165 HD
HETATM   11  C   UNL     1      40.642  41.424  64.960  1.00  0.00     0.257 A 
HETATM   12  O   UNL     1      41.007  40.443  64.329  1.00  0.00    -0.270 OA
BRANCH   9  13
HETATM   13  C   UNL     1      40.669  43.497  63.459  1.00  0.00     0.080 C 
BRANCH  13  14
HETATM   14  C   UNL     1      41.282  44.740  64.060  1.00  0.00    -0.052 A 
HETATM   15  C   UNL     1      42.592  44.725  64.557  1.00  0.00     0.049 A 
HETATM   16  C   UNL     1      43.135  45.868  65.136  1.00  0.00     0.116 A 
HETATM   17  F   UNL     1      44.387  45.834  65.608  1.00  0.00    -0.206 F 
HETATM   18  C   UNL     1      42.397  47.039  65.239  1.00  0.00     0.042 A 
HETATM   19  C   UNL     1      41.090  47.067  64.758  1.00  0.00     0.003 A 
HETATM   20  C   UNL     1      40.534  45.923  64.176  1.00  0.00     0.007 A 
ENDBRANCH  13  14
ENDBRANCH   9  13
BRANCH   9  21
HETATM   21  C   UNL     1      38.424  42.144  63.762  1.00  0.00     0.027 C 
HETATM   22  C   UNL     1      37.745  43.213  62.877  1.00  0.00     0.035 C 
HETATM   23  C   UNL     1      37.028  44.333  63.641  1.00  0.00     0.235 C 
HETATM   24  N   UNL     1      36.117  43.803  64.722  1.00  0.00    -0.067 N 
HETATM   25  H   UNL     1      35.288  43.419  64.251  1.00  0.00     0.280 HD
HETATM   26  C   UNL     1      36.702  42.704  65.575  1.00  0.00     0.235 C 
HETATM   27  C   UNL     1      37.340  41.626  64.725  1.00  0.00     0.035 C 
BRANCH  24  28
HETATM   28  C   UNL     1      35.616  44.907  65.654  1.00  0.00     0.273 C 
BRANCH  28  29
HETATM   29  C   UNL     1      36.599  45.982  66.027  1.00  0.00    -0.030 A 
HETATM   30  C   UNL     1      36.583  47.245  65.421  1.00  0.00     0.048 A 
HETATM   31  C   UNL     1      37.489  48.229  65.822  1.00  0.00     0.102 A 
HETATM   32  C   UNL     1      38.418  47.965  66.831  1.00  0.00     0.102 A 
HETATM   33  O   UNL     1      37.411  49.431  65.170  1.00  0.00    -0.346 OA
HETATM   34  O   UNL     1      39.341  48.878  67.263  1.00  0.00    -0.346 OA
HETATM   35  C   UNL     1      38.420  46.727  67.463  1.00  0.00     0.040 A 
HETATM   36  C   UNL     1      39.477  49.968  66.346  1.00  0.00     0.202 C 
HETATM   37  C   UNL     1      38.113  50.460  65.885  1.00  0.00     0.202 C 
HETATM   38  C   UNL     1      37.520  45.739  67.062  1.00  0.00     0.012 A 
ENDBRANCH  28  29
ENDBRANCH  24  28
ENDBRANCH   9  21
ENDBRANCH   4   5
ENDBRANCH   3   4
TORSDOF 7
ENDMDL
MODEL 6
REMARK VINA RESULT:      -7.9     25.683     28.297
REMARK  7 active torsions:
REMARK  status: ('A' for Active; 'I' for Inactive)
REMARK    1  A    between atoms: C_3  and  C_4 
REMARK    2  A    between atoms: C_4  and  N_5 
REMARK    3  A    between atoms: C_9  and  C_28 
REMARK    4  A    between atoms: C_9  and  C_10 
REMARK    5  A    between atoms: N_13  and  C_15 
REMARK    6  A    between atoms: C_15  and  C_16 
REMARK    7  A    between atoms: C_28  and  C_29 
ROOT
HETATM    1  C   UNL     1      46.024  47.711  65.254  1.00  0.00     0.112 C 
HETATM    2  C   UNL     1      44.638  47.364  65.773  1.00  0.00    -0.109 C 
HETATM    3  C   UNL     1      43.449  47.065  66.218  1.00  0.00    -0.087 C 
ENDROOT
BRANCH   3   4
HETATM    4  C   UNL     1      42.064  46.717  66.736  1.00  0.00     0.230 C 
BRANCH   4   5
HETATM    5  N   UNL     1      41.337  45.929  65.776  1.00  0.00    -0.257 N 
HETATM    6  C   UNL     1      40.888  46.411  64.594  1.00  0.00     0.327 A 
HETATM    7  O   UNL     1      40.978  47.539  64.146  1.00  0.00    -0.247 OA
HETATM    8  N   UNL     1      40.159  45.430  63.974  1.00  0.00    -0.324 N 
HETATM    9  C   UNL     1      40.026  44.212  64.764  1.00  0.00     0.123 A 
HETATM   10  H   UNL     1      39.989  45.516  62.977  1.00  0.00     0.165 HD
HETATM   11  C   UNL     1      40.865  44.665  65.992  1.00  0.00     0.257 A 
HETATM   12  O   UNL     1      40.994  44.030  67.027  1.00  0.00    -0.270 OA
BRANCH   9  13
HETATM   13  C   UNL     1      40.739  43.072  63.992  1.00  0.00     0.080 C 
BRANCH  13  14
HETATM   14  C   UNL     1      40.299  41.653  64.265  1.00  0.00    -0.052 A 
HETATM   15  C   UNL     1      40.596  41.033  65.485  1.00  0.00     0.049 A 
HETATM   16  C   UNL     1      40.211  39.714  65.714  1.00  0.00     0.116 A 
HETATM   17  F   UNL     1      40.506  39.137  66.885  1.00  0.00    -0.206 F 
HETATM   18  C   UNL     1      39.535  38.987  64.743  1.00  0.00     0.042 A 
HETATM   19  C   UNL     1      39.241  39.587  63.521  1.00  0.00     0.003 A 
HETATM   20  C   UNL     1      39.624  40.911  63.281  1.00  0.00     0.007 A 
ENDBRANCH  13  14
ENDBRANCH   9  13
BRANCH   9  21
HETATM   21  C   UNL     1      38.508  43.938  65.104  1.00  0.00     0.027 C 
HETATM   22  C   UNL     1      37.551  44.101  63.902  1.00  0.00     0.035 C 
HETATM   23  C   UNL     1      37.203  45.550  63.537  1.00  0.00     0.235 C 
HETATM   24  N   UNL     1      36.779  46.361  64.737  1.00  0.00    -0.067 N 
HETATM   25  H   UNL     1      35.827  46.059  64.980  1.00  0.00     0.280 HD
HETATM   26  C   UNL     1      37.636  46.188  65.967  1.00  0.00     0.235 C 
HETATM   27  C   UNL     1      37.879  44.725  66.269  1.00  0.00     0.035 C 
BRANCH  24  28
HETATM   28  C   UNL     1      36.694  47.857  64.429  1.00  0.00     0.273 C 
BRANCH  28  29
HETATM   29  C   UNL     1      37.360  48.791  65.400  1.00  0.00    -0.030 A 
HETATM   30  C   UNL     1      36.885  48.966  66.707  1.00  0.00     0.048 A 
HETATM   31  C   UNL     1      37.554  49.815  67.591  1.00  0.00     0.102 A 
HETATM   32  C   UNL     1      38.703  50.496  67.183  1.00  0.00     0.102 A 
HETATM   33  O   UNL     1      37.017  49.934  68.845  1.00  0.00    -0.346 OA
HETATM   34  O   UNL     1      39.399  51.352  67.993  1.00  0.00    -0.346 OA
HETATM   35  C   UNL     1      39.203  50.305  65.901  1.00  0.00     0.040 A 
HETATM   36  C   UNL     1      38.636  51.730  69.143  1.00  0.00     0.202 C 
HETATM   37  C   UNL     1      37.953  50.520  69.762  1.00  0.00     0.202 C 
HETATM   38  C   UNL     1      38.535  49.462  65.012  1.00  0.00     0.012 A 
ENDBRANCH  28  29
ENDBRANCH  24  28
ENDBRANCH   9  21
ENDBRANCH   4   5
ENDBRANCH   3   4
TORSDOF 7
ENDMDL
MODEL 7
REMARK VINA RESULT:      -7.9     25.490     28.293
REMARK  7 active torsions:
REMARK  status: ('A' for Active; 'I' for Inactive)
REMARK    1  A    between atoms: C_3  and  C_4 
REMARK    2  A    between atoms: C_4  and  N_5 
REMARK    3  A    between atoms: C_9  and  C_28 
REMARK    4  A    between atoms: C_9  and  C_10 
REMARK    5  A    between atoms: N_13  and  C_15 
REMARK    6  A    between atoms: C_15  and  C_16 
REMARK    7  A    between atoms: C_28  and  C_29 
ROOT
HETATM    1  C   UNL     1      37.392  51.757  67.436  1.00  0.00     0.112 C 
HETATM    2  C   UNL     1      37.918  50.748  66.428  1.00  0.00    -0.109 C 
HETATM    3  C   UNL     1      38.369  49.883  65.564  1.00  0.00    -0.087 C 
ENDROOT
BRANCH   3   4
HETATM    4  C   UNL     1      38.895  48.874  64.557  1.00  0.00     0.230 C 
BRANCH   4   5
HETATM    5  N   UNL     1      38.394  47.554  64.839  1.00  0.00    -0.257 N 
HETATM    6  C   UNL     1      39.060  46.642  65.584  1.00  0.00     0.327 A 
HETATM    7  O   UNL     1      40.154  46.736  66.109  1.00  0.00    -0.247 OA
HETATM    8  N   UNL     1      38.350  45.470  65.571  1.00  0.00    -0.324 N 
HETATM    9  C   UNL     1      37.156  45.518  64.736  1.00  0.00     0.123 A 
HETATM   10  H   UNL     1      38.548  44.780  66.289  1.00  0.00     0.165 HD
HETATM   11  C   UNL     1      37.285  46.995  64.270  1.00  0.00     0.257 A 
HETATM   12  O   UNL     1      36.567  47.537  63.443  1.00  0.00    -0.270 OA
BRANCH   9  13
HETATM   13  C   UNL     1      35.927  45.333  65.664  1.00  0.00     0.080 C 
BRANCH  13  14
HETATM   14  C   UNL     1      35.875  46.145  66.935  1.00  0.00    -0.052 A 
HETATM   15  C   UNL     1      36.146  45.553  68.176  1.00  0.00     0.049 A 
HETATM   16  C   UNL     1      36.066  46.306  69.345  1.00  0.00     0.116 A 
HETATM   17  F   UNL     1      36.326  45.722  70.521  1.00  0.00    -0.206 F 
HETATM   18  C   UNL     1      35.712  47.648  69.310  1.00  0.00     0.042 A 
HETATM   19  C   UNL     1      35.430  48.248  68.085  1.00  0.00     0.003 A 
HETATM   20  C   UNL     1      35.507  47.501  66.905  1.00  0.00     0.007 A 
ENDBRANCH  13  14
ENDBRANCH   9  13
BRANCH   9  21
HETATM   21  C   UNL     1      37.264  44.473  63.558  1.00  0.00     0.027 C 
HETATM   22  C   UNL     1      36.944  43.019  63.970  1.00  0.00     0.035 C 
HETATM   23  C   UNL     1      38.069  42.289  64.714  1.00  0.00     0.235 C 
HETATM   24  N   UNL     1      39.402  42.420  64.016  1.00  0.00    -0.067 N 
HETATM   25  H   UNL     1      39.370  41.802  63.196  1.00  0.00     0.280 HD
HETATM   26  C   UNL     1      39.738  43.807  63.526  1.00  0.00     0.235 C 
HETATM   27  C   UNL     1      38.583  44.418  62.763  1.00  0.00     0.035 C 
BRANCH  24  28
HETATM   28  C   UNL     1      40.564  41.932  64.883  1.00  0.00     0.273 C 
BRANCH  28  29
HETATM   29  C   UNL     1      40.647  40.453  65.140  1.00  0.00    -0.030 A 
HETATM   30  C   UNL     1      40.696  39.926  66.437  1.00  0.00     0.048 A 
HETATM   31  C   UNL     1      40.735  38.544  66.635  1.00  0.00     0.102 A 
HETATM   32  C   UNL     1      40.724  37.674  65.543  1.00  0.00     0.102 A 
HETATM   33  O   UNL     1      40.790  38.116  67.935  1.00  0.00    -0.346 OA
HETATM   34  O   UNL     1      40.774  36.312  65.664  1.00  0.00    -0.346 OA
HETATM   35  C   UNL     1      40.642  38.184  64.252  1.00  0.00     0.040 A 
HETATM   36  C   UNL     1      41.187  35.912  66.974  1.00  0.00     0.202 C 
HETATM   37  C   UNL     1      40.465  36.722  68.040  1.00  0.00     0.202 C 
HETATM   38  C   UNL     1      40.608  39.564  64.050  1.00  0.00     0.012 A 
ENDBRANCH  28  29
ENDBRANCH  24  28
ENDBRANCH   9  21
ENDBRANCH   4   5
ENDBRANCH   3   4
TORSDOF 7
ENDMDL
MODEL 8
REMARK VINA RESULT:      -7.8     25.849     28.086
REMARK  7 active torsions:
REMARK  status: ('A' for Active; 'I' for Inactive)
REMARK    1  A    between atoms: C_3  and  C_4 
REMARK    2  A    between atoms: C_4  and  N_5 
REMARK    3  A    between atoms: C_9  and  C_28 
REMARK    4  A    between atoms: C_9  and  C_10 
REMARK    5  A    between atoms: N_13  and  C_15 
REMARK    6  A    between atoms: C_15  and  C_16 
REMARK    7  A    between atoms: C_28  and  C_29 
ROOT
HETATM    1  C   UNL     1      37.827  52.581  66.959  1.00  0.00     0.112 C 
HETATM    2  C   UNL     1      38.073  51.300  66.179  1.00  0.00    -0.109 C 
HETATM    3  C   UNL     1      38.285  50.201  65.510  1.00  0.00    -0.087 C 
ENDROOT
BRANCH   3   4
HETATM    4  C   UNL     1      38.531  48.919  64.732  1.00  0.00     0.230 C 
BRANCH   4   5
HETATM    5  N   UNL     1      38.131  47.767  65.496  1.00  0.00    -0.257 N 
HETATM    6  C   UNL     1      38.977  46.774  65.856  1.00  0.00     0.327 A 
HETATM    7  O   UNL     1      40.161  46.651  65.602  1.00  0.00    -0.247 OA
HETATM    8  N   UNL     1      38.254  45.795  66.484  1.00  0.00    -0.324 N 
HETATM    9  C   UNL     1      36.821  46.061  66.527  1.00  0.00     0.123 A 
HETATM   10  H   UNL     1      38.753  45.123  67.059  1.00  0.00     0.165 HD
HETATM   11  C   UNL     1      36.843  47.440  65.809  1.00  0.00     0.257 A 
HETATM   12  O   UNL     1      35.853  48.078  65.485  1.00  0.00    -0.270 OA
BRANCH   9  13
HETATM   13  C   UNL     1      36.417  46.215  68.016  1.00  0.00     0.080 C 
BRANCH  13  14
HETATM   14  C   UNL     1      36.110  47.603  68.523  1.00  0.00    -0.052 A 
HETATM   15  C   UNL     1      37.143  48.482  68.876  1.00  0.00     0.049 A 
HETATM   16  C   UNL     1      36.847  49.749  69.371  1.00  0.00     0.116 A 
HETATM   17  F   UNL     1      37.847  50.574  69.706  1.00  0.00    -0.206 F 
HETATM   18  C   UNL     1      35.533  50.167  69.531  1.00  0.00     0.042 A 
HETATM   19  C   UNL     1      34.495  49.302  69.193  1.00  0.00     0.003 A 
HETATM   20  C   UNL     1      34.782  48.026  68.696  1.00  0.00     0.007 A 
ENDBRANCH  13  14
ENDBRANCH   9  13
BRANCH   9  21
HETATM   21  C   UNL     1      36.030  44.949  65.733  1.00  0.00     0.027 C 
HETATM   22  C   UNL     1      36.413  43.503  66.117  1.00  0.00     0.035 C 
HETATM   23  C   UNL     1      37.727  42.993  65.511  1.00  0.00     0.235 C 
HETATM   24  N   UNL     1      37.813  43.247  64.025  1.00  0.00    -0.067 N 
HETATM   25  H   UNL     1      37.191  42.567  63.571  1.00  0.00     0.280 HD
HETATM   26  C   UNL     1      37.382  44.622  63.581  1.00  0.00     0.235 C 
HETATM   27  C   UNL     1      36.053  45.009  64.194  1.00  0.00     0.035 C 
BRANCH  24  28
HETATM   28  C   UNL     1      39.216  42.991  63.471  1.00  0.00     0.273 C 
BRANCH  28  29
HETATM   29  C   UNL     1      39.758  41.595  63.609  1.00  0.00    -0.030 A 
HETATM   30  C   UNL     1      40.690  41.255  64.597  1.00  0.00     0.048 A 
HETATM   31  C   UNL     1      41.142  39.939  64.716  1.00  0.00     0.102 A 
HETATM   32  C   UNL     1      40.667  38.949  63.853  1.00  0.00     0.102 A 
HETATM   33  O   UNL     1      42.060  39.696  65.703  1.00  0.00    -0.346 OA
HETATM   34  O   UNL     1      41.076  37.644  63.905  1.00  0.00    -0.346 OA
HETATM   35  C   UNL     1      39.716  39.267  62.890  1.00  0.00     0.040 A 
HETATM   36  C   UNL     1      42.269  37.494  64.681  1.00  0.00     0.202 C 
HETATM   37  C   UNL     1      42.178  38.291  65.973  1.00  0.00     0.202 C 
HETATM   38  C   UNL     1      39.267  40.582  62.764  1.00  0.00     0.012 A 
ENDBRANCH  28  29
ENDBRANCH  24  28
ENDBRANCH   9  21
ENDBRANCH   4   5
ENDBRANCH   3   4
TORSDOF 7
ENDMDL
MODEL 9
REMARK VINA RESULT:      -7.8     11.467     14.736
REMARK  7 active torsions:
REMARK  status: ('A' for Active; 'I' for Inactive)
REMARK    1  A    between atoms: C_3  and  C_4 
REMARK    2  A    between atoms: C_4  and  N_5 
REMARK    3  A    between atoms: C_9  and  C_28 
REMARK    4  A    between atoms: C_9  and  C_10 
REMARK    5  A    between atoms: N_13  and  C_15 
REMARK    6  A    between atoms: C_15  and  C_16 
REMARK    7  A    between atoms: C_28  and  C_29 
ROOT
HETATM    1  C   UNL     1      18.697  51.186  42.382  1.00  0.00     0.112 C 
HETATM    2  C   UNL     1      17.555  50.963  43.359  1.00  0.00    -0.109 C 
HETATM    3  C   UNL     1      16.576  50.770  44.198  1.00  0.00    -0.087 C 
ENDROOT
BRANCH   3   4
HETATM    4  C   UNL     1      15.435  50.546  45.177  1.00  0.00     0.230 C 
BRANCH   4   5
HETATM    5  N   UNL     1      15.591  51.369  46.348  1.00  0.00    -0.257 N 
HETATM    6  C   UNL     1      15.389  52.706  46.358  1.00  0.00     0.327 A 
HETATM    7  O   UNL     1      15.081  53.439  45.436  1.00  0.00    -0.247 OA
HETATM    8  N   UNL     1      15.718  53.185  47.599  1.00  0.00    -0.324 N 
HETATM    9  C   UNL     1      16.234  52.164  48.503  1.00  0.00     0.123 A 
HETATM   10  H   UNL     1      15.368  54.099  47.869  1.00  0.00     0.165 HD
HETATM   11  C   UNL     1      16.115  50.950  47.538  1.00  0.00     0.257 A 
HETATM   12  O   UNL     1      16.523  49.823  47.773  1.00  0.00    -0.270 OA
BRANCH   9  13
HETATM   13  C   UNL     1      15.238  52.036  49.684  1.00  0.00     0.080 C 
BRANCH  13  14
HETATM   14  C   UNL     1      14.654  53.306  50.255  1.00  0.00    -0.052 A 
HETATM   15  C   UNL     1      15.422  54.141  51.078  1.00  0.00     0.049 A 
HETATM   16  C   UNL     1      14.865  55.294  51.624  1.00  0.00     0.116 A 
HETATM   17  F   UNL     1      15.613  56.077  52.410  1.00  0.00    -0.206 F 
HETATM   18  C   UNL     1      13.544  55.638  51.372  1.00  0.00     0.042 A 
HETATM   19  C   UNL     1      12.764  54.814  50.565  1.00  0.00     0.003 A 
HETATM   20  C   UNL     1      13.315  53.652  50.012  1.00  0.00     0.007 A 
ENDBRANCH  13  14
ENDBRANCH   9  13
BRANCH   9  21
HETATM   21  C   UNL     1      17.720  52.496  48.919  1.00  0.00     0.027 C 
HETATM   22  C   UNL     1      18.733  52.433  47.754  1.00  0.00     0.035 C 
HETATM   23  C   UNL     1      19.168  51.021  47.343  1.00  0.00     0.235 C 
HETATM   24  N   UNL     1      19.583  50.178  48.525  1.00  0.00    -0.067 N 
HETATM   25  H   UNL     1      20.508  50.515  48.821  1.00  0.00     0.280 HD
HETATM   26  C   UNL     1      18.669  50.255  49.723  1.00  0.00     0.235 C 
HETATM   27  C   UNL     1      18.341  51.690  50.076  1.00  0.00     0.035 C 
BRANCH  24  28
HETATM   28  C   UNL     1      19.756  48.704  48.157  1.00  0.00     0.273 C 
BRANCH  28  29
HETATM   29  C   UNL     1      21.058  48.055  48.537  1.00  0.00    -0.030 A 
HETATM   30  C   UNL     1      21.272  46.679  48.390  1.00  0.00     0.048 A 
HETATM   31  C   UNL     1      22.509  46.120  48.720  1.00  0.00     0.102 A 
HETATM   32  C   UNL     1      23.544  46.927  49.196  1.00  0.00     0.102 A 
HETATM   33  O   UNL     1      22.629  44.765  48.554  1.00  0.00    -0.346 OA
HETATM   34  O   UNL     1      24.775  46.444  49.549  1.00  0.00    -0.346 OA
HETATM   35  C   UNL     1      23.355  48.299  49.314  1.00  0.00     0.040 A 
HETATM   36  C   UNL     1      24.759  45.022  49.709  1.00  0.00     0.202 C 
HETATM   37  C   UNL     1      24.005  44.357  48.568  1.00  0.00     0.202 C 
HETATM   38  C   UNL     1      22.118  48.861  48.991  1.00  0.00     0.012 A 
ENDBRANCH  28  29
ENDBRANCH  24  28
ENDBRANCH   9  21
ENDBRANCH   4   5
ENDBRANCH   3   4
TORSDOF 7
ENDMDL
MODEL 10
REMARK VINA RESULT:      -7.7     12.226     14.370
REMARK  7 active torsions:
REMARK  status: ('A' for Active; 'I' for Inactive)
REMARK    1  A    between atoms: C_3  and  C_4 
REMARK    2  A    between atoms: C_4  and  N_5 
REMARK    3  A    between atoms: C_9  and  C_28 
REMARK    4  A    between atoms: C_9  and  C_10 
REMARK    5  A    between atoms: N_13  and  C_15 
REMARK    6  A    between atoms: C_15  and  C_16 
REMARK    7  A    between atoms: C_28  and  C_29 
ROOT
HETATM    1  C   UNL     1      23.823  43.521  43.039  1.00  0.00     0.112 C 
HETATM    2  C   UNL     1      23.915  42.455  44.118  1.00  0.00    -0.109 C 
HETATM    3  C   UNL     1      23.993  41.540  45.043  1.00  0.00    -0.087 C 
ENDROOT
BRANCH   3   4
HETATM    4  C   UNL     1      24.086  40.473  46.121  1.00  0.00     0.230 C 
BRANCH   4   5
HETATM    5  N   UNL     1      24.264  41.066  47.420  1.00  0.00    -0.257 N 
HETATM    6  C   UNL     1      23.240  41.409  48.236  1.00  0.00     0.327 A 
HETATM    7  O   UNL     1      22.043  41.315  48.039  1.00  0.00    -0.247 OA
HETATM    8  N   UNL     1      23.757  42.033  49.341  1.00  0.00    -0.324 N 
HETATM    9  C   UNL     1      25.204  42.201  49.296  1.00  0.00     0.123 A 
HETATM   10  H   UNL     1      23.174  42.102  50.169  1.00  0.00     0.165 HD
HETATM   11  C   UNL     1      25.453  41.510  47.925  1.00  0.00     0.257 A 
HETATM   12  O   UNL     1      26.527  41.465  47.346  1.00  0.00    -0.270 OA
BRANCH   9  13
HETATM   13  C   UNL     1      25.810  41.370  50.456  1.00  0.00     0.080 C 
BRANCH  13  14
HETATM   14  C   UNL     1      26.747  40.240  50.100  1.00  0.00    -0.052 A 
HETATM   15  C   UNL     1      26.250  38.963  49.807  1.00  0.00     0.049 A 
HETATM   16  C   UNL     1      27.125  37.922  49.509  1.00  0.00     0.116 A 
HETATM   17  F   UNL     1      26.634  36.708  49.234  1.00  0.00    -0.206 F 
HETATM   18  C   UNL     1      28.499  38.121  49.502  1.00  0.00     0.042 A 
HETATM   19  C   UNL     1      29.008  39.383  49.801  1.00  0.00     0.003 A 
HETATM   20  C   UNL     1      28.138  40.436  50.102  1.00  0.00     0.007 A 
ENDBRANCH  13  14
ENDBRANCH   9  13
BRANCH   9  21
HETATM   21  C   UNL     1      25.582  43.734  49.307  1.00  0.00     0.027 C 
HETATM   22  C   UNL     1      26.974  44.039  49.902  1.00  0.00     0.035 C 
HETATM   23  C   UNL     1      27.049  44.015  51.434  1.00  0.00     0.235 C 
HETATM   24  N   UNL     1      25.947  44.822  52.078  1.00  0.00    -0.067 N 
HETATM   25  H   UNL     1      26.193  45.812  51.954  1.00  0.00     0.280 HD
HETATM   26  C   UNL     1      24.573  44.620  51.490  1.00  0.00     0.235 C 
HETATM   27  C   UNL     1      24.599  44.712  49.979  1.00  0.00     0.035 C 
BRANCH  24  28
HETATM   28  C   UNL     1      25.854  44.583  53.586  1.00  0.00     0.273 C 
BRANCH  28  29
HETATM   29  C   UNL     1      27.102  44.819  54.391  1.00  0.00    -0.030 A 
HETATM   30  C   UNL     1      28.038  43.804  54.624  1.00  0.00     0.048 A 
HETATM   31  C   UNL     1      29.203  44.073  55.346  1.00  0.00     0.102 A 
HETATM   32  C   UNL     1      29.447  45.356  55.839  1.00  0.00     0.102 A 
HETATM   33  O   UNL     1      30.060  43.020  55.535  1.00  0.00    -0.346 OA
HETATM   34  O   UNL     1      30.561  45.686  56.564  1.00  0.00    -0.346 OA
HETATM   35  C   UNL     1      28.542  46.380  55.585  1.00  0.00     0.040 A 
HETATM   36  C   UNL     1      31.241  44.523  57.046  1.00  0.00     0.202 C 
HETATM   37  C   UNL     1      31.357  43.471  55.954  1.00  0.00     0.202 C 
HETATM   38  C   UNL     1      27.374  46.114  54.870  1.00  0.00     0.012 A 
ENDBRANCH  28  29
ENDBRANCH  24  28
ENDBRANCH   9  21
ENDBRANCH   4   5
ENDBRANCH   3   4
TORSDOF 7
ENDMDL
