MODEL 1
REMARK VINA RESULT:     -11.3      0.000      0.000
REMARK  9 active torsions:
REMARK  status: ('A' for Active; 'I' for Inactive)
REMARK    1  A    between atoms: C_4  and  C_5 
REMARK    2  A    between atoms: C_5  and  N_6 
REMARK    3  A    between atoms: C_10  and  C_11 
REMARK    4  A    between atoms: C_11  and  N_12 
REMARK       I    between atoms: N_12  and  C_13 
REMARK    5  A    between atoms: C_13  and  C_14 
REMARK    6  A    between atoms: C_14  and  C_15 
REMARK    7  A    between atoms: C_15  and  C_16 
REMARK       I    between atoms: C_16  and  N_17 
REMARK    8  A    between atoms: N_17  and  C_18 
REMARK    9  A    between atoms: C_24  and  N_25 
ROOT
HETATM    1  C   UNL     1      22.987  47.476  48.951  1.00  0.00     0.112 C 
ENDROOT
BRANCH   1   2
HETATM    2  C   UNL     1      22.429  48.891  48.843  1.00  0.00     0.112 C 
BRANCH   2   3
HETATM    3  C   UNL     1      20.957  48.984  49.173  1.00  0.00     0.218 C 
HETATM    4  N   UNL     1      20.608  50.017  50.017  1.00  0.00    -0.361 N 
HETATM    5  H   UNL     1      21.318  50.710  50.229  1.00  0.00     0.162 HD
HETATM    6  O   UNL     1      20.130  48.209  48.700  1.00  0.00    -0.274 OA
BRANCH   4   7
HETATM    7  C   UNL     1      19.223  50.417  50.187  1.00  0.00     0.127 C 
BRANCH   7   8
HETATM    8  C   UNL     1      18.949  51.905  49.885  1.00  0.00     0.006 C 
HETATM    9  C   UNL     1      17.472  52.314  49.981  1.00  0.00     0.034 C 
HETATM   10  C   UNL     1      16.613  51.696  48.884  1.00  0.00     0.235 C 
HETATM   11  N   UNL     1      17.168  52.105  47.534  1.00  0.00    -0.067 N 
HETATM   12  H   UNL     1      17.106  53.128  47.485  1.00  0.00     0.280 HD
HETATM   13  C   UNL     1      18.609  51.706  47.354  1.00  0.00     0.235 C 
HETATM   14  C   UNL     1      19.462  52.282  48.483  1.00  0.00     0.034 C 
BRANCH  11  15
HETATM   15  C   UNL     1      16.318  51.587  46.384  1.00  0.00     0.273 C 
BRANCH  15  16
HETATM   16  C   UNL     1      16.101  52.598  45.292  1.00  0.00    -0.032 A 
HETATM   17  C   UNL     1      16.961  52.650  44.183  1.00  0.00     0.015 A 
HETATM   18  C   UNL     1      16.790  53.624  43.189  1.00  0.00    -0.061 A 
HETATM   19  C   UNL     1      17.690  53.667  41.988  1.00  0.00     0.048 C 
HETATM   20  C   UNL     1      15.730  54.530  43.297  1.00  0.00     0.007 A 
HETATM   21  C   UNL     1      14.865  54.480  44.388  1.00  0.00     0.001 A 
HETATM   22  C   UNL     1      15.049  53.521  45.383  1.00  0.00     0.009 A 
ENDBRANCH  15  16
ENDBRANCH  11  15
ENDBRANCH   7   8
ENDBRANCH   4   7
ENDBRANCH   2   3
ENDBRANCH   1   2
BRANCH   1  23
HETATM   23  C   UNL     1      24.212  47.450  49.852  1.00  0.00     0.222 C 
HETATM   24  N   UNL     1      24.278  46.310  50.639  1.00  0.00    -0.327 N 
HETATM   25  H   UNL     1      23.480  45.685  50.602  1.00  0.00     0.169 HD
HETATM   26  O   UNL     1      25.020  48.373  49.866  1.00  0.00    -0.273 OA
BRANCH  24  27
HETATM   27  C   UNL     1      25.293  45.984  51.566  1.00  0.00     0.035 A 
HETATM   28  C   UNL     1      25.608  46.765  52.687  1.00  0.00     0.043 A 
HETATM   29  C   UNL     1      26.615  46.390  53.609  1.00  0.00    -0.001 A 
HETATM   30  C   UNL     1      27.309  45.186  53.371  1.00  0.00     0.044 A 
HETATM   31  C   UNL     1      26.961  47.140  54.758  1.00  0.00    -0.046 A 
HETATM   32  N   UNL     1      28.248  44.786  54.241  1.00  0.00    -0.346 N 
HETATM   33  C   UNL     1      27.016  44.409  52.242  1.00  0.00     0.033 A 
HETATM   34  H   UNL     1      28.709  43.891  54.117  1.00  0.00     0.167 HD
HETATM   35  C   UNL     1      28.609  45.456  55.341  1.00  0.00     0.083 A 
HETATM   36  C   UNL     1      27.958  46.657  55.617  1.00  0.00     0.050 A 
HETATM   37  C   UNL     1      26.022  44.812  51.343  1.00  0.00     0.032 A 
HETATM   38  C   UNL     1      26.275  48.440  55.096  1.00  0.00     0.049 C 
BRANCH  35  39
HETATM   39  N   UNL     1      29.564  44.841  56.134  1.00  0.00    -0.269 NA
HETATM   40  C   UNL     1      30.314  45.713  57.066  1.00  0.00     0.097 C 
HETATM   41  C   UNL     1      31.052  44.852  58.090  1.00  0.00     0.015 C 
HETATM   42  C   UNL     1      31.962  43.836  57.406  1.00  0.00     0.002 C 
HETATM   43  C   UNL     1      31.184  43.013  56.383  1.00  0.00     0.015 C 
HETATM   44  C   UNL     1      30.444  43.912  55.392  1.00  0.00     0.097 C 
ENDBRANCH  35  39
ENDBRANCH  24  27
ENDBRANCH   1  23
TORSDOF 9
ENDMDL
MODEL 2
REMARK VINA RESULT:     -11.0      1.913     14.929
REMARK  9 active torsions:
REMARK  status: ('A' for Active; 'I' for Inactive)
REMARK    1  A    between atoms: C_4  and  C_5 
REMARK    2  A    between atoms: C_5  and  N_6 
REMARK    3  A    between atoms: C_10  and  C_11 
REMARK    4  A    between atoms: C_11  and  N_12 
REMARK       I    between atoms: N_12  and  C_13 
REMARK    5  A    between atoms: C_13  and  C_14 
REMARK    6  A    between atoms: C_14  and  C_15 
REMARK    7  A    between atoms: C_15  and  C_16 
REMARK       I    between atoms: C_16  and  N_17 
REMARK    8  A    between atoms: N_17  and  C_18 
REMARK    9  A    between atoms: C_24  and  N_25 
ROOT
HETATM    1  C   UNL     1      23.207  47.004  49.112  1.00  0.00     0.112 C 
ENDROOT
BRANCH   1   2
HETATM    2  C   UNL     1      24.122  47.889  49.951  1.00  0.00     0.112 C 
BRANCH   2   3
HETATM    3  C   UNL     1      25.196  47.120  50.684  1.00  0.00     0.218 C 
HETATM    4  N   UNL     1      24.952  45.771  50.837  1.00  0.00    -0.361 N 
HETATM    5  H   UNL     1      24.168  45.376  50.331  1.00  0.00     0.162 HD
HETATM    6  O   UNL     1      26.224  47.656  51.090  1.00  0.00    -0.274 OA
BRANCH   4   7
HETATM    7  C   UNL     1      26.003  44.857  51.245  1.00  0.00     0.127 C 
BRANCH   7   8
HETATM    8  C   UNL     1      25.774  44.197  52.622  1.00  0.00     0.006 C 
HETATM    9  C   UNL     1      25.335  45.165  53.729  1.00  0.00     0.034 C 
HETATM   10  C   UNL     1      26.429  46.149  54.126  1.00  0.00     0.235 C 
HETATM   11  N   UNL     1      27.647  45.373  54.583  1.00  0.00    -0.067 N 
HETATM   12  H   UNL     1      27.361  44.826  55.404  1.00  0.00     0.280 HD
HETATM   13  C   UNL     1      28.157  44.422  53.533  1.00  0.00     0.235 C 
HETATM   14  C   UNL     1      27.046  43.470  53.096  1.00  0.00     0.034 C 
BRANCH  11  15
HETATM   15  C   UNL     1      28.761  46.288  55.069  1.00  0.00     0.273 C 
BRANCH  15  16
HETATM   16  C   UNL     1      29.535  45.731  56.231  1.00  0.00    -0.032 A 
HETATM   17  C   UNL     1      30.451  44.681  56.046  1.00  0.00     0.015 A 
HETATM   18  C   UNL     1      31.136  44.127  57.136  1.00  0.00    -0.061 A 
HETATM   19  C   UNL     1      32.136  43.025  56.940  1.00  0.00     0.048 C 
HETATM   20  C   UNL     1      30.921  44.652  58.414  1.00  0.00     0.007 A 
HETATM   21  C   UNL     1      30.024  45.700  58.608  1.00  0.00     0.001 A 
HETATM   22  C   UNL     1      29.331  46.236  57.523  1.00  0.00     0.009 A 
ENDBRANCH  15  16
ENDBRANCH  11  15
ENDBRANCH   7   8
ENDBRANCH   4   7
ENDBRANCH   2   3
ENDBRANCH   1   2
BRANCH   1  23
HETATM   23  C   UNL     1      22.108  47.832  48.462  1.00  0.00     0.222 C 
HETATM   24  N   UNL     1      21.472  48.680  49.356  1.00  0.00    -0.327 N 
HETATM   25  H   UNL     1      21.731  48.590  50.332  1.00  0.00     0.169 HD
HETATM   26  O   UNL     1      21.832  47.714  47.273  1.00  0.00    -0.273 OA
BRANCH  24  27
HETATM   27  C   UNL     1      20.424  49.581  49.062  1.00  0.00     0.035 A 
HETATM   28  C   UNL     1      19.100  49.189  48.823  1.00  0.00     0.043 A 
HETATM   29  C   UNL     1      18.071  50.125  48.559  1.00  0.00    -0.001 A 
HETATM   30  C   UNL     1      18.415  51.492  48.541  1.00  0.00     0.044 A 
HETATM   31  C   UNL     1      16.720  49.777  48.321  1.00  0.00    -0.046 A 
HETATM   32  N   UNL     1      17.459  52.408  48.323  1.00  0.00    -0.346 N 
HETATM   33  C   UNL     1      19.740  51.893  48.757  1.00  0.00     0.033 A 
HETATM   34  H   UNL     1      17.680  53.396  48.372  1.00  0.00     0.167 HD
HETATM   35  C   UNL     1      16.170  52.131  48.098  1.00  0.00     0.083 A 
HETATM   36  C   UNL     1      15.780  50.792  48.096  1.00  0.00     0.050 A 
HETATM   37  C   UNL     1      20.737  50.942  49.006  1.00  0.00     0.032 A 
HETATM   38  C   UNL     1      16.255  48.342  48.320  1.00  0.00     0.049 C 
BRANCH  35  39
HETATM   39  N   UNL     1      15.336  53.227  47.948  1.00  0.00    -0.269 NA
HETATM   40  C   UNL     1      14.501  53.590  49.114  1.00  0.00     0.097 C 
HETATM   41  C   UNL     1      13.925  54.992  48.915  1.00  0.00     0.015 C 
HETATM   42  C   UNL     1      13.147  55.089  47.606  1.00  0.00     0.002 C 
HETATM   43  C   UNL     1      14.001  54.621  46.431  1.00  0.00     0.015 C 
HETATM   44  C   UNL     1      14.575  53.225  46.680  1.00  0.00     0.097 C 
ENDBRANCH  35  39
ENDBRANCH  24  27
ENDBRANCH   1  23
TORSDOF 9
ENDMDL
MODEL 3
REMARK VINA RESULT:     -10.8      2.529      4.130
REMARK  9 active torsions:
REMARK  status: ('A' for Active; 'I' for Inactive)
REMARK    1  A    between atoms: C_4  and  C_5 
REMARK    2  A    between atoms: C_5  and  N_6 
REMARK    3  A    between atoms: C_10  and  C_11 
REMARK    4  A    between atoms: C_11  and  N_12 
REMARK       I    between atoms: N_12  and  C_13 
REMARK    5  A    between atoms: C_13  and  C_14 
REMARK    6  A    between atoms: C_14  and  C_15 
REMARK    7  A    between atoms: C_15  and  C_16 
REMARK       I    between atoms: C_16  and  N_17 
REMARK    8  A    between atoms: N_17  and  C_18 
REMARK    9  A    between atoms: C_24  and  N_25 
ROOT
HETATM    1  C   UNL     1      23.056  47.373  48.935  1.00  0.00     0.112 C 
ENDROOT
BRANCH   1   2
HETATM    2  C   UNL     1      22.584  45.948  48.667  1.00  0.00     0.112 C 
BRANCH   2   3
HETATM    3  C   UNL     1      21.839  45.797  47.362  1.00  0.00     0.218 C 
HETATM    4  N   UNL     1      20.742  46.618  47.212  1.00  0.00    -0.361 N 
HETATM    5  H   UNL     1      20.606  47.349  47.901  1.00  0.00     0.162 HD
HETATM    6  O   UNL     1      22.203  45.014  46.487  1.00  0.00    -0.274 OA
BRANCH   4   7
HETATM    7  C   UNL     1      20.110  46.805  45.919  1.00  0.00     0.127 C 
BRANCH   7   8
HETATM    8  C   UNL     1      18.593  47.079  45.984  1.00  0.00     0.006 C 
HETATM    9  C   UNL     1      18.125  48.282  45.154  1.00  0.00     0.034 C 
HETATM   10  C   UNL     1      18.622  49.613  45.705  1.00  0.00     0.235 C 
HETATM   11  N   UNL     1      18.142  49.765  47.135  1.00  0.00    -0.067 N 
HETATM   12  H   UNL     1      17.116  49.765  47.105  1.00  0.00     0.280 HD
HETATM   13  C   UNL     1      18.592  48.633  48.021  1.00  0.00     0.235 C 
HETATM   14  C   UNL     1      18.139  47.295  47.440  1.00  0.00     0.034 C 
BRANCH  11  15
HETATM   15  C   UNL     1      18.536  51.106  47.733  1.00  0.00     0.273 C 
BRANCH  15  16
HETATM   16  C   UNL     1      19.827  51.067  48.502  1.00  0.00    -0.032 A 
HETATM   17  C   UNL     1      21.057  50.949  47.833  1.00  0.00     0.015 A 
HETATM   18  C   UNL     1      22.258  50.863  48.551  1.00  0.00    -0.061 A 
HETATM   19  C   UNL     1      23.577  50.765  47.841  1.00  0.00     0.048 C 
HETATM   20  C   UNL     1      22.224  50.925  49.948  1.00  0.00     0.007 A 
HETATM   21  C   UNL     1      21.011  51.053  50.621  1.00  0.00     0.001 A 
HETATM   22  C   UNL     1      19.817  51.121  49.904  1.00  0.00     0.009 A 
ENDBRANCH  15  16
ENDBRANCH  11  15
ENDBRANCH   7   8
ENDBRANCH   4   7
ENDBRANCH   2   3
ENDBRANCH   1   2
BRANCH   1  23
HETATM   23  C   UNL     1      24.270  47.372  49.852  1.00  0.00     0.222 C 
HETATM   24  N   UNL     1      24.344  46.239  50.647  1.00  0.00    -0.327 N 
HETATM   25  H   UNL     1      23.558  45.601  50.604  1.00  0.00     0.169 HD
HETATM   26  O   UNL     1      25.063  48.308  49.869  1.00  0.00    -0.273 OA
BRANCH  24  27
HETATM   27  C   UNL     1      25.353  45.935  51.589  1.00  0.00     0.035 A 
HETATM   28  C   UNL     1      25.626  46.717  52.720  1.00  0.00     0.043 A 
HETATM   29  C   UNL     1      26.628  46.364  53.657  1.00  0.00    -0.001 A 
HETATM   30  C   UNL     1      27.361  45.182  53.423  1.00  0.00     0.044 A 
HETATM   31  C   UNL     1      26.933  47.116  54.817  1.00  0.00    -0.046 A 
HETATM   32  N   UNL     1      28.297  44.803  54.306  1.00  0.00    -0.346 N 
HETATM   33  C   UNL     1      27.110  44.406  52.284  1.00  0.00     0.033 A 
HETATM   34  H   UNL     1      28.785  43.923  54.184  1.00  0.00     0.167 HD
HETATM   35  C   UNL     1      28.619  45.475  55.417  1.00  0.00     0.083 A 
HETATM   36  C   UNL     1      27.929  46.656  55.689  1.00  0.00     0.050 A 
HETATM   37  C   UNL     1      26.119  44.787  51.370  1.00  0.00     0.032 A 
HETATM   38  C   UNL     1      26.204  48.393  55.152  1.00  0.00     0.049 C 
BRANCH  35  39
HETATM   39  N   UNL     1      29.578  44.883  56.221  1.00  0.00    -0.269 NA
HETATM   40  C   UNL     1      30.282  45.768  57.176  1.00  0.00     0.097 C 
HETATM   41  C   UNL     1      31.029  44.920  58.205  1.00  0.00     0.015 C 
HETATM   42  C   UNL     1      31.983  43.940  57.529  1.00  0.00     0.002 C 
HETATM   43  C   UNL     1      31.250  43.104  56.483  1.00  0.00     0.015 C 
HETATM   44  C   UNL     1      30.500  43.989  55.487  1.00  0.00     0.097 C 
ENDBRANCH  35  39
ENDBRANCH  24  27
ENDBRANCH   1  23
TORSDOF 9
ENDMDL
MODEL 4
REMARK VINA RESULT:     -10.8      2.058      3.012
REMARK  9 active torsions:
REMARK  status: ('A' for Active; 'I' for Inactive)
REMARK    1  A    between atoms: C_4  and  C_5 
REMARK    2  A    between atoms: C_5  and  N_6 
REMARK    3  A    between atoms: C_10  and  C_11 
REMARK    4  A    between atoms: C_11  and  N_12 
REMARK       I    between atoms: N_12  and  C_13 
REMARK    5  A    between atoms: C_13  and  C_14 
REMARK    6  A    between atoms: C_14  and  C_15 
REMARK    7  A    between atoms: C_15  and  C_16 
REMARK       I    between atoms: C_16  and  N_17 
REMARK    8  A    between atoms: N_17  and  C_18 
REMARK    9  A    between atoms: C_24  and  N_25 
ROOT
HETATM    1  C   UNL     1      23.004  44.592  48.440  1.00  0.00     0.112 C 
ENDROOT
BRANCH   1   2
HETATM    2  C   UNL     1      21.658  45.275  48.657  1.00  0.00     0.112 C 
BRANCH   2   3
HETATM    3  C   UNL     1      21.649  46.729  48.251  1.00  0.00     0.218 C 
HETATM    4  N   UNL     1      20.769  47.530  48.949  1.00  0.00    -0.361 N 
HETATM    5  H   UNL     1      20.316  47.128  49.763  1.00  0.00     0.162 HD
HETATM    6  O   UNL     1      22.392  47.171  47.377  1.00  0.00    -0.274 OA
BRANCH   4   7
HETATM    7  C   UNL     1      20.853  48.977  48.887  1.00  0.00     0.127 C 
BRANCH   7   8
HETATM    8  C   UNL     1      20.049  49.710  49.982  1.00  0.00     0.006 C 
HETATM    9  C   UNL     1      18.635  49.158  50.213  1.00  0.00     0.034 C 
HETATM   10  C   UNL     1      17.701  49.409  49.035  1.00  0.00     0.235 C 
HETATM   11  N   UNL     1      17.628  50.900  48.773  1.00  0.00    -0.067 N 
HETATM   12  H   UNL     1      17.240  51.332  49.620  1.00  0.00     0.280 HD
HETATM   13  C   UNL     1      18.979  51.508  48.505  1.00  0.00     0.235 C 
HETATM   14  C   UNL     1      19.932  51.211  49.661  1.00  0.00     0.034 C 
BRANCH  11  15
HETATM   15  C   UNL     1      16.653  51.239  47.656  1.00  0.00     0.273 C 
BRANCH  15  16
HETATM   16  C   UNL     1      15.683  52.331  48.013  1.00  0.00    -0.032 A 
HETATM   17  C   UNL     1      15.397  52.624  49.358  1.00  0.00     0.015 A 
HETATM   18  C   UNL     1      14.455  53.607  49.691  1.00  0.00    -0.061 A 
HETATM   19  C   UNL     1      14.166  53.943  51.126  1.00  0.00     0.048 C 
HETATM   20  C   UNL     1      13.821  54.320  48.668  1.00  0.00     0.007 A 
HETATM   21  C   UNL     1      14.106  54.045  47.333  1.00  0.00     0.001 A 
HETATM   22  C   UNL     1      15.030  53.054  47.005  1.00  0.00     0.009 A 
ENDBRANCH  15  16
ENDBRANCH  11  15
ENDBRANCH   7   8
ENDBRANCH   4   7
ENDBRANCH   2   3
ENDBRANCH   1   2
BRANCH   1  23
HETATM   23  C   UNL     1      23.700  44.343  49.770  1.00  0.00     0.222 C 
HETATM   24  N   UNL     1      25.015  44.779  49.780  1.00  0.00    -0.327 N 
HETATM   25  H   UNL     1      25.390  45.117  48.901  1.00  0.00     0.169 HD
HETATM   26  O   UNL     1      23.125  43.790  50.702  1.00  0.00    -0.273 OA
BRANCH  24  27
HETATM   27  C   UNL     1      25.920  44.702  50.864  1.00  0.00     0.035 A 
HETATM   28  C   UNL     1      25.941  45.613  51.929  1.00  0.00     0.043 A 
HETATM   29  C   UNL     1      26.845  45.487  53.011  1.00  0.00    -0.001 A 
HETATM   30  C   UNL     1      27.743  44.401  52.995  1.00  0.00     0.044 A 
HETATM   31  C   UNL     1      26.898  46.376  54.112  1.00  0.00    -0.046 A 
HETATM   32  N   UNL     1      28.593  44.234  54.019  1.00  0.00    -0.346 N 
HETATM   33  C   UNL     1      27.744  43.497  51.924  1.00  0.00     0.033 A 
HETATM   34  H   UNL     1      29.199  43.422  54.053  1.00  0.00     0.167 HD
HETATM   35  C   UNL     1      28.679  45.042  55.082  1.00  0.00     0.083 A 
HETATM   36  C   UNL     1      27.818  46.138  55.142  1.00  0.00     0.050 A 
HETATM   37  C   UNL     1      26.845  43.654  50.863  1.00  0.00     0.032 A 
HETATM   38  C   UNL     1      25.978  47.567  54.218  1.00  0.00     0.049 C 
BRANCH  35  39
HETATM   39  N   UNL     1      29.589  44.662  56.055  1.00  0.00    -0.269 NA
HETATM   40  C   UNL     1      30.077  45.727  56.960  1.00  0.00     0.097 C 
HETATM   41  C   UNL     1      30.775  45.096  58.164  1.00  0.00     0.015 C 
HETATM   42  C   UNL     1      31.900  44.162  57.725  1.00  0.00     0.002 C 
HETATM   43  C   UNL     1      31.389  43.132  56.722  1.00  0.00     0.015 C 
HETATM   44  C   UNL     1      30.680  43.804  55.545  1.00  0.00     0.097 C 
ENDBRANCH  35  39
ENDBRANCH  24  27
ENDBRANCH   1  23
TORSDOF 9
ENDMDL
MODEL 5
REMARK VINA RESULT:     -10.7      1.992      2.807
REMARK  9 active torsions:
REMARK  status: ('A' for Active; 'I' for Inactive)
REMARK    1  A    between atoms: C_4  and  C_5 
REMARK    2  A    between atoms: C_5  and  N_6 
REMARK    3  A    between atoms: C_10  and  C_11 
REMARK    4  A    between atoms: C_11  and  N_12 
REMARK       I    between atoms: N_12  and  C_13 
REMARK    5  A    between atoms: C_13  and  C_14 
REMARK    6  A    between atoms: C_14  and  C_15 
REMARK    7  A    between atoms: C_15  and  C_16 
REMARK       I    between atoms: C_16  and  N_17 
REMARK    8  A    between atoms: N_17  and  C_18 
REMARK    9  A    between atoms: C_24  and  N_25 
ROOT
HETATM    1  C   UNL     1      23.285  48.290  49.044  1.00  0.00     0.112 C 
ENDROOT
BRANCH   1   2
HETATM    2  C   UNL     1      22.949  49.764  49.243  1.00  0.00     0.112 C 
BRANCH   2   3
HETATM    3  C   UNL     1      21.467  50.052  49.216  1.00  0.00     0.218 C 
HETATM    4  N   UNL     1      20.779  49.499  48.156  1.00  0.00    -0.361 N 
HETATM    5  H   UNL     1      21.274  48.833  47.573  1.00  0.00     0.162 HD
HETATM    6  O   UNL     1      20.912  50.711  50.092  1.00  0.00    -0.274 OA
BRANCH   4   7
HETATM    7  C   UNL     1      19.329  49.432  48.150  1.00  0.00     0.127 C 
BRANCH   7   8
HETATM    8  C   UNL     1      18.650  50.434  47.193  1.00  0.00     0.006 C 
HETATM    9  C   UNL     1      18.824  51.908  47.582  1.00  0.00     0.034 C 
HETATM   10  C   UNL     1      18.082  52.276  48.862  1.00  0.00     0.235 C 
HETATM   11  N   UNL     1      16.609  51.967  48.683  1.00  0.00    -0.067 N 
HETATM   12  H   UNL     1      16.274  52.554  47.909  1.00  0.00     0.280 HD
HETATM   13  C   UNL     1      16.356  50.525  48.329  1.00  0.00     0.235 C 
HETATM   14  C   UNL     1      17.142  50.142  47.077  1.00  0.00     0.034 C 
BRANCH  11  15
HETATM   15  C   UNL     1      15.785  52.377  49.894  1.00  0.00     0.273 C 
BRANCH  15  16
HETATM   16  C   UNL     1      14.618  53.263  49.558  1.00  0.00    -0.032 A 
HETATM   17  C   UNL     1      14.483  53.813  48.272  1.00  0.00     0.015 A 
HETATM   18  C   UNL     1      13.423  54.679  47.971  1.00  0.00    -0.061 A 
HETATM   19  C   UNL     1      13.257  55.247  46.591  1.00  0.00     0.048 C 
HETATM   20  C   UNL     1      12.478  54.970  48.961  1.00  0.00     0.007 A 
HETATM   21  C   UNL     1      12.597  54.422  50.236  1.00  0.00     0.001 A 
HETATM   22  C   UNL     1      13.662  53.575  50.535  1.00  0.00     0.009 A 
ENDBRANCH  15  16
ENDBRANCH  11  15
ENDBRANCH   7   8
ENDBRANCH   4   7
ENDBRANCH   2   3
ENDBRANCH   1   2
BRANCH   1  23
HETATM   23  C   UNL     1      24.582  47.934  49.754  1.00  0.00     0.222 C 
HETATM   24  N   UNL     1      24.377  47.230  50.930  1.00  0.00    -0.327 N 
HETATM   25  H   UNL     1      23.416  47.116  51.231  1.00  0.00     0.169 HD
HETATM   26  O   UNL     1      25.673  48.275  49.308  1.00  0.00    -0.273 OA
BRANCH  24  27
HETATM   27  C   UNL     1      25.375  46.746  51.808  1.00  0.00     0.035 A 
HETATM   28  C   UNL     1      25.729  47.375  53.009  1.00  0.00     0.043 A 
HETATM   29  C   UNL     1      26.715  46.844  53.876  1.00  0.00    -0.001 A 
HETATM   30  C   UNL     1      27.346  45.642  53.497  1.00  0.00     0.044 A 
HETATM   31  C   UNL     1      27.099  47.438  55.102  1.00  0.00    -0.046 A 
HETATM   32  N   UNL     1      28.263  45.096  54.309  1.00  0.00    -0.346 N 
HETATM   33  C   UNL     1      27.013  45.017  52.287  1.00  0.00     0.033 A 
HETATM   34  H   UNL     1      28.676  44.199  54.080  1.00  0.00     0.167 HD
HETATM   35  C   UNL     1      28.657  45.614  55.477  1.00  0.00     0.083 A 
HETATM   36  C   UNL     1      28.070  46.808  55.894  1.00  0.00     0.050 A 
HETATM   37  C   UNL     1      26.041  45.573  51.446  1.00  0.00     0.032 A 
HETATM   38  C   UNL     1      26.482  48.724  55.592  1.00  0.00     0.049 C 
BRANCH  35  39
HETATM   39  N   UNL     1      29.579  44.864  56.188  1.00  0.00    -0.269 NA
HETATM   40  C   UNL     1      30.382  45.585  57.201  1.00  0.00     0.097 C 
HETATM   41  C   UNL     1      31.075  44.577  58.117  1.00  0.00     0.015 C 
HETATM   42  C   UNL     1      31.921  43.591  57.317  1.00  0.00     0.002 C 
HETATM   43  C   UNL     1      31.091  42.930  56.220  1.00  0.00     0.015 C 
HETATM   44  C   UNL     1      30.400  43.972  55.340  1.00  0.00     0.097 C 
ENDBRANCH  35  39
ENDBRANCH  24  27
ENDBRANCH   1  23
TORSDOF 9
ENDMDL
MODEL 6
REMARK VINA RESULT:     -10.5      2.649     14.244
REMARK  9 active torsions:
REMARK  status: ('A' for Active; 'I' for Inactive)
REMARK    1  A    between atoms: C_4  and  C_5 
REMARK    2  A    between atoms: C_5  and  N_6 
REMARK    3  A    between atoms: C_10  and  C_11 
REMARK    4  A    between atoms: C_11  and  N_12 
REMARK       I    between atoms: N_12  and  C_13 
REMARK    5  A    between atoms: C_13  and  C_14 
REMARK    6  A    between atoms: C_14  and  C_15 
REMARK    7  A    between atoms: C_15  and  C_16 
REMARK       I    between atoms: C_16  and  N_17 
REMARK    8  A    between atoms: N_17  and  C_18 
REMARK    9  A    between atoms: C_24  and  N_25 
ROOT
HETATM    1  C   UNL     1      23.201  47.060  48.845  1.00  0.00     0.112 C 
ENDROOT
BRANCH   1   2
HETATM    2  C   UNL     1      22.560  45.778  48.325  1.00  0.00     0.112 C 
BRANCH   2   3
HETATM    3  C   UNL     1      23.104  44.528  48.974  1.00  0.00     0.218 C 
HETATM    4  N   UNL     1      24.368  44.156  48.568  1.00  0.00    -0.361 N 
HETATM    5  H   UNL     1      24.888  44.812  47.995  1.00  0.00     0.162 HD
HETATM    6  O   UNL     1      22.472  43.902  49.823  1.00  0.00    -0.274 OA
BRANCH   4   7
HETATM    7  C   UNL     1      25.137  43.169  49.303  1.00  0.00     0.127 C 
BRANCH   7   8
HETATM    8  C   UNL     1      26.625  43.532  49.493  1.00  0.00     0.006 C 
HETATM    9  C   UNL     1      27.359  42.689  50.545  1.00  0.00     0.034 C 
HETATM   10  C   UNL     1      26.875  42.959  51.965  1.00  0.00     0.235 C 
HETATM   11  N   UNL     1      27.056  44.431  52.276  1.00  0.00    -0.067 N 
HETATM   12  H   UNL     1      28.062  44.627  52.211  1.00  0.00     0.280 HD
HETATM   13  C   UNL     1      26.334  45.323  51.301  1.00  0.00     0.235 C 
HETATM   14  C   UNL     1      26.780  45.016  49.872  1.00  0.00     0.034 C 
BRANCH  11  15
HETATM   15  C   UNL     1      26.664  44.768  53.706  1.00  0.00     0.273 C 
BRANCH  15  16
HETATM   16  C   UNL     1      27.839  44.995  54.616  1.00  0.00    -0.032 A 
HETATM   17  C   UNL     1      28.905  44.081  54.653  1.00  0.00     0.015 A 
HETATM   18  C   UNL     1      29.977  44.266  55.536  1.00  0.00    -0.061 A 
HETATM   19  C   UNL     1      31.132  43.306  55.560  1.00  0.00     0.048 C 
HETATM   20  C   UNL     1      29.991  45.392  56.365  1.00  0.00     0.007 A 
HETATM   21  C   UNL     1      28.945  46.311  56.329  1.00  0.00     0.001 A 
HETATM   22  C   UNL     1      27.872  46.114  55.461  1.00  0.00     0.009 A 
ENDBRANCH  15  16
ENDBRANCH  11  15
ENDBRANCH   7   8
ENDBRANCH   4   7
ENDBRANCH   2   3
ENDBRANCH   1   2
BRANCH   1  23
HETATM   23  C   UNL     1      22.299  48.256  48.582  1.00  0.00     0.222 C 
HETATM   24  N   UNL     1      21.172  48.269  49.389  1.00  0.00    -0.327 N 
HETATM   25  H   UNL     1      21.025  47.458  49.979  1.00  0.00     0.169 HD
HETATM   26  O   UNL     1      22.567  49.087  47.720  1.00  0.00    -0.273 OA
BRANCH  24  27
HETATM   27  C   UNL     1      20.152  49.248  49.396  1.00  0.00     0.035 A 
HETATM   28  C   UNL     1      18.869  49.043  48.869  1.00  0.00     0.043 A 
HETATM   29  C   UNL     1      17.865  50.039  48.920  1.00  0.00    -0.001 A 
HETATM   30  C   UNL     1      18.189  51.270  49.528  1.00  0.00     0.044 A 
HETATM   31  C   UNL     1      16.555  49.875  48.410  1.00  0.00    -0.046 A 
HETATM   32  N   UNL     1      17.252  52.225  49.620  1.00  0.00    -0.346 N 
HETATM   33  C   UNL     1      19.475  51.491  50.038  1.00  0.00     0.033 A 
HETATM   34  H   UNL     1      17.451  53.089  50.111  1.00  0.00     0.167 HD
HETATM   35  C   UNL     1      16.000  52.117  49.158  1.00  0.00     0.083 A 
HETATM   36  C   UNL     1      15.632  50.923  48.540  1.00  0.00     0.050 A 
HETATM   37  C   UNL     1      20.450  50.490  49.963  1.00  0.00     0.032 A 
HETATM   38  C   UNL     1      16.114  48.596  47.744  1.00  0.00     0.049 C 
BRANCH  35  39
HETATM   39  N   UNL     1      15.174  53.202  49.401  1.00  0.00    -0.269 NA
HETATM   40  C   UNL     1      14.211  53.066  50.517  1.00  0.00     0.097 C 
HETATM   41  C   UNL     1      13.642  54.438  50.873  1.00  0.00     0.015 C 
HETATM   42  C   UNL     1      13.011  55.109  49.655  1.00  0.00     0.002 C 
HETATM   43  C   UNL     1      13.995  55.153  48.490  1.00  0.00     0.015 C 
HETATM   44  C   UNL     1      14.556  53.764  48.181  1.00  0.00     0.097 C 
ENDBRANCH  35  39
ENDBRANCH  24  27
ENDBRANCH   1  23
TORSDOF 9
ENDMDL
MODEL 7
REMARK VINA RESULT:     -10.4      2.010      3.247
REMARK  9 active torsions:
REMARK  status: ('A' for Active; 'I' for Inactive)
REMARK    1  A    between atoms: C_4  and  C_5 
REMARK    2  A    between atoms: C_5  and  N_6 
REMARK    3  A    between atoms: C_10  and  C_11 
REMARK    4  A    between atoms: C_11  and  N_12 
REMARK       I    between atoms: N_12  and  C_13 
REMARK    5  A    between atoms: C_13  and  C_14 
REMARK    6  A    between atoms: C_14  and  C_15 
REMARK    7  A    between atoms: C_15  and  C_16 
REMARK       I    between atoms: C_16  and  N_17 
REMARK    8  A    between atoms: N_17  and  C_18 
REMARK    9  A    between atoms: C_24  and  N_25 
ROOT
HETATM    1  C   UNL     1      23.596  48.352  48.879  1.00  0.00     0.112 C 
ENDROOT
BRANCH   1   2
HETATM    2  C   UNL     1      22.744  47.097  48.718  1.00  0.00     0.112 C 
BRANCH   2   3
HETATM    3  C   UNL     1      21.260  47.364  48.797  1.00  0.00     0.218 C 
HETATM    4  N   UNL     1      20.911  48.655  49.136  1.00  0.00    -0.361 N 
HETATM    5  H   UNL     1      21.650  49.349  49.159  1.00  0.00     0.162 HD
HETATM    6  O   UNL     1      20.424  46.498  48.550  1.00  0.00    -0.274 OA
BRANCH   4   7
HETATM    7  C   UNL     1      19.554  49.140  48.964  1.00  0.00     0.127 C 
BRANCH   7   8
HETATM    8  C   UNL     1      19.444  50.445  48.148  1.00  0.00     0.006 C 
HETATM    9  C   UNL     1      19.476  51.729  48.989  1.00  0.00     0.034 C 
HETATM   10  C   UNL     1      18.238  51.899  49.861  1.00  0.00     0.235 C 
HETATM   11  N   UNL     1      17.008  51.902  48.975  1.00  0.00    -0.067 N 
HETATM   12  H   UNL     1      17.099  52.707  48.344  1.00  0.00     0.280 HD
HETATM   13  C   UNL     1      16.891  50.654  48.140  1.00  0.00     0.235 C 
HETATM   14  C   UNL     1      18.155  50.455  47.306  1.00  0.00     0.034 C 
BRANCH  11  15
HETATM   15  C   UNL     1      15.732  52.143  49.766  1.00  0.00     0.273 C 
BRANCH  15  16
HETATM   16  C   UNL     1      14.810  53.147  49.131  1.00  0.00    -0.032 A 
HETATM   17  C   UNL     1      13.866  53.844  49.905  1.00  0.00     0.015 A 
HETATM   18  C   UNL     1      12.973  54.743  49.307  1.00  0.00    -0.061 A 
HETATM   19  C   UNL     1      11.982  55.511  50.133  1.00  0.00     0.048 C 
HETATM   20  C   UNL     1      13.048  54.964  47.928  1.00  0.00     0.007 A 
HETATM   21  C   UNL     1      13.987  54.286  47.153  1.00  0.00     0.001 A 
HETATM   22  C   UNL     1      14.862  53.380  47.749  1.00  0.00     0.009 A 
ENDBRANCH  15  16
ENDBRANCH  11  15
ENDBRANCH   7   8
ENDBRANCH   4   7
ENDBRANCH   2   3
ENDBRANCH   1   2
BRANCH   1  23
HETATM   23  C   UNL     1      24.772  48.086  49.807  1.00  0.00     0.222 C 
HETATM   24  N   UNL     1      24.469  47.186  50.816  1.00  0.00    -0.327 N 
HETATM   25  H   UNL     1      23.503  46.886  50.884  1.00  0.00     0.169 HD
HETATM   26  O   UNL     1      25.851  48.649  49.654  1.00  0.00    -0.273 OA
BRANCH  24  27
HETATM   27  C   UNL     1      25.345  46.725  51.826  1.00  0.00     0.035 A 
HETATM   28  C   UNL     1      26.127  45.567  51.712  1.00  0.00     0.043 A 
HETATM   29  C   UNL     1      27.014  45.153  52.734  1.00  0.00    -0.001 A 
HETATM   30  C   UNL     1      27.098  45.949  53.895  1.00  0.00     0.044 A 
HETATM   31  C   UNL     1      27.829  43.998  52.660  1.00  0.00    -0.046 A 
HETATM   32  N   UNL     1      27.951  45.601  54.870  1.00  0.00    -0.346 N 
HETATM   33  C   UNL     1      26.305  47.096  54.027  1.00  0.00     0.033 A 
HETATM   34  H   UNL     1      28.069  46.199  55.681  1.00  0.00     0.167 HD
HETATM   35  C   UNL     1      28.744  44.524  54.847  1.00  0.00     0.083 A 
HETATM   36  C   UNL     1      28.692  43.699  53.724  1.00  0.00     0.050 A 
HETATM   37  C   UNL     1      25.429  47.474  53.002  1.00  0.00     0.032 A 
HETATM   38  C   UNL     1      27.809  43.085  51.460  1.00  0.00     0.049 C 
BRANCH  35  39
HETATM   39  N   UNL     1      29.589  44.375  55.934  1.00  0.00    -0.269 NA
HETATM   40  C   UNL     1      29.956  45.609  56.663  1.00  0.00     0.097 C 
HETATM   41  C   UNL     1      30.582  45.243  58.008  1.00  0.00     0.015 C 
HETATM   42  C   UNL     1      31.778  44.312  57.827  1.00  0.00     0.002 C 
HETATM   43  C   UNL     1      31.395  43.093  56.993  1.00  0.00     0.015 C 
HETATM   44  C   UNL     1      30.753  43.504  55.667  1.00  0.00     0.097 C 
ENDBRANCH  35  39
ENDBRANCH  24  27
ENDBRANCH   1  23
TORSDOF 9
ENDMDL
MODEL 8
REMARK VINA RESULT:     -10.2      2.316     14.824
REMARK  9 active torsions:
REMARK  status: ('A' for Active; 'I' for Inactive)
REMARK    1  A    between atoms: C_4  and  C_5 
REMARK    2  A    between atoms: C_5  and  N_6 
REMARK    3  A    between atoms: C_10  and  C_11 
REMARK    4  A    between atoms: C_11  and  N_12 
REMARK       I    between atoms: N_12  and  C_13 
REMARK    5  A    between atoms: C_13  and  C_14 
REMARK    6  A    between atoms: C_14  and  C_15 
REMARK    7  A    between atoms: C_15  and  C_16 
REMARK       I    between atoms: C_16  and  N_17 
REMARK    8  A    between atoms: N_17  and  C_18 
REMARK    9  A    between atoms: C_24  and  N_25 
ROOT
HETATM    1  C   UNL     1      23.891  49.353  48.831  1.00  0.00     0.112 C 
ENDROOT
BRANCH   1   2
HETATM    2  C   UNL     1      25.294  49.825  48.464  1.00  0.00     0.112 C 
BRANCH   2   3
HETATM    3  C   UNL     1      26.385  48.901  48.951  1.00  0.00     0.218 C 
HETATM    4  N   UNL     1      25.949  47.774  49.615  1.00  0.00    -0.361 N 
HETATM    5  H   UNL     1      24.955  47.575  49.597  1.00  0.00     0.162 HD
HETATM    6  O   UNL     1      27.575  49.127  48.746  1.00  0.00    -0.274 OA
BRANCH   4   7
HETATM    7  C   UNL     1      26.840  46.659  49.876  1.00  0.00     0.127 C 
BRANCH   7   8
HETATM    8  C   UNL     1      26.182  45.270  49.739  1.00  0.00     0.006 C 
HETATM    9  C   UNL     1      24.850  45.118  50.488  1.00  0.00     0.034 C 
HETATM   10  C   UNL     1      25.015  45.144  52.003  1.00  0.00     0.235 C 
HETATM   11  N   UNL     1      25.960  44.034  52.415  1.00  0.00    -0.067 N 
HETATM   12  H   UNL     1      25.521  43.150  52.131  1.00  0.00     0.280 HD
HETATM   13  C   UNL     1      27.303  44.135  51.743  1.00  0.00     0.235 C 
HETATM   14  C   UNL     1      27.135  44.163  50.225  1.00  0.00     0.034 C 
BRANCH  11  15
HETATM   15  C   UNL     1      26.118  43.946  53.925  1.00  0.00     0.273 C 
BRANCH  15  16
HETATM   16  C   UNL     1      27.547  43.824  54.375  1.00  0.00    -0.032 A 
HETATM   17  C   UNL     1      28.186  44.889  55.032  1.00  0.00     0.015 A 
HETATM   18  C   UNL     1      29.533  44.795  55.408  1.00  0.00    -0.061 A 
HETATM   19  C   UNL     1      30.211  45.919  56.135  1.00  0.00     0.048 C 
HETATM   20  C   UNL     1      30.232  43.612  55.147  1.00  0.00     0.007 A 
HETATM   21  C   UNL     1      29.606  42.546  54.506  1.00  0.00     0.001 A 
HETATM   22  C   UNL     1      28.271  42.650  54.118  1.00  0.00     0.009 A 
ENDBRANCH  15  16
ENDBRANCH  11  15
ENDBRANCH   7   8
ENDBRANCH   4   7
ENDBRANCH   2   3
ENDBRANCH   1   2
BRANCH   1  23
HETATM   23  C   UNL     1      22.844  50.112  48.030  1.00  0.00     0.222 C 
HETATM   24  N   UNL     1      21.589  50.084  48.619  1.00  0.00    -0.327 N 
HETATM   25  H   UNL     1      21.486  49.500  49.441  1.00  0.00     0.169 HD
HETATM   26  O   UNL     1      23.119  50.658  46.966  1.00  0.00    -0.273 OA
BRANCH  24  27
HETATM   27  C   UNL     1      20.415  50.701  48.132  1.00  0.00     0.035 A 
HETATM   28  C   UNL     1      19.724  50.273  46.990  1.00  0.00     0.043 A 
HETATM   29  C   UNL     1      18.535  50.901  46.548  1.00  0.00    -0.001 A 
HETATM   30  C   UNL     1      18.047  51.990  47.299  1.00  0.00     0.044 A 
HETATM   31  C   UNL     1      17.799  50.499  45.408  1.00  0.00    -0.046 A 
HETATM   32  N   UNL     1      16.907  52.589  46.926  1.00  0.00    -0.346 N 
HETATM   33  C   UNL     1      18.743  52.439  48.430  1.00  0.00     0.033 A 
HETATM   34  H   UNL     1      16.512  53.331  47.493  1.00  0.00     0.167 HD
HETATM   35  C   UNL     1      16.174  52.245  45.861  1.00  0.00     0.083 A 
HETATM   36  C   UNL     1      16.617  51.179  45.080  1.00  0.00     0.050 A 
HETATM   37  C   UNL     1      19.923  51.804  48.835  1.00  0.00     0.032 A 
HETATM   38  C   UNL     1      18.239  49.346  44.541  1.00  0.00     0.049 C 
BRANCH  35  39
HETATM   39  N   UNL     1      15.001  52.959  45.682  1.00  0.00    -0.269 NA
HETATM   40  C   UNL     1      14.467  53.667  46.867  1.00  0.00     0.097 C 
HETATM   41  C   UNL     1      13.400  54.669  46.428  1.00  0.00     0.015 C 
HETATM   42  C   UNL     1      12.295  53.986  45.627  1.00  0.00     0.002 C 
HETATM   43  C   UNL     1      12.880  53.188  44.465  1.00  0.00     0.015 C 
HETATM   44  C   UNL     1      13.957  52.214  44.945  1.00  0.00     0.097 C 
ENDBRANCH  35  39
ENDBRANCH  24  27
ENDBRANCH   1  23
TORSDOF 9
ENDMDL
MODEL 9
REMARK VINA RESULT:     -10.1      5.359     10.203
REMARK  9 active torsions:
REMARK  status: ('A' for Active; 'I' for Inactive)
REMARK    1  A    between atoms: C_4  and  C_5 
REMARK    2  A    between atoms: C_5  and  N_6 
REMARK    3  A    between atoms: C_10  and  C_11 
REMARK    4  A    between atoms: C_11  and  N_12 
REMARK       I    between atoms: N_12  and  C_13 
REMARK    5  A    between atoms: C_13  and  C_14 
REMARK    6  A    between atoms: C_14  and  C_15 
REMARK    7  A    between atoms: C_15  and  C_16 
REMARK       I    between atoms: C_16  and  N_17 
REMARK    8  A    between atoms: N_17  and  C_18 
REMARK    9  A    between atoms: C_24  and  N_25 
ROOT
HETATM    1  C   UNL     1      23.081  48.122  48.882  1.00  0.00     0.112 C 
ENDROOT
BRANCH   1   2
HETATM    2  C   UNL     1      22.161  46.916  49.034  1.00  0.00     0.112 C 
BRANCH   2   3
HETATM    3  C   UNL     1      22.319  45.896  47.931  1.00  0.00     0.218 C 
HETATM    4  N   UNL     1      22.988  44.744  48.287  1.00  0.00    -0.361 N 
HETATM    5  H   UNL     1      23.186  44.602  49.271  1.00  0.00     0.162 HD
HETATM    6  O   UNL     1      21.861  46.073  46.805  1.00  0.00    -0.274 OA
BRANCH   4   7
HETATM    7  C   UNL     1      22.959  43.564  47.442  1.00  0.00     0.127 C 
BRANCH   7   8
HETATM    8  C   UNL     1      23.006  42.228  48.213  1.00  0.00     0.006 C 
HETATM    9  C   UNL     1      23.813  42.271  49.518  1.00  0.00     0.034 C 
HETATM   10  C   UNL     1      25.308  42.452  49.286  1.00  0.00     0.235 C 
HETATM   11  N   UNL     1      25.813  41.320  48.413  1.00  0.00    -0.067 N 
HETATM   12  H   UNL     1      25.647  40.450  48.931  1.00  0.00     0.280 HD
HETATM   13  C   UNL     1      25.086  41.235  47.097  1.00  0.00     0.235 C 
HETATM   14  C   UNL     1      23.582  41.107  47.329  1.00  0.00     0.034 C 
BRANCH  11  15
HETATM   15  C   UNL     1      27.316  41.390  48.196  1.00  0.00     0.273 C 
BRANCH  15  16
HETATM   16  C   UNL     1      28.012  40.069  48.376  1.00  0.00    -0.032 A 
HETATM   17  C   UNL     1      28.597  39.728  49.607  1.00  0.00     0.015 A 
HETATM   18  C   UNL     1      29.289  38.520  49.762  1.00  0.00    -0.061 A 
HETATM   19  C   UNL     1      29.891  38.139  51.083  1.00  0.00     0.048 C 
HETATM   20  C   UNL     1      29.368  37.636  48.681  1.00  0.00     0.007 A 
HETATM   21  C   UNL     1      28.783  37.959  47.458  1.00  0.00     0.001 A 
HETATM   22  C   UNL     1      28.110  39.170  47.304  1.00  0.00     0.009 A 
ENDBRANCH  15  16
ENDBRANCH  11  15
ENDBRANCH   7   8
ENDBRANCH   4   7
ENDBRANCH   2   3
ENDBRANCH   1   2
BRANCH   1  23
HETATM   23  C   UNL     1      24.354  47.930  49.693  1.00  0.00     0.222 C 
HETATM   24  N   UNL     1      24.238  46.936  50.652  1.00  0.00    -0.327 N 
HETATM   25  H   UNL     1      23.319  46.525  50.772  1.00  0.00     0.169 HD
HETATM   26  O   UNL     1      25.350  48.621  49.499  1.00  0.00    -0.273 OA
BRANCH  24  27
HETATM   27  C   UNL     1      25.242  46.511  51.552  1.00  0.00     0.035 A 
HETATM   28  C   UNL     1      25.565  47.187  52.736  1.00  0.00     0.043 A 
HETATM   29  C   UNL     1      26.559  46.715  53.627  1.00  0.00    -0.001 A 
HETATM   30  C   UNL     1      27.232  45.522  53.289  1.00  0.00     0.044 A 
HETATM   31  C   UNL     1      26.914  47.356  54.838  1.00  0.00    -0.046 A 
HETATM   32  N   UNL     1      28.159  45.031  54.125  1.00  0.00    -0.346 N 
HETATM   33  C   UNL     1      26.931  44.852  52.096  1.00  0.00     0.033 A 
HETATM   34  H   UNL     1      28.604  44.141  53.927  1.00  0.00     0.167 HD
HETATM   35  C   UNL     1      28.526  45.597  55.281  1.00  0.00     0.083 A 
HETATM   36  C   UNL     1      27.897  46.783  55.656  1.00  0.00     0.050 A 
HETATM   37  C   UNL     1      25.950  45.350  51.231  1.00  0.00     0.032 A 
HETATM   38  C   UNL     1      26.250  48.636  55.284  1.00  0.00     0.049 C 
BRANCH  35  39
HETATM   39  N   UNL     1      29.465  44.898  56.021  1.00  0.00    -0.269 NA
HETATM   40  C   UNL     1      30.244  45.677  57.010  1.00  0.00     0.097 C 
HETATM   41  C   UNL     1      30.960  44.722  57.964  1.00  0.00     0.015 C 
HETATM   42  C   UNL     1      31.836  43.732  57.203  1.00  0.00     0.002 C 
HETATM   43  C   UNL     1      31.030  43.009  56.128  1.00  0.00     0.015 C 
HETATM   44  C   UNL     1      30.313  43.999  55.208  1.00  0.00     0.097 C 
ENDBRANCH  35  39
ENDBRANCH  24  27
ENDBRANCH   1  23
TORSDOF 9
ENDMDL
MODEL 10
REMARK VINA RESULT:     -10.0      5.304     12.057
REMARK  9 active torsions:
REMARK  status: ('A' for Active; 'I' for Inactive)
REMARK    1  A    between atoms: C_4  and  C_5 
REMARK    2  A    between atoms: C_5  and  N_6 
REMARK    3  A    between atoms: C_10  and  C_11 
REMARK    4  A    between atoms: C_11  and  N_12 
REMARK       I    between atoms: N_12  and  C_13 
REMARK    5  A    between atoms: C_13  and  C_14 
REMARK    6  A    between atoms: C_14  and  C_15 
REMARK    7  A    between atoms: C_15  and  C_16 
REMARK       I    between atoms: C_16  and  N_17 
REMARK    8  A    between atoms: N_17  and  C_18 
REMARK    9  A    between atoms: C_24  and  N_25 
ROOT
HETATM    1  C   UNL     1      29.334  42.758  52.630  1.00  0.00     0.112 C 
ENDROOT
BRANCH   1   2
HETATM    2  C   UNL     1      28.639  41.482  53.092  1.00  0.00     0.112 C 
BRANCH   2   3
HETATM    3  C   UNL     1      28.172  40.606  51.954  1.00  0.00     0.218 C 
HETATM    4  N   UNL     1      26.820  40.662  51.685  1.00  0.00    -0.361 N 
HETATM    5  H   UNL     1      26.279  41.379  52.156  1.00  0.00     0.162 HD
HETATM    6  O   UNL     1      28.947  39.913  51.299  1.00  0.00    -0.274 OA
BRANCH   4   7
HETATM    7  C   UNL     1      26.273  40.121  50.455  1.00  0.00     0.127 C 
BRANCH   7   8
HETATM    8  C   UNL     1      25.835  41.188  49.429  1.00  0.00     0.006 C 
HETATM    9  C   UNL     1      24.955  40.656  48.290  1.00  0.00     0.034 C 
HETATM   10  C   UNL     1      25.706  39.726  47.345  1.00  0.00     0.235 C 
HETATM   11  N   UNL     1      26.895  40.466  46.766  1.00  0.00    -0.067 N 
HETATM   12  H   UNL     1      26.520  41.264  46.239  1.00  0.00     0.280 HD
HETATM   13  C   UNL     1      27.824  40.993  47.828  1.00  0.00     0.235 C 
HETATM   14  C   UNL     1      27.060  41.882  48.806  1.00  0.00     0.034 C 
BRANCH  11  15
HETATM   15  C   UNL     1      27.656  39.626  45.752  1.00  0.00     0.273 C 
BRANCH  15  16
HETATM   16  C   UNL     1      27.929  40.343  44.459  1.00  0.00    -0.032 A 
HETATM   17  C   UNL     1      27.105  41.401  44.038  1.00  0.00     0.015 A 
HETATM   18  C   UNL     1      27.329  42.037  42.809  1.00  0.00    -0.061 A 
HETATM   19  C   UNL     1      26.469  43.186  42.367  1.00  0.00     0.048 C 
HETATM   20  C   UNL     1      28.404  41.627  42.014  1.00  0.00     0.007 A 
HETATM   21  C   UNL     1      29.233  40.587  42.427  1.00  0.00     0.001 A 
HETATM   22  C   UNL     1      28.997  39.945  43.642  1.00  0.00     0.009 A 
ENDBRANCH  15  16
ENDBRANCH  11  15
ENDBRANCH   7   8
ENDBRANCH   4   7
ENDBRANCH   2   3
ENDBRANCH   1   2
BRANCH   1  23
HETATM   23  C   UNL     1      28.352  43.919  52.591  1.00  0.00     0.222 C 
HETATM   24  N   UNL     1      27.660  44.000  51.392  1.00  0.00    -0.327 N 
HETATM   25  H   UNL     1      27.943  43.359  50.660  1.00  0.00     0.169 HD
HETATM   26  O   UNL     1      28.232  44.692  53.536  1.00  0.00    -0.273 OA
BRANCH  24  27
HETATM   27  C   UNL     1      26.674  44.954  51.050  1.00  0.00     0.035 A 
HETATM   28  C   UNL     1      26.954  46.171  50.415  1.00  0.00     0.043 A 
HETATM   29  C   UNL     1      25.935  47.089  50.064  1.00  0.00    -0.001 A 
HETATM   30  C   UNL     1      24.603  46.744  50.372  1.00  0.00     0.044 A 
HETATM   31  C   UNL     1      26.167  48.325  49.414  1.00  0.00    -0.046 A 
HETATM   32  N   UNL     1      23.610  47.578  50.027  1.00  0.00    -0.346 N 
HETATM   33  C   UNL     1      24.317  45.539  51.027  1.00  0.00     0.033 A 
HETATM   34  H   UNL     1      22.645  47.313  50.184  1.00  0.00     0.167 HD
HETATM   35  C   UNL     1      23.777  48.753  49.409  1.00  0.00     0.083 A 
HETATM   36  C   UNL     1      25.076  49.144  49.089  1.00  0.00     0.050 A 
HETATM   37  C   UNL     1      25.347  44.656  51.371  1.00  0.00     0.032 A 
HETATM   38  C   UNL     1      27.556  48.781  49.043  1.00  0.00     0.049 C 
BRANCH  35  39
HETATM   39  N   UNL     1      22.615  49.437  49.094  1.00  0.00    -0.269 NA
HETATM   40  C   UNL     1      22.398  49.758  47.666  1.00  0.00     0.097 C 
HETATM   41  C   UNL     1      20.946  50.181  47.450  1.00  0.00     0.015 C 
HETATM   42  C   UNL     1      20.569  51.348  48.358  1.00  0.00     0.002 C 
HETATM   43  C   UNL     1      20.888  51.026  49.815  1.00  0.00     0.015 C 
HETATM   44  C   UNL     1      22.343  50.587  49.983  1.00  0.00     0.097 C 
ENDBRANCH  35  39
ENDBRANCH  24  27
ENDBRANCH   1  23
TORSDOF 9
ENDMDL
