MODEL 1
REMARK VINA RESULT:      -9.7      0.000      0.000
REMARK  8 active torsions:
REMARK  status: ('A' for Active; 'I' for Inactive)
REMARK    1  A    between atoms: C_2  and  C_3 
REMARK    2  A    between atoms: C_3  and  C_4 
REMARK       I    between atoms: C_4  and  N_5 
REMARK    3  A    between atoms: N_8  and  C_9 
REMARK    4  A    between atoms: C_12  and  N_13 
REMARK    5  A    between atoms: N_13  and  C_14 
REMARK    6  A    between atoms: C_14  and  N_15 
REMARK       I    between atoms: N_15  and  C_16 
REMARK    7  A    between atoms: C_16  and  C_17 
REMARK    8  A    between atoms: C_19  and  C_20 
ROOT
HETATM    1  N   UNL     1      23.779  46.026  48.870  1.00  0.00    -0.333 N 
HETATM    2  H   UNL     1      24.388  45.764  48.095  1.00  0.00     0.168 HD
ENDROOT
BRANCH   1   3
HETATM    3  C   UNL     1      22.924  47.125  48.652  1.00  0.00     0.034 A 
HETATM    4  C   UNL     1      23.086  48.334  49.320  1.00  0.00     0.031 A 
HETATM    5  C   UNL     1      22.167  49.369  49.143  1.00  0.00     0.026 A 
HETATM    6  C   UNL     1      21.043  49.228  48.316  1.00  0.00     0.010 A 
HETATM    7  C   UNL     1      20.966  48.052  47.557  1.00  0.00     0.026 A 
HETATM    8  C   UNL     1      21.904  47.016  47.710  1.00  0.00     0.031 A 
BRANCH   6   9
HETATM    9  N   UNL     1      20.078  50.253  48.293  1.00  0.00    -0.280 NA
HETATM   10  C   UNL     1      19.598  50.596  49.659  1.00  0.00     0.115 C 
HETATM   11  C   UNL     1      18.751  51.878  49.644  1.00  0.00     0.140 C 
HETATM   12  N   UNL     1      17.663  51.815  48.664  1.00  0.00    -0.350 N 
HETATM   13  C   UNL     1      16.428  52.426  48.801  1.00  0.00     0.219 C 
HETATM   14  C   UNL     1      18.099  51.414  47.320  1.00  0.00     0.140 C 
HETATM   15  O   UNL     1      15.645  52.529  47.852  1.00  0.00    -0.273 OA
HETATM   16  C   UNL     1      18.960  50.135  47.328  1.00  0.00     0.115 C 
BRANCH  13  17
HETATM   17  C   UNL     1      15.993  52.921  50.171  1.00  0.00     0.103 C 
BRANCH  17  18
HETATM   18  C   UNL     1      14.487  52.778  50.390  1.00  0.00     0.005 C 
HETATM   19  C   UNL     1      13.706  54.071  50.224  1.00  0.00     0.005 C 
ENDBRANCH  17  18
ENDBRANCH  13  17
ENDBRANCH   6   9
ENDBRANCH   1   3
BRANCH   1  20
HETATM   20  C   UNL     1      23.706  45.097  49.881  1.00  0.00     0.179 C 
HETATM   21  S   UNL     1      22.724  43.741  49.992  1.00  0.00    -0.040 SA
BRANCH  20  22
HETATM   22  N   UNL     1      24.564  45.286  50.936  1.00  0.00    -0.298 N 
HETATM   23  C   UNL     1      25.812  45.890  51.008  1.00  0.00     0.281 C 
HETATM   24  O   UNL     1      26.519  46.110  50.028  1.00  0.00    -0.265 OA
HETATM   25  H   UNL     1      24.144  45.075  51.834  1.00  0.00     0.171 HD
BRANCH  23  26
HETATM   26  C   UNL     1      26.182  46.173  52.380  1.00  0.00     0.144 A 
HETATM   27  O   UNL     1      27.268  45.511  52.888  1.00  0.00    -0.304 OA
HETATM   28  C   UNL     1      27.440  45.897  54.184  1.00  0.00     0.086 A 
HETATM   29  C   UNL     1      26.465  46.821  54.510  1.00  0.00     0.041 A 
HETATM   30  C   UNL     1      25.657  46.996  53.353  1.00  0.00     0.046 A 
BRANCH  28  31
HETATM   31  C   UNL     1      28.564  45.273  54.880  1.00  0.00    -0.002 A 
HETATM   32  C   UNL     1      29.064  44.030  54.469  1.00  0.00     0.016 A 
HETATM   33  C   UNL     1      30.135  43.430  55.145  1.00  0.00     0.024 A 
HETATM   34  C   UNL     1      30.717  44.070  56.235  1.00  0.00     0.034 A 
HETATM   35 CL   UNL     1      32.029  43.331  57.066  1.00  0.00    -0.084 Cl
HETATM   36  C   UNL     1      30.239  45.306  56.658  1.00  0.00     0.024 A 
HETATM   37  C   UNL     1      29.170  45.902  55.982  1.00  0.00     0.016 A 
ENDBRANCH  28  31
ENDBRANCH  23  26
ENDBRANCH  20  22
ENDBRANCH   1  20
TORSDOF 8
ENDMDL
MODEL 2
REMARK VINA RESULT:      -9.7      1.758      2.332
REMARK  8 active torsions:
REMARK  status: ('A' for Active; 'I' for Inactive)
REMARK    1  A    between atoms: C_2  and  C_3 
REMARK    2  A    between atoms: C_3  and  C_4 
REMARK       I    between atoms: C_4  and  N_5 
REMARK    3  A    between atoms: N_8  and  C_9 
REMARK    4  A    between atoms: C_12  and  N_13 
REMARK    5  A    between atoms: N_13  and  C_14 
REMARK    6  A    between atoms: C_14  and  N_15 
REMARK       I    between atoms: N_15  and  C_16 
REMARK    7  A    between atoms: C_16  and  C_17 
REMARK    8  A    between atoms: C_19  and  C_20 
ROOT
HETATM    1  N   UNL     1      25.032  45.482  49.634  1.00  0.00    -0.333 N 
HETATM    2  H   UNL     1      25.828  45.416  49.000  1.00  0.00     0.168 HD
ENDROOT
BRANCH   1   3
HETATM    3  C   UNL     1      23.827  45.957  49.079  1.00  0.00     0.034 A 
HETATM    4  C   UNL     1      23.569  47.314  48.921  1.00  0.00     0.031 A 
HETATM    5  C   UNL     1      22.329  47.747  48.450  1.00  0.00     0.026 A 
HETATM    6  C   UNL     1      21.296  46.848  48.146  1.00  0.00     0.010 A 
HETATM    7  C   UNL     1      21.617  45.484  48.193  1.00  0.00     0.026 A 
HETATM    8  C   UNL     1      22.874  45.041  48.641  1.00  0.00     0.031 A 
BRANCH   6   9
HETATM    9  N   UNL     1      20.024  47.354  47.815  1.00  0.00    -0.280 NA
HETATM   10  C   UNL     1      19.970  48.837  47.923  1.00  0.00     0.115 C 
HETATM   11  C   UNL     1      18.672  49.390  47.315  1.00  0.00     0.140 C 
HETATM   12  N   UNL     1      17.478  48.742  47.866  1.00  0.00    -0.350 N 
HETATM   13  C   UNL     1      16.248  49.351  48.043  1.00  0.00     0.219 C 
HETATM   14  C   UNL     1      17.533  47.274  47.832  1.00  0.00     0.140 C 
HETATM   15  O   UNL     1      15.229  48.699  48.293  1.00  0.00    -0.273 OA
HETATM   16  C   UNL     1      18.838  46.712  48.430  1.00  0.00     0.115 C 
BRANCH  13  17
HETATM   17  C   UNL     1      16.158  50.868  47.999  1.00  0.00     0.103 C 
BRANCH  17  18
HETATM   18  C   UNL     1      16.279  51.498  49.386  1.00  0.00     0.005 C 
HETATM   19  C   UNL     1      17.610  52.184  49.646  1.00  0.00     0.005 C 
ENDBRANCH  17  18
ENDBRANCH  13  17
ENDBRANCH   6   9
ENDBRANCH   1   3
BRANCH   1  20
HETATM   20  C   UNL     1      25.204  44.841  50.839  1.00  0.00     0.179 C 
HETATM   21  S   UNL     1      24.770  43.279  51.269  1.00  0.00    -0.040 SA
BRANCH  20  22
HETATM   22  N   UNL     1      25.834  45.564  51.822  1.00  0.00    -0.298 N 
HETATM   23  C   UNL     1      25.590  46.834  52.328  1.00  0.00     0.281 C 
HETATM   24  O   UNL     1      24.913  47.679  51.747  1.00  0.00    -0.265 OA
HETATM   25  H   UNL     1      26.494  45.014  52.360  1.00  0.00     0.171 HD
BRANCH  23  26
HETATM   26  C   UNL     1      26.274  47.040  53.588  1.00  0.00     0.144 A 
HETATM   27  O   UNL     1      27.278  46.166  53.909  1.00  0.00    -0.304 OA
HETATM   28  C   UNL     1      27.779  46.514  55.128  1.00  0.00     0.086 A 
HETATM   29  C   UNL     1      27.099  47.625  55.591  1.00  0.00     0.041 A 
HETATM   30  C   UNL     1      26.132  47.960  54.604  1.00  0.00     0.046 A 
BRANCH  28  31
HETATM   31  C   UNL     1      28.864  45.670  55.624  1.00  0.00    -0.002 A 
HETATM   32  C   UNL     1      29.304  44.558  54.892  1.00  0.00     0.016 A 
HETATM   33  C   UNL     1      30.338  43.745  55.375  1.00  0.00     0.024 A 
HETATM   34  C   UNL     1      30.944  44.040  56.593  1.00  0.00     0.034 A 
HETATM   35 CL   UNL     1      32.210  43.039  57.187  1.00  0.00    -0.084 Cl
HETATM   36  C   UNL     1      30.526  45.140  57.335  1.00  0.00     0.024 A 
HETATM   37  C   UNL     1      29.493  45.948  56.850  1.00  0.00     0.016 A 
ENDBRANCH  28  31
ENDBRANCH  23  26
ENDBRANCH  20  22
ENDBRANCH   1  20
TORSDOF 8
ENDMDL
MODEL 3
REMARK VINA RESULT:      -9.6      0.729      1.348
REMARK  8 active torsions:
REMARK  status: ('A' for Active; 'I' for Inactive)
REMARK    1  A    between atoms: C_2  and  C_3 
REMARK    2  A    between atoms: C_3  and  C_4 
REMARK       I    between atoms: C_4  and  N_5 
REMARK    3  A    between atoms: N_8  and  C_9 
REMARK    4  A    between atoms: C_12  and  N_13 
REMARK    5  A    between atoms: N_13  and  C_14 
REMARK    6  A    between atoms: C_14  and  N_15 
REMARK       I    between atoms: N_15  and  C_16 
REMARK    7  A    between atoms: C_16  and  C_17 
REMARK    8  A    between atoms: C_19  and  C_20 
ROOT
HETATM    1  N   UNL     1      23.762  45.202  48.744  1.00  0.00    -0.333 N 
HETATM    2  H   UNL     1      24.213  45.027  47.846  1.00  0.00     0.168 HD
ENDROOT
BRANCH   1   3
HETATM    3  C   UNL     1      22.839  46.266  48.786  1.00  0.00     0.034 A 
HETATM    4  C   UNL     1      21.504  46.102  48.434  1.00  0.00     0.031 A 
HETATM    5  C   UNL     1      20.641  47.199  48.404  1.00  0.00     0.026 A 
HETATM    6  C   UNL     1      21.083  48.497  48.696  1.00  0.00     0.010 A 
HETATM    7  C   UNL     1      22.397  48.622  49.167  1.00  0.00     0.026 A 
HETATM    8  C   UNL     1      23.264  47.517  49.227  1.00  0.00     0.031 A 
BRANCH   6   9
HETATM    9  N   UNL     1      20.201  49.579  48.506  1.00  0.00    -0.280 NA
HETATM   10  C   UNL     1      19.850  50.242  49.790  1.00  0.00     0.115 C 
HETATM   11  C   UNL     1      19.106  51.564  49.547  1.00  0.00     0.140 C 
HETATM   12  N   UNL     1      17.948  51.397  48.664  1.00  0.00    -0.350 N 
HETATM   13  C   UNL     1      16.777  52.133  48.734  1.00  0.00     0.219 C 
HETATM   14  C   UNL     1      18.253  50.686  47.415  1.00  0.00     0.140 C 
HETATM   15  O   UNL     1      15.937  52.106  47.830  1.00  0.00    -0.273 OA
HETATM   16  C   UNL     1      19.010  49.364  47.651  1.00  0.00     0.115 C 
BRANCH  13  17
HETATM   17  C   UNL     1      16.483  52.941  49.987  1.00  0.00     0.103 C 
BRANCH  17  18
HETATM   18  C   UNL     1      15.205  53.770  49.858  1.00  0.00     0.005 C 
HETATM   19  C   UNL     1      14.036  53.246  50.677  1.00  0.00     0.005 C 
ENDBRANCH  17  18
ENDBRANCH  13  17
ENDBRANCH   6   9
ENDBRANCH   1   3
BRANCH   1  20
HETATM   20  C   UNL     1      23.931  44.203  49.674  1.00  0.00     0.179 C 
HETATM   21  S   UNL     1      23.282  42.656  49.682  1.00  0.00    -0.040 SA
BRANCH  20  22
HETATM   22  N   UNL     1      24.756  44.497  50.731  1.00  0.00    -0.298 N 
HETATM   23  C   UNL     1      25.987  45.137  50.786  1.00  0.00     0.281 C 
HETATM   24  O   UNL     1      26.714  45.298  49.809  1.00  0.00    -0.265 OA
HETATM   25  H   UNL     1      24.318  44.346  51.633  1.00  0.00     0.171 HD
BRANCH  23  26
HETATM   26  C   UNL     1      26.314  45.537  52.139  1.00  0.00     0.144 A 
HETATM   27  O   UNL     1      27.415  44.963  52.716  1.00  0.00    -0.304 OA
HETATM   28  C   UNL     1      27.541  45.451  53.982  1.00  0.00     0.086 A 
HETATM   29  C   UNL     1      26.521  46.352  54.220  1.00  0.00     0.041 A 
HETATM   30  C   UNL     1      25.732  46.405  53.038  1.00  0.00     0.046 A 
BRANCH  28  31
HETATM   31  C   UNL     1      28.675  44.930  54.744  1.00  0.00    -0.002 A 
HETATM   32  C   UNL     1      29.166  45.615  55.864  1.00  0.00     0.016 A 
HETATM   33  C   UNL     1      30.259  45.117  56.586  1.00  0.00     0.024 A 
HETATM   34  C   UNL     1      30.868  43.928  56.196  1.00  0.00     0.034 A 
HETATM   35 CL   UNL     1      32.212  43.320  57.081  1.00  0.00    -0.084 Cl
HETATM   36  C   UNL     1      30.395  43.229  55.090  1.00  0.00     0.024 A 
HETATM   37  C   UNL     1      29.305  43.729  54.371  1.00  0.00     0.016 A 
ENDBRANCH  28  31
ENDBRANCH  23  26
ENDBRANCH  20  22
ENDBRANCH   1  20
TORSDOF 8
ENDMDL
MODEL 4
REMARK VINA RESULT:      -9.4      2.252      3.380
REMARK  8 active torsions:
REMARK  status: ('A' for Active; 'I' for Inactive)
REMARK    1  A    between atoms: C_2  and  C_3 
REMARK    2  A    between atoms: C_3  and  C_4 
REMARK       I    between atoms: C_4  and  N_5 
REMARK    3  A    between atoms: N_8  and  C_9 
REMARK    4  A    between atoms: C_12  and  N_13 
REMARK    5  A    between atoms: N_13  and  C_14 
REMARK    6  A    between atoms: C_14  and  N_15 
REMARK       I    between atoms: N_15  and  C_16 
REMARK    7  A    between atoms: C_16  and  C_17 
REMARK    8  A    between atoms: C_19  and  C_20 
ROOT
HETATM    1  N   UNL     1      22.120  48.950  49.472  1.00  0.00    -0.333 N 
HETATM    2  H   UNL     1      22.946  49.476  49.756  1.00  0.00     0.168 HD
ENDROOT
BRANCH   1   3
HETATM    3  C   UNL     1      20.900  49.655  49.466  1.00  0.00     0.034 A 
HETATM    4  C   UNL     1      19.745  49.141  50.045  1.00  0.00     0.031 A 
HETATM    5  C   UNL     1      18.535  49.829  49.941  1.00  0.00     0.026 A 
HETATM    6  C   UNL     1      18.428  51.037  49.237  1.00  0.00     0.010 A 
HETATM    7  C   UNL     1      19.625  51.600  48.769  1.00  0.00     0.026 A 
HETATM    8  C   UNL     1      20.852  50.924  48.895  1.00  0.00     0.031 A 
BRANCH   6   9
HETATM    9  N   UNL     1      17.155  51.607  49.045  1.00  0.00    -0.280 NA
HETATM   10  C   UNL     1      16.886  51.897  47.611  1.00  0.00     0.115 C 
HETATM   11  C   UNL     1      15.412  52.270  47.387  1.00  0.00     0.140 C 
HETATM   12  N   UNL     1      14.971  53.351  48.272  1.00  0.00    -0.350 N 
HETATM   13  C   UNL     1      14.021  54.307  47.954  1.00  0.00     0.219 C 
HETATM   14  C   UNL     1      15.283  53.121  49.690  1.00  0.00     0.140 C 
HETATM   15  O   UNL     1      13.528  55.045  48.812  1.00  0.00    -0.273 OA
HETATM   16  C   UNL     1      16.757  52.735  49.920  1.00  0.00     0.115 C 
BRANCH  13  17
HETATM   17  C   UNL     1      13.625  54.504  46.500  1.00  0.00     0.103 C 
BRANCH  17  18
HETATM   18  C   UNL     1      13.698  55.968  46.070  1.00  0.00     0.005 C 
HETATM   19  C   UNL     1      14.076  56.173  44.612  1.00  0.00     0.005 C 
ENDBRANCH  17  18
ENDBRANCH  13  17
ENDBRANCH   6   9
ENDBRANCH   1   3
BRANCH   1  20
HETATM   20  C   UNL     1      22.388  47.734  48.888  1.00  0.00     0.179 C 
HETATM   21  S   UNL     1      21.791  47.106  47.451  1.00  0.00    -0.040 SA
BRANCH  20  22
HETATM   22  N   UNL     1      23.278  46.928  49.554  1.00  0.00    -0.298 N 
HETATM   23  C   UNL     1      24.436  47.225  50.258  1.00  0.00     0.281 C 
HETATM   24  O   UNL     1      25.045  48.286  50.150  1.00  0.00    -0.265 OA
HETATM   25  H   UNL     1      22.946  45.976  49.666  1.00  0.00     0.171 HD
BRANCH  23  26
HETATM   26  C   UNL     1      24.851  46.110  51.085  1.00  0.00     0.144 A 
HETATM   27  O   UNL     1      25.871  46.330  51.972  1.00  0.00    -0.304 OA
HETATM   28  C   UNL     1      26.122  45.166  52.636  1.00  0.00     0.086 A 
HETATM   29  C   UNL     1      25.253  44.193  52.181  1.00  0.00     0.041 A 
HETATM   30  C   UNL     1      24.438  44.799  51.184  1.00  0.00     0.046 A 
BRANCH  28  31
HETATM   31  C   UNL     1      27.198  45.228  53.624  1.00  0.00    -0.002 A 
HETATM   32  C   UNL     1      28.135  44.192  53.735  1.00  0.00     0.016 A 
HETATM   33  C   UNL     1      29.159  44.251  54.690  1.00  0.00     0.024 A 
HETATM   34  C   UNL     1      29.256  45.349  55.540  1.00  0.00     0.034 A 
HETATM   35 CL   UNL     1      30.511  45.418  56.714  1.00  0.00    -0.084 Cl
HETATM   36  C   UNL     1      28.339  46.391  55.445  1.00  0.00     0.024 A 
HETATM   37  C   UNL     1      27.318  46.328  54.492  1.00  0.00     0.016 A 
ENDBRANCH  28  31
ENDBRANCH  23  26
ENDBRANCH  20  22
ENDBRANCH   1  20
TORSDOF 8
ENDMDL
MODEL 5
REMARK VINA RESULT:      -9.3      1.935      2.755
REMARK  8 active torsions:
REMARK  status: ('A' for Active; 'I' for Inactive)
REMARK    1  A    between atoms: C_2  and  C_3 
REMARK    2  A    between atoms: C_3  and  C_4 
REMARK       I    between atoms: C_4  and  N_5 
REMARK    3  A    between atoms: N_8  and  C_9 
REMARK    4  A    between atoms: C_12  and  N_13 
REMARK    5  A    between atoms: N_13  and  C_14 
REMARK    6  A    between atoms: C_14  and  N_15 
REMARK       I    between atoms: N_15  and  C_16 
REMARK    7  A    between atoms: C_16  and  C_17 
REMARK    8  A    between atoms: C_19  and  C_20 
ROOT
HETATM    1  N   UNL     1      24.559  43.865  48.122  1.00  0.00    -0.333 N 
HETATM    2  H   UNL     1      25.123  43.859  47.272  1.00  0.00     0.168 HD
ENDROOT
BRANCH   1   3
HETATM    3  C   UNL     1      23.361  44.606  48.075  1.00  0.00     0.034 A 
HETATM    4  C   UNL     1      22.205  44.110  47.482  1.00  0.00     0.031 A 
HETATM    5  C   UNL     1      21.066  44.908  47.377  1.00  0.00     0.026 A 
HETATM    6  C   UNL     1      21.045  46.234  47.835  1.00  0.00     0.010 A 
HETATM    7  C   UNL     1      22.176  46.672  48.539  1.00  0.00     0.026 A 
HETATM    8  C   UNL     1      23.318  45.863  48.672  1.00  0.00     0.031 A 
BRANCH   6   9
HETATM    9  N   UNL     1      19.915  47.032  47.569  1.00  0.00    -0.280 NA
HETATM   10  C   UNL     1      20.284  48.449  47.311  1.00  0.00     0.115 C 
HETATM   11  C   UNL     1      19.086  49.245  46.771  1.00  0.00     0.140 C 
HETATM   12  N   UNL     1      17.903  49.118  47.627  1.00  0.00    -0.350 N 
HETATM   13  C   UNL     1      16.944  50.099  47.817  1.00  0.00     0.219 C 
HETATM   14  C   UNL     1      17.554  47.728  47.953  1.00  0.00     0.140 C 
HETATM   15  O   UNL     1      15.863  49.856  48.360  1.00  0.00    -0.273 OA
HETATM   16  C   UNL     1      18.754  46.921  48.483  1.00  0.00     0.115 C 
BRANCH  13  17
HETATM   17  C   UNL     1      17.257  51.530  47.410  1.00  0.00     0.103 C 
BRANCH  17  18
HETATM   18  C   UNL     1      17.858  52.343  48.556  1.00  0.00     0.005 C 
HETATM   19  C   UNL     1      19.375  52.292  48.630  1.00  0.00     0.005 C 
ENDBRANCH  17  18
ENDBRANCH  13  17
ENDBRANCH   6   9
ENDBRANCH   1   3
BRANCH   1  20
HETATM   20  C   UNL     1      24.929  42.931  49.062  1.00  0.00     0.179 C 
HETATM   21  S   UNL     1      24.757  41.263  49.009  1.00  0.00    -0.040 SA
BRANCH  20  22
HETATM   22  N   UNL     1      25.542  43.421  50.188  1.00  0.00    -0.298 N 
HETATM   23  C   UNL     1      26.455  44.453  50.363  1.00  0.00     0.281 C 
HETATM   24  O   UNL     1      27.119  44.935  49.450  1.00  0.00    -0.265 OA
HETATM   25  H   UNL     1      25.146  43.057  51.048  1.00  0.00     0.171 HD
BRANCH  23  26
HETATM   26  C   UNL     1      26.551  44.841  51.755  1.00  0.00     0.144 A 
HETATM   27  O   UNL     1      27.686  44.480  52.432  1.00  0.00    -0.304 OA
HETATM   28  C   UNL     1      27.577  44.917  53.719  1.00  0.00     0.086 A 
HETATM   29  C   UNL     1      26.369  45.572  53.870  1.00  0.00     0.041 A 
HETATM   30  C   UNL     1      25.710  45.521  52.610  1.00  0.00     0.046 A 
BRANCH  28  31
HETATM   31  C   UNL     1      28.712  44.605  54.584  1.00  0.00    -0.002 A 
HETATM   32  C   UNL     1      29.473  43.444  54.385  1.00  0.00     0.016 A 
HETATM   33  C   UNL     1      30.555  43.143  55.223  1.00  0.00     0.024 A 
HETATM   34  C   UNL     1      30.888  44.003  56.266  1.00  0.00     0.034 A 
HETATM   35 CL   UNL     1      32.214  43.631  57.296  1.00  0.00    -0.084 Cl
HETATM   36  C   UNL     1      30.150  45.162  56.480  1.00  0.00     0.024 A 
HETATM   37  C   UNL     1      29.070  45.459  55.643  1.00  0.00     0.016 A 
ENDBRANCH  28  31
ENDBRANCH  23  26
ENDBRANCH  20  22
ENDBRANCH   1  20
TORSDOF 8
ENDMDL
MODEL 6
REMARK VINA RESULT:      -9.1      5.559     13.090
REMARK  8 active torsions:
REMARK  status: ('A' for Active; 'I' for Inactive)
REMARK    1  A    between atoms: C_2  and  C_3 
REMARK    2  A    between atoms: C_3  and  C_4 
REMARK       I    between atoms: C_4  and  N_5 
REMARK    3  A    between atoms: N_8  and  C_9 
REMARK    4  A    between atoms: C_12  and  N_13 
REMARK    5  A    between atoms: N_13  and  C_14 
REMARK    6  A    between atoms: C_14  and  N_15 
REMARK       I    between atoms: N_15  and  C_16 
REMARK    7  A    between atoms: C_16  and  C_17 
REMARK    8  A    between atoms: C_19  and  C_20 
ROOT
HETATM    1  N   UNL     1      17.382  52.497  47.342  1.00  0.00    -0.333 N 
HETATM    2  H   UNL     1      17.474  53.512  47.318  1.00  0.00     0.168 HD
ENDROOT
BRANCH   1   3
HETATM    3  C   UNL     1      18.560  51.767  47.600  1.00  0.00     0.034 A 
HETATM    4  C   UNL     1      19.536  52.223  48.480  1.00  0.00     0.031 A 
HETATM    5  C   UNL     1      20.728  51.516  48.642  1.00  0.00     0.026 A 
HETATM    6  C   UNL     1      20.999  50.346  47.917  1.00  0.00     0.010 A 
HETATM    7  C   UNL     1      19.955  49.837  47.132  1.00  0.00     0.026 A 
HETATM    8  C   UNL     1      18.741  50.531  46.986  1.00  0.00     0.031 A 
BRANCH   6   9
HETATM    9  N   UNL     1      22.276  49.760  48.017  1.00  0.00    -0.280 NA
HETATM   10  C   UNL     1      22.318  48.694  49.054  1.00  0.00     0.115 C 
HETATM   11  C   UNL     1      23.628  47.893  48.973  1.00  0.00     0.140 C 
HETATM   12  N   UNL     1      24.811  48.757  49.005  1.00  0.00    -0.350 N 
HETATM   13  C   UNL     1      26.034  48.418  49.559  1.00  0.00     0.219 C 
HETATM   14  C   UNL     1      24.766  49.860  48.034  1.00  0.00     0.140 C 
HETATM   15  O   UNL     1      27.050  49.089  49.354  1.00  0.00    -0.273 OA
HETATM   16  C   UNL     1      23.450  50.660  48.101  1.00  0.00     0.115 C 
BRANCH  13  17
HETATM   17  C   UNL     1      26.116  47.229  50.503  1.00  0.00     0.103 C 
BRANCH  17  18
HETATM   18  C   UNL     1      26.776  46.014  49.851  1.00  0.00     0.005 C 
HETATM   19  C   UNL     1      25.804  44.918  49.447  1.00  0.00     0.005 C 
ENDBRANCH  17  18
ENDBRANCH  13  17
ENDBRANCH   6   9
ENDBRANCH   1   3
BRANCH   1  20
HETATM   20  C   UNL     1      16.086  52.039  47.389  1.00  0.00     0.179 C 
HETATM   21  S   UNL     1      15.343  50.890  46.418  1.00  0.00    -0.040 SA
BRANCH  20  22
HETATM   22  N   UNL     1      15.293  52.573  48.374  1.00  0.00    -0.298 N 
HETATM   23  C   UNL     1      15.551  52.854  49.710  1.00  0.00     0.281 C 
HETATM   24  O   UNL     1      16.492  52.374  50.336  1.00  0.00    -0.265 OA
HETATM   25  H   UNL     1      14.424  52.958  48.021  1.00  0.00     0.171 HD
BRANCH  23  26
HETATM   26  C   UNL     1      14.544  53.733  50.267  1.00  0.00     0.144 A 
HETATM   27  O   UNL     1      14.939  54.595  51.256  1.00  0.00    -0.304 OA
HETATM   28  C   UNL     1      13.854  55.315  51.657  1.00  0.00     0.086 A 
HETATM   29  C   UNL     1      12.755  54.923  50.917  1.00  0.00     0.041 A 
HETATM   30  C   UNL     1      13.198  53.906  50.027  1.00  0.00     0.046 A 
BRANCH  28  31
HETATM   31  C   UNL     1      14.106  56.286  52.721  1.00  0.00    -0.002 A 
HETATM   32  C   UNL     1      15.253  57.090  52.706  1.00  0.00     0.016 A 
HETATM   33  C   UNL     1      15.496  58.012  53.732  1.00  0.00     0.024 A 
HETATM   34  C   UNL     1      14.591  58.140  54.782  1.00  0.00     0.034 A 
HETATM   35 CL   UNL     1      14.892  59.270  56.044  1.00  0.00    -0.084 Cl
HETATM   36  C   UNL     1      13.443  57.355  54.816  1.00  0.00     0.024 A 
HETATM   37  C   UNL     1      13.204  56.435  53.791  1.00  0.00     0.016 A 
ENDBRANCH  28  31
ENDBRANCH  23  26
ENDBRANCH  20  22
ENDBRANCH   1  20
TORSDOF 8
ENDMDL
MODEL 7
REMARK VINA RESULT:      -9.0      2.368      3.348
REMARK  8 active torsions:
REMARK  status: ('A' for Active; 'I' for Inactive)
REMARK    1  A    between atoms: C_2  and  C_3 
REMARK    2  A    between atoms: C_3  and  C_4 
REMARK       I    between atoms: C_4  and  N_5 
REMARK    3  A    between atoms: N_8  and  C_9 
REMARK    4  A    between atoms: C_12  and  N_13 
REMARK    5  A    between atoms: N_13  and  C_14 
REMARK    6  A    between atoms: C_14  and  N_15 
REMARK       I    between atoms: N_15  and  C_16 
REMARK    7  A    between atoms: C_16  and  C_17 
REMARK    8  A    between atoms: C_19  and  C_20 
ROOT
HETATM    1  N   UNL     1      24.930  44.245  48.569  1.00  0.00    -0.333 N 
HETATM    2  H   UNL     1      25.643  44.456  47.871  1.00  0.00     0.168 HD
ENDROOT
BRANCH   1   3
HETATM    3  C   UNL     1      23.844  45.139  48.648  1.00  0.00     0.034 A 
HETATM    4  C   UNL     1      22.565  44.790  48.227  1.00  0.00     0.031 A 
HETATM    5  C   UNL     1      21.535  45.732  48.238  1.00  0.00     0.026 A 
HETATM    6  C   UNL     1      21.748  47.057  48.643  1.00  0.00     0.010 A 
HETATM    7  C   UNL     1      23.009  47.355  49.180  1.00  0.00     0.026 A 
HETATM    8  C   UNL     1      24.044  46.403  49.197  1.00  0.00     0.031 A 
BRANCH   6   9
HETATM    9  N   UNL     1      20.707  47.994  48.494  1.00  0.00    -0.280 NA
HETATM   10  C   UNL     1      20.160  48.001  47.110  1.00  0.00     0.115 C 
HETATM   11  C   UNL     1      18.868  48.828  47.029  1.00  0.00     0.140 C 
HETATM   12  N   UNL     1      19.034  50.178  47.576  1.00  0.00    -0.350 N 
HETATM   13  C   UNL     1      18.373  51.309  47.130  1.00  0.00     0.219 C 
HETATM   14  C   UNL     1      19.634  50.203  48.917  1.00  0.00     0.140 C 
HETATM   15  O   UNL     1      18.380  52.363  47.772  1.00  0.00    -0.273 OA
HETATM   16  C   UNL     1      20.925  49.366  49.009  1.00  0.00     0.115 C 
BRANCH  13  17
HETATM   17  C   UNL     1      17.676  51.275  45.779  1.00  0.00     0.103 C 
BRANCH  17  18
HETATM   18  C   UNL     1      16.645  52.394  45.629  1.00  0.00     0.005 C 
HETATM   19  C   UNL     1      16.934  53.361  44.492  1.00  0.00     0.005 C 
ENDBRANCH  17  18
ENDBRANCH  13  17
ENDBRANCH   6   9
ENDBRANCH   1   3
BRANCH   1  20
HETATM   20  C   UNL     1      25.019  42.985  49.116  1.00  0.00     0.179 C 
HETATM   21  S   UNL     1      23.980  41.682  48.925  1.00  0.00    -0.040 SA
BRANCH  20  22
HETATM   22  N   UNL     1      26.114  42.749  49.910  1.00  0.00    -0.298 N 
HETATM   23  C   UNL     1      27.142  43.582  50.329  1.00  0.00     0.281 C 
HETATM   24  O   UNL     1      27.411  44.654  49.793  1.00  0.00    -0.265 OA
HETATM   25  H   UNL     1      26.078  41.851  50.380  1.00  0.00     0.171 HD
BRANCH  23  26
HETATM   26  C   UNL     1      27.876  43.000  51.434  1.00  0.00     0.144 A 
HETATM   27  O   UNL     1      28.216  43.829  52.470  1.00  0.00    -0.304 OA
HETATM   28  C   UNL     1      28.910  43.104  53.392  1.00  0.00     0.086 A 
HETATM   29  C   UNL     1      29.009  41.797  52.953  1.00  0.00     0.041 A 
HETATM   30  C   UNL     1      28.347  41.731  51.696  1.00  0.00     0.046 A 
BRANCH  28  31
HETATM   31  C   UNL     1      29.356  43.849  54.568  1.00  0.00    -0.002 A 
HETATM   32  C   UNL     1      28.653  44.974  55.017  1.00  0.00     0.016 A 
HETATM   33  C   UNL     1      29.089  45.692  56.139  1.00  0.00     0.024 A 
HETATM   34  C   UNL     1      30.232  45.287  56.823  1.00  0.00     0.034 A 
HETATM   35 CL   UNL     1      30.769  46.170  58.197  1.00  0.00    -0.084 Cl
HETATM   36  C   UNL     1      30.944  44.171  56.397  1.00  0.00     0.024 A 
HETATM   37  C   UNL     1      30.507  43.458  55.276  1.00  0.00     0.016 A 
ENDBRANCH  28  31
ENDBRANCH  23  26
ENDBRANCH  20  22
ENDBRANCH   1  20
TORSDOF 8
ENDMDL
MODEL 8
REMARK VINA RESULT:      -8.9      4.415     12.111
REMARK  8 active torsions:
REMARK  status: ('A' for Active; 'I' for Inactive)
REMARK    1  A    between atoms: C_2  and  C_3 
REMARK    2  A    between atoms: C_3  and  C_4 
REMARK       I    between atoms: C_4  and  N_5 
REMARK    3  A    between atoms: N_8  and  C_9 
REMARK    4  A    between atoms: C_12  and  N_13 
REMARK    5  A    between atoms: N_13  and  C_14 
REMARK    6  A    between atoms: C_14  and  N_15 
REMARK       I    between atoms: N_15  and  C_16 
REMARK    7  A    between atoms: C_16  and  C_17 
REMARK    8  A    between atoms: C_19  and  C_20 
ROOT
HETATM    1  N   UNL     1      22.137  45.067  48.264  1.00  0.00    -0.333 N 
HETATM    2  H   UNL     1      22.410  44.883  47.299  1.00  0.00     0.168 HD
ENDROOT
BRANCH   1   3
HETATM    3  C   UNL     1      23.125  44.859  49.246  1.00  0.00     0.034 A 
HETATM    4  C   UNL     1      23.188  43.692  49.999  1.00  0.00     0.031 A 
HETATM    5  C   UNL     1      24.128  43.561  51.023  1.00  0.00     0.026 A 
HETATM    6  C   UNL     1      25.017  44.595  51.349  1.00  0.00     0.010 A 
HETATM    7  C   UNL     1      25.022  45.711  50.500  1.00  0.00     0.026 A 
HETATM    8  C   UNL     1      24.096  45.838  49.449  1.00  0.00     0.031 A 
BRANCH   6   9
HETATM    9  N   UNL     1      25.840  44.457  52.484  1.00  0.00    -0.280 NA
HETATM   10  C   UNL     1      26.269  45.775  53.023  1.00  0.00     0.115 C 
HETATM   11  C   UNL     1      26.941  45.621  54.396  1.00  0.00     0.140 C 
HETATM   12  N   UNL     1      28.029  44.639  54.376  1.00  0.00    -0.350 N 
HETATM   13  C   UNL     1      29.174  44.698  55.153  1.00  0.00     0.219 C 
HETATM   14  C   UNL     1      27.651  43.347  53.788  1.00  0.00     0.140 C 
HETATM   15  O   UNL     1      29.938  43.735  55.261  1.00  0.00    -0.273 OA
HETATM   16  C   UNL     1      26.965  43.495  52.415  1.00  0.00     0.115 C 
BRANCH  13  17
HETATM   17  C   UNL     1      29.538  46.006  55.838  1.00  0.00     0.103 C 
BRANCH  17  18
HETATM   18  C   UNL     1      29.219  45.989  57.332  1.00  0.00     0.005 C 
HETATM   19  C   UNL     1      30.415  45.687  58.222  1.00  0.00     0.005 C 
ENDBRANCH  17  18
ENDBRANCH  13  17
ENDBRANCH   6   9
ENDBRANCH   1   3
BRANCH   1  20
HETATM   20  C   UNL     1      20.946  45.742  48.403  1.00  0.00     0.179 C 
HETATM   21  S   UNL     1      19.385  45.179  48.158  1.00  0.00    -0.040 SA
BRANCH  20  22
HETATM   22  N   UNL     1      21.039  47.047  48.820  1.00  0.00    -0.298 N 
HETATM   23  C   UNL     1      21.601  48.165  48.220  1.00  0.00     0.281 C 
HETATM   24  O   UNL     1      22.408  48.108  47.295  1.00  0.00    -0.265 OA
HETATM   25  H   UNL     1      20.471  47.245  49.637  1.00  0.00     0.171 HD
BRANCH  23  26
HETATM   26  C   UNL     1      21.153  49.387  48.857  1.00  0.00     0.144 A 
HETATM   27  O   UNL     1      19.900  49.839  48.539  1.00  0.00    -0.304 OA
HETATM   28  C   UNL     1      19.675  50.998  49.220  1.00  0.00     0.086 A 
HETATM   29  C   UNL     1      20.786  51.290  49.989  1.00  0.00     0.041 A 
HETATM   30  C   UNL     1      21.735  50.257  49.754  1.00  0.00     0.046 A 
BRANCH  28  31
HETATM   31  C   UNL     1      18.373  51.619  48.986  1.00  0.00    -0.002 A 
HETATM   32  C   UNL     1      17.774  52.427  49.962  1.00  0.00     0.016 A 
HETATM   33  C   UNL     1      16.521  53.013  49.738  1.00  0.00     0.024 A 
HETATM   34  C   UNL     1      15.857  52.798  48.533  1.00  0.00     0.034 A 
HETATM   35 CL   UNL     1      14.318  53.515  48.260  1.00  0.00    -0.084 Cl
HETATM   36  C   UNL     1      16.434  52.003  47.549  1.00  0.00     0.024 A 
HETATM   37  C   UNL     1      17.684  51.419  47.776  1.00  0.00     0.016 A 
ENDBRANCH  28  31
ENDBRANCH  23  26
ENDBRANCH  20  22
ENDBRANCH   1  20
TORSDOF 8
ENDMDL
MODEL 9
REMARK VINA RESULT:      -8.9      2.999      5.248
REMARK  8 active torsions:
REMARK  status: ('A' for Active; 'I' for Inactive)
REMARK    1  A    between atoms: C_2  and  C_3 
REMARK    2  A    between atoms: C_3  and  C_4 
REMARK       I    between atoms: C_4  and  N_5 
REMARK    3  A    between atoms: N_8  and  C_9 
REMARK    4  A    between atoms: C_12  and  N_13 
REMARK    5  A    between atoms: N_13  and  C_14 
REMARK    6  A    between atoms: C_14  and  N_15 
REMARK       I    between atoms: N_15  and  C_16 
REMARK    7  A    between atoms: C_16  and  C_17 
REMARK    8  A    between atoms: C_19  and  C_20 
ROOT
HETATM    1  N   UNL     1      20.881  50.520  48.414  1.00  0.00    -0.333 N 
HETATM    2  H   UNL     1      21.602  51.055  47.932  1.00  0.00     0.168 HD
ENDROOT
BRANCH   1   3
HETATM    3  C   UNL     1      19.628  51.147  48.562  1.00  0.00     0.034 A 
HETATM    4  C   UNL     1      19.246  51.772  49.744  1.00  0.00     0.031 A 
HETATM    5  C   UNL     1      17.964  52.304  49.880  1.00  0.00     0.026 A 
HETATM    6  C   UNL     1      17.010  52.210  48.857  1.00  0.00     0.010 A 
HETATM    7  C   UNL     1      17.452  51.689  47.632  1.00  0.00     0.026 A 
HETATM    8  C   UNL     1      18.752  51.176  47.479  1.00  0.00     0.031 A 
BRANCH   6   9
HETATM    9  N   UNL     1      15.691  52.637  49.109  1.00  0.00    -0.280 NA
HETATM   10  C   UNL     1      15.253  53.686  48.151  1.00  0.00     0.115 C 
HETATM   11  C   UNL     1      13.745  53.952  48.269  1.00  0.00     0.140 C 
HETATM   12  N   UNL     1      13.337  54.242  49.647  1.00  0.00    -0.350 N 
HETATM   13  C   UNL     1      12.304  55.087  50.014  1.00  0.00     0.219 C 
HETATM   14  C   UNL     1      13.813  53.254  50.626  1.00  0.00     0.140 C 
HETATM   15  O   UNL     1      11.863  55.113  51.167  1.00  0.00    -0.273 OA
HETATM   16  C   UNL     1      15.323  52.974  50.504  1.00  0.00     0.115 C 
BRANCH  13  17
HETATM   17  C   UNL     1      11.743  56.061  48.990  1.00  0.00     0.103 C 
BRANCH  17  18
HETATM   18  C   UNL     1      12.130  57.508  49.291  1.00  0.00     0.005 C 
HETATM   19  C   UNL     1      13.613  57.802  49.140  1.00  0.00     0.005 C 
ENDBRANCH  17  18
ENDBRANCH  13  17
ENDBRANCH   6   9
ENDBRANCH   1   3
BRANCH   1  20
HETATM   20  C   UNL     1      21.176  49.188  48.589  1.00  0.00     0.179 C 
HETATM   21  S   UNL     1      20.126  47.881  48.668  1.00  0.00    -0.040 SA
BRANCH  20  22
HETATM   22  N   UNL     1      22.509  48.874  48.694  1.00  0.00    -0.298 N 
HETATM   23  C   UNL     1      23.643  49.507  48.202  1.00  0.00     0.281 C 
HETATM   24  O   UNL     1      23.619  50.338  47.298  1.00  0.00    -0.265 OA
HETATM   25  H   UNL     1      22.694  48.138  49.366  1.00  0.00     0.171 HD
BRANCH  23  26
HETATM   26  C   UNL     1      24.842  49.023  48.854  1.00  0.00     0.144 A 
HETATM   27  O   UNL     1      24.685  48.103  49.857  1.00  0.00    -0.304 OA
HETATM   28  C   UNL     1      25.916  47.790  50.351  1.00  0.00     0.086 A 
HETATM   29  C   UNL     1      26.873  48.505  49.655  1.00  0.00     0.041 A 
HETATM   30  C   UNL     1      26.183  49.297  48.697  1.00  0.00     0.046 A 
BRANCH  28  31
HETATM   31  C   UNL     1      25.925  46.818  51.442  1.00  0.00    -0.002 A 
HETATM   32  C   UNL     1      26.140  47.222  52.766  1.00  0.00     0.016 A 
HETATM   33  C   UNL     1      26.158  46.286  53.808  1.00  0.00     0.024 A 
HETATM   34  C   UNL     1      25.955  44.936  53.534  1.00  0.00     0.034 A 
HETATM   35 CL   UNL     1      25.980  43.787  54.814  1.00  0.00    -0.084 Cl
HETATM   36  C   UNL     1      25.736  44.512  52.228  1.00  0.00     0.024 A 
HETATM   37  C   UNL     1      25.720  45.449  51.190  1.00  0.00     0.016 A 
ENDBRANCH  28  31
ENDBRANCH  23  26
ENDBRANCH  20  22
ENDBRANCH   1  20
TORSDOF 8
ENDMDL
MODEL 10
REMARK VINA RESULT:      -8.7      2.361      3.156
REMARK  8 active torsions:
REMARK  status: ('A' for Active; 'I' for Inactive)
REMARK    1  A    between atoms: C_2  and  C_3 
REMARK    2  A    between atoms: C_3  and  C_4 
REMARK       I    between atoms: C_4  and  N_5 
REMARK    3  A    between atoms: N_8  and  C_9 
REMARK    4  A    between atoms: C_12  and  N_13 
REMARK    5  A    between atoms: N_13  and  C_14 
REMARK    6  A    between atoms: C_14  and  N_15 
REMARK       I    between atoms: N_15  and  C_16 
REMARK    7  A    between atoms: C_16  and  C_17 
REMARK    8  A    between atoms: C_19  and  C_20 
ROOT
HETATM    1  N   UNL     1      23.007  47.536  49.565  1.00  0.00    -0.333 N 
HETATM    2  H   UNL     1      22.745  46.870  50.292  1.00  0.00     0.168 HD
ENDROOT
BRANCH   1   3
HETATM    3  C   UNL     1      21.950  48.209  48.921  1.00  0.00     0.034 A 
HETATM    4  C   UNL     1      21.502  49.457  49.339  1.00  0.00     0.031 A 
HETATM    5  C   UNL     1      20.395  50.052  48.732  1.00  0.00     0.026 A 
HETATM    6  C   UNL     1      19.682  49.415  47.706  1.00  0.00     0.010 A 
HETATM    7  C   UNL     1      20.223  48.218  47.215  1.00  0.00     0.026 A 
HETATM    8  C   UNL     1      21.353  47.626  47.805  1.00  0.00     0.031 A 
BRANCH   6   9
HETATM    9  N   UNL     1      18.491  50.001  47.235  1.00  0.00    -0.280 NA
HETATM   10  C   UNL     1      18.698  50.726  45.953  1.00  0.00     0.115 C 
HETATM   11  C   UNL     1      17.356  51.133  45.323  1.00  0.00     0.140 C 
HETATM   12  N   UNL     1      16.504  51.873  46.258  1.00  0.00    -0.350 N 
HETATM   13  C   UNL     1      15.609  52.869  45.906  1.00  0.00     0.219 C 
HETATM   14  C   UNL     1      16.336  51.210  47.558  1.00  0.00     0.140 C 
HETATM   15  O   UNL     1      14.762  53.292  46.698  1.00  0.00    -0.273 OA
HETATM   16  C   UNL     1      17.677  50.788  48.190  1.00  0.00     0.115 C 
BRANCH  13  17
HETATM   17  C   UNL     1      15.716  53.511  44.532  1.00  0.00     0.103 C 
BRANCH  17  18
HETATM   18  C   UNL     1      14.602  53.055  43.590  1.00  0.00     0.005 C 
HETATM   19  C   UNL     1      15.069  52.144  42.466  1.00  0.00     0.005 C 
ENDBRANCH  17  18
ENDBRANCH  13  17
ENDBRANCH   6   9
ENDBRANCH   1   3
BRANCH   1  20
HETATM   20  C   UNL     1      24.344  47.855  49.535  1.00  0.00     0.179 C 
HETATM   21  S   UNL     1      25.095  49.165  48.803  1.00  0.00    -0.040 SA
BRANCH  20  22
HETATM   22  N   UNL     1      25.183  47.003  50.210  1.00  0.00    -0.298 N 
HETATM   23  C   UNL     1      25.414  46.825  51.568  1.00  0.00     0.281 C 
HETATM   24  O   UNL     1      25.101  47.649  52.424  1.00  0.00    -0.265 OA
HETATM   25  H   UNL     1      25.588  46.289  49.615  1.00  0.00     0.171 HD
BRANCH  23  26
HETATM   26  C   UNL     1      26.110  45.581  51.826  1.00  0.00     0.144 A 
HETATM   27  O   UNL     1      27.061  45.585  52.811  1.00  0.00    -0.304 OA
HETATM   28  C   UNL     1      27.607  44.339  52.887  1.00  0.00     0.086 A 
HETATM   29  C   UNL     1      26.998  43.524  51.951  1.00  0.00     0.041 A 
HETATM   30  C   UNL     1      26.039  44.323  51.269  1.00  0.00     0.046 A 
BRANCH  28  31
HETATM   31  C   UNL     1      28.653  44.174  53.895  1.00  0.00    -0.002 A 
HETATM   32  C   UNL     1      28.809  45.106  54.930  1.00  0.00     0.016 A 
HETATM   33  C   UNL     1      29.819  44.949  55.888  1.00  0.00     0.024 A 
HETATM   34  C   UNL     1      30.680  43.857  55.822  1.00  0.00     0.034 A 
HETATM   35 CL   UNL     1      31.921  43.668  56.997  1.00  0.00    -0.084 Cl
HETATM   36  C   UNL     1      30.540  42.917  54.806  1.00  0.00     0.024 A 
HETATM   37  C   UNL     1      29.532  43.077  53.850  1.00  0.00     0.016 A 
ENDBRANCH  28  31
ENDBRANCH  23  26
ENDBRANCH  20  22
ENDBRANCH   1  20
TORSDOF 8
ENDMDL
