MODEL 1
REMARK VINA RESULT:     -10.4      0.000      0.000
REMARK  8 active torsions:
REMARK  status: ('A' for Active; 'I' for Inactive)
REMARK    1  A    between atoms: C_5  and  C_6 
REMARK       I    between atoms: C_6  and  N_7 
REMARK    2  A    between atoms: N_7  and  N_8 
REMARK       I    between atoms: N_8  and  C_9 
REMARK    3  A    between atoms: C_9  and  C_10 
REMARK    4  A    between atoms: C_10  and  S_11 
REMARK    5  A    between atoms: S_11  and  C_12 
REMARK    6  A    between atoms: N_13  and  C_14 
REMARK    7  A    between atoms: C_21  and  C_22 
REMARK    8  A    between atoms: C_22  and  N_23 
ROOT
HETATM    1  C   UNL     1      25.723  46.611  51.312  1.00  0.00     0.196 A 
HETATM    2  N   UNL     1      25.990  45.478  52.058  1.00  0.00    -0.274 N 
HETATM    3  C   UNL     1      25.965  45.933  53.378  1.00  0.00     0.166 A 
HETATM    4  N   UNL     1      25.611  47.204  53.388  1.00  0.00    -0.131 NA
HETATM    5  N   UNL     1      25.469  47.627  52.102  1.00  0.00    -0.122 NA
ENDROOT
BRANCH   1   6
HETATM    6  S   UNL     1      25.567  46.675  49.589  1.00  0.00    -0.080 SA
BRANCH   6   7
HETATM    7  C   UNL     1      25.773  48.458  49.322  1.00  0.00     0.187 C 
BRANCH   7   8
HETATM    8  C   UNL     1      24.470  49.052  48.817  1.00  0.00     0.245 C 
HETATM    9  N   UNL     1      23.410  48.863  49.678  1.00  0.00    -0.267 N 
HETATM   10  H   UNL     1      23.467  48.348  50.559  1.00  0.00     0.190 HD
HETATM   11  O   UNL     1      24.372  49.660  47.748  1.00  0.00    -0.271 OA
BRANCH   9  12
HETATM   12  N   UNL     1      22.126  49.292  49.325  1.00  0.00    -0.263 N 
HETATM   13  C   UNL     1      21.711  50.497  49.867  1.00  0.00     0.270 C 
HETATM   14  O   UNL     1      22.472  51.170  50.563  1.00  0.00    -0.266 OA
HETATM   15  H   UNL     1      21.529  48.625  48.848  1.00  0.00     0.190 HD
BRANCH  13  16
HETATM   16  C   UNL     1      20.313  50.947  49.607  1.00  0.00     0.033 A 
HETATM   17  C   UNL     1      19.200  50.438  50.285  1.00  0.00     0.017 A 
HETATM   18  C   UNL     1      17.916  50.911  49.985  1.00  0.00     0.007 A 
HETATM   19  C   UNL     1      17.727  51.895  49.008  1.00  0.00    -0.062 A 
HETATM   20  C   UNL     1      16.352  52.386  48.661  1.00  0.00     0.048 C 
HETATM   21  C   UNL     1      18.838  52.388  48.317  1.00  0.00     0.007 A 
HETATM   22  C   UNL     1      20.120  51.921  48.616  1.00  0.00     0.017 A 
ENDBRANCH  13  16
ENDBRANCH   9  12
ENDBRANCH   7   8
ENDBRANCH   6   7
ENDBRANCH   1   6
BRANCH   2  23
HETATM   23  C   UNL     1      26.263  44.163  51.608  1.00  0.00     0.043 A 
HETATM   24  C   UNL     1      27.588  43.732  51.453  1.00  0.00     0.033 A 
HETATM   25  C   UNL     1      27.848  42.424  51.036  1.00  0.00     0.044 A 
HETATM   26  C   UNL     1      26.791  41.563  50.771  1.00  0.00     0.116 A 
HETATM   27  F   UNL     1      27.042  40.310  50.374  1.00  0.00    -0.206 F 
HETATM   28  C   UNL     1      25.472  41.985  50.910  1.00  0.00     0.044 A 
HETATM   29  C   UNL     1      25.201  43.289  51.329  1.00  0.00     0.033 A 
ENDBRANCH   2  23
BRANCH   3  30
HETATM   30  C   UNL     1      26.401  45.165  54.594  1.00  0.00     0.255 C 
HETATM   31  C   UNL     1      25.741  43.783  54.681  1.00  0.00     0.049 C 
BRANCH  30  32
HETATM   32  N   UNL     1      27.937  44.963  54.730  1.00  0.00    -0.060 N 
HETATM   33  H   UNL     1      28.341  45.396  53.891  1.00  0.00     0.280 HD
HETATM   34  C   UNL     1      28.582  45.654  55.921  1.00  0.00     0.236 C 
HETATM   35  C   UNL     1      30.097  45.563  55.785  1.00  0.00     0.028 C 
HETATM   36  C   UNL     1      30.565  44.117  55.669  1.00  0.00     0.003 C 
HETATM   37  C   UNL     1      29.841  43.390  54.541  1.00  0.00     0.028 C 
HETATM   38  C   UNL     1      28.327  43.498  54.680  1.00  0.00     0.236 C 
ENDBRANCH  30  32
ENDBRANCH   3  30
TORSDOF 8
ENDMDL
MODEL 2
REMARK VINA RESULT:     -10.3      2.838      3.914
REMARK  8 active torsions:
REMARK  status: ('A' for Active; 'I' for Inactive)
REMARK    1  A    between atoms: C_5  and  C_6 
REMARK       I    between atoms: C_6  and  N_7 
REMARK    2  A    between atoms: N_7  and  N_8 
REMARK       I    between atoms: N_8  and  C_9 
REMARK    3  A    between atoms: C_9  and  C_10 
REMARK    4  A    between atoms: C_10  and  S_11 
REMARK    5  A    between atoms: S_11  and  C_12 
REMARK    6  A    between atoms: N_13  and  C_14 
REMARK    7  A    between atoms: C_21  and  C_22 
REMARK    8  A    between atoms: C_22  and  N_23 
ROOT
HETATM    1  C   UNL     1      24.230  44.374  50.063  1.00  0.00     0.196 A 
HETATM    2  N   UNL     1      25.271  45.068  50.653  1.00  0.00    -0.274 N 
HETATM    3  C   UNL     1      25.454  44.420  51.876  1.00  0.00     0.166 A 
HETATM    4  N   UNL     1      24.649  43.377  51.935  1.00  0.00    -0.131 NA
HETATM    5  N   UNL     1      23.882  43.354  50.810  1.00  0.00    -0.122 NA
ENDROOT
BRANCH   1   6
HETATM    6  S   UNL     1      23.576  44.677  48.489  1.00  0.00    -0.080 SA
BRANCH   6   7
HETATM    7  C   UNL     1      21.939  43.917  48.680  1.00  0.00     0.187 C 
BRANCH   7   8
HETATM    8  C   UNL     1      20.864  44.984  48.567  1.00  0.00     0.245 C 
HETATM    9  N   UNL     1      21.312  46.249  48.883  1.00  0.00    -0.267 N 
HETATM   10  H   UNL     1      22.261  46.464  49.196  1.00  0.00     0.190 HD
HETATM   11  O   UNL     1      19.708  44.745  48.212  1.00  0.00    -0.271 OA
BRANCH   9  12
HETATM   12  N   UNL     1      20.425  47.331  48.894  1.00  0.00    -0.263 N 
HETATM   13  C   UNL     1      20.988  48.585  49.063  1.00  0.00     0.270 C 
HETATM   14  O   UNL     1      22.210  48.723  49.129  1.00  0.00    -0.266 OA
HETATM   15  H   UNL     1      19.435  47.118  48.953  1.00  0.00     0.190 HD
BRANCH  13  16
HETATM   16  C   UNL     1      20.078  49.760  49.187  1.00  0.00     0.033 A 
HETATM   17  C   UNL     1      20.359  51.016  48.637  1.00  0.00     0.017 A 
HETATM   18  C   UNL     1      19.454  52.072  48.797  1.00  0.00     0.007 A 
HETATM   19  C   UNL     1      18.260  51.891  49.505  1.00  0.00    -0.062 A 
HETATM   20  C   UNL     1      17.300  53.026  49.704  1.00  0.00     0.048 C 
HETATM   21  C   UNL     1      17.990  50.641  50.071  1.00  0.00     0.007 A 
HETATM   22  C   UNL     1      18.889  49.584  49.911  1.00  0.00     0.017 A 
ENDBRANCH  13  16
ENDBRANCH   9  12
ENDBRANCH   7   8
ENDBRANCH   6   7
ENDBRANCH   1   6
BRANCH   2  23
HETATM   23  C   UNL     1      25.977  46.194  50.163  1.00  0.00     0.043 A 
HETATM   24  C   UNL     1      27.271  46.043  49.644  1.00  0.00     0.033 A 
HETATM   25  C   UNL     1      27.949  47.155  49.137  1.00  0.00     0.044 A 
HETATM   26  C   UNL     1      27.338  48.402  49.159  1.00  0.00     0.116 A 
HETATM   27  F   UNL     1      27.989  49.465  48.671  1.00  0.00    -0.206 F 
HETATM   28  C   UNL     1      26.060  48.565  49.684  1.00  0.00     0.044 A 
HETATM   29  C   UNL     1      25.373  47.460  50.190  1.00  0.00     0.033 A 
ENDBRANCH   2  23
BRANCH   3  30
HETATM   30  C   UNL     1      26.315  44.892  53.014  1.00  0.00     0.255 C 
HETATM   31  C   UNL     1      25.521  45.071  54.314  1.00  0.00     0.049 C 
BRANCH  30  32
HETATM   32  N   UNL     1      27.541  43.989  53.331  1.00  0.00    -0.060 N 
HETATM   33  H   UNL     1      27.159  43.190  53.851  1.00  0.00     0.280 HD
HETATM   34  C   UNL     1      28.254  43.410  52.120  1.00  0.00     0.236 C 
HETATM   35  C   UNL     1      29.267  42.372  52.592  1.00  0.00     0.028 C 
HETATM   36  C   UNL     1      30.261  42.968  53.582  1.00  0.00     0.003 C 
HETATM   37  C   UNL     1      29.544  43.644  54.746  1.00  0.00     0.028 C 
HETATM   38  C   UNL     1      28.525  44.669  54.263  1.00  0.00     0.236 C 
ENDBRANCH  30  32
ENDBRANCH   3  30
TORSDOF 8
ENDMDL
MODEL 3
REMARK VINA RESULT:     -10.0      3.994     11.568
REMARK  8 active torsions:
REMARK  status: ('A' for Active; 'I' for Inactive)
REMARK    1  A    between atoms: C_5  and  C_6 
REMARK       I    between atoms: C_6  and  N_7 
REMARK    2  A    between atoms: N_7  and  N_8 
REMARK       I    between atoms: N_8  and  C_9 
REMARK    3  A    between atoms: C_9  and  C_10 
REMARK    4  A    between atoms: C_10  and  S_11 
REMARK    5  A    between atoms: S_11  and  C_12 
REMARK    6  A    between atoms: N_13  and  C_14 
REMARK    7  A    between atoms: C_21  and  C_22 
REMARK    8  A    between atoms: C_22  and  N_23 
ROOT
HETATM    1  C   UNL     1      22.153  47.565  47.975  1.00  0.00     0.196 A 
HETATM    2  N   UNL     1      20.925  48.161  47.756  1.00  0.00    -0.274 N 
HETATM    3  C   UNL     1      20.376  47.420  46.706  1.00  0.00     0.166 A 
HETATM    4  N   UNL     1      21.185  46.418  46.419  1.00  0.00    -0.131 NA
HETATM    5  N   UNL     1      22.293  46.514  47.204  1.00  0.00    -0.122 NA
ENDROOT
BRANCH   1   6
HETATM    6  S   UNL     1      23.289  48.012  49.203  1.00  0.00    -0.080 SA
BRANCH   6   7
HETATM    7  C   UNL     1      23.995  46.383  49.584  1.00  0.00     0.187 C 
BRANCH   7   8
HETATM    8  C   UNL     1      25.053  46.526  50.663  1.00  0.00     0.245 C 
HETATM    9  N   UNL     1      25.563  45.319  51.095  1.00  0.00    -0.267 N 
HETATM   10  H   UNL     1      25.249  44.407  50.758  1.00  0.00     0.190 HD
HETATM   11  O   UNL     1      25.433  47.614  51.100  1.00  0.00    -0.271 OA
BRANCH   9  12
HETATM   12  N   UNL     1      26.498  45.278  52.134  1.00  0.00    -0.263 N 
HETATM   13  C   UNL     1      27.462  44.287  52.053  1.00  0.00     0.270 C 
HETATM   14  O   UNL     1      27.516  43.538  51.077  1.00  0.00    -0.266 OA
HETATM   15  H   UNL     1      26.309  45.850  52.950  1.00  0.00     0.190 HD
BRANCH  13  16
HETATM   16  C   UNL     1      28.417  44.133  53.189  1.00  0.00     0.033 A 
HETATM   17  C   UNL     1      28.346  44.889  54.365  1.00  0.00     0.017 A 
HETATM   18  C   UNL     1      29.280  44.687  55.388  1.00  0.00     0.007 A 
HETATM   19  C   UNL     1      30.294  43.732  55.253  1.00  0.00    -0.062 A 
HETATM   20  C   UNL     1      31.316  43.530  56.333  1.00  0.00     0.048 C 
HETATM   21  C   UNL     1      30.376  42.991  54.070  1.00  0.00     0.007 A 
HETATM   22  C   UNL     1      29.444  43.188  53.048  1.00  0.00     0.017 A 
ENDBRANCH  13  16
ENDBRANCH   9  12
ENDBRANCH   7   8
ENDBRANCH   6   7
ENDBRANCH   1   6
BRANCH   2  23
HETATM   23  C   UNL     1      20.353  49.281  48.406  1.00  0.00     0.043 A 
HETATM   24  C   UNL     1      20.585  50.575  47.917  1.00  0.00     0.033 A 
HETATM   25  C   UNL     1      19.993  51.672  48.547  1.00  0.00     0.044 A 
HETATM   26  C   UNL     1      19.186  51.473  49.660  1.00  0.00     0.116 A 
HETATM   27  F   UNL     1      18.618  52.526  50.262  1.00  0.00    -0.206 F 
HETATM   28  C   UNL     1      18.960  50.196  50.162  1.00  0.00     0.044 A 
HETATM   29  C   UNL     1      19.544  49.092  49.537  1.00  0.00     0.033 A 
ENDBRANCH   2  23
BRANCH   3  30
HETATM   30  C   UNL     1      19.143  47.765  45.922  1.00  0.00     0.255 C 
HETATM   31  C   UNL     1      18.571  46.558  45.168  1.00  0.00     0.049 C 
BRANCH  30  32
HETATM   32  N   UNL     1      17.987  48.393  46.752  1.00  0.00    -0.060 N 
HETATM   33  H   UNL     1      18.430  48.742  47.610  1.00  0.00     0.280 HD
HETATM   34  C   UNL     1      17.297  49.586  46.111  1.00  0.00     0.236 C 
HETATM   35  C   UNL     1      16.365  50.227  47.133  1.00  0.00     0.028 C 
HETATM   36  C   UNL     1      15.348  49.227  47.670  1.00  0.00     0.003 C 
HETATM   37  C   UNL     1      16.034  47.980  48.218  1.00  0.00     0.028 C 
HETATM   38  C   UNL     1      16.972  47.355  47.193  1.00  0.00     0.236 C 
ENDBRANCH  30  32
ENDBRANCH   3  30
TORSDOF 8
ENDMDL
MODEL 4
REMARK VINA RESULT:      -9.7      3.387     10.133
REMARK  8 active torsions:
REMARK  status: ('A' for Active; 'I' for Inactive)
REMARK    1  A    between atoms: C_5  and  C_6 
REMARK       I    between atoms: C_6  and  N_7 
REMARK    2  A    between atoms: N_7  and  N_8 
REMARK       I    between atoms: N_8  and  C_9 
REMARK    3  A    between atoms: C_9  and  C_10 
REMARK    4  A    between atoms: C_10  and  S_11 
REMARK    5  A    between atoms: S_11  and  C_12 
REMARK    6  A    between atoms: N_13  and  C_14 
REMARK    7  A    between atoms: C_21  and  C_22 
REMARK    8  A    between atoms: C_22  and  N_23 
ROOT
HETATM    1  C   UNL     1      23.762  46.418  49.768  1.00  0.00     0.196 A 
HETATM    2  N   UNL     1      22.997  47.361  49.108  1.00  0.00    -0.274 N 
HETATM    3  C   UNL     1      23.691  48.556  49.310  1.00  0.00     0.166 A 
HETATM    4  N   UNL     1      24.816  48.297  49.949  1.00  0.00    -0.131 NA
HETATM    5  N   UNL     1      24.855  46.968  50.240  1.00  0.00    -0.122 NA
ENDROOT
BRANCH   1   6
HETATM    6  S   UNL     1      23.440  44.718  49.831  1.00  0.00    -0.080 SA
BRANCH   6   7
HETATM    7  C   UNL     1      24.803  44.103  48.802  1.00  0.00     0.187 C 
BRANCH   7   8
HETATM    8  C   UNL     1      25.962  43.681  49.688  1.00  0.00     0.245 C 
HETATM    9  N   UNL     1      25.674  43.746  51.036  1.00  0.00    -0.267 N 
HETATM   10  H   UNL     1      24.786  44.073  51.420  1.00  0.00     0.190 HD
HETATM   11  O   UNL     1      27.048  43.302  49.247  1.00  0.00    -0.271 OA
BRANCH   9  12
HETATM   12  N   UNL     1      26.660  43.454  51.984  1.00  0.00    -0.263 N 
HETATM   13  C   UNL     1      27.137  44.525  52.721  1.00  0.00     0.270 C 
HETATM   14  O   UNL     1      26.657  45.650  52.581  1.00  0.00    -0.266 OA
HETATM   15  H   UNL     1      27.078  42.531  51.950  1.00  0.00     0.190 HD
BRANCH  13  16
HETATM   16  C   UNL     1      28.263  44.286  53.670  1.00  0.00     0.033 A 
HETATM   17  C   UNL     1      29.146  43.206  53.563  1.00  0.00     0.017 A 
HETATM   18  C   UNL     1      30.181  43.048  54.494  1.00  0.00     0.007 A 
HETATM   19  C   UNL     1      30.347  43.963  55.540  1.00  0.00    -0.062 A 
HETATM   20  C   UNL     1      31.436  43.784  56.557  1.00  0.00     0.048 C 
HETATM   21  C   UNL     1      29.453  45.031  55.657  1.00  0.00     0.007 A 
HETATM   22  C   UNL     1      28.421  45.192  54.729  1.00  0.00     0.017 A 
ENDBRANCH  13  16
ENDBRANCH   9  12
ENDBRANCH   7   8
ENDBRANCH   6   7
ENDBRANCH   1   6
BRANCH   2  23
HETATM   23  C   UNL     1      21.776  47.185  48.412  1.00  0.00     0.043 A 
HETATM   24  C   UNL     1      21.778  46.984  47.024  1.00  0.00     0.033 A 
HETATM   25  C   UNL     1      20.571  46.782  46.351  1.00  0.00     0.044 A 
HETATM   26  C   UNL     1      19.377  46.791  47.060  1.00  0.00     0.116 A 
HETATM   27  F   UNL     1      18.222  46.596  46.413  1.00  0.00    -0.206 F 
HETATM   28  C   UNL     1      19.363  47.003  48.435  1.00  0.00     0.044 A 
HETATM   29  C   UNL     1      20.564  47.202  49.119  1.00  0.00     0.033 A 
ENDBRANCH   2  23
BRANCH   3  30
HETATM   30  C   UNL     1      23.197  49.939  48.990  1.00  0.00     0.255 C 
HETATM   31  C   UNL     1      23.709  50.444  47.635  1.00  0.00     0.049 C 
BRANCH  30  32
HETATM   32  N   UNL     1      21.651  50.106  49.003  1.00  0.00    -0.060 N 
HETATM   33  H   UNL     1      21.277  49.151  49.052  1.00  0.00     0.280 HD
HETATM   34  C   UNL     1      21.086  50.850  50.202  1.00  0.00     0.236 C 
HETATM   35  C   UNL     1      19.567  50.723  50.191  1.00  0.00     0.028 C 
HETATM   36  C   UNL     1      18.969  51.246  48.889  1.00  0.00     0.003 C 
HETATM   37  C   UNL     1      19.612  50.577  47.679  1.00  0.00     0.028 C 
HETATM   38  C   UNL     1      21.131  50.697  47.707  1.00  0.00     0.236 C 
ENDBRANCH  30  32
ENDBRANCH   3  30
TORSDOF 8
ENDMDL
MODEL 5
REMARK VINA RESULT:      -9.4      4.316     11.542
REMARK  8 active torsions:
REMARK  status: ('A' for Active; 'I' for Inactive)
REMARK    1  A    between atoms: C_5  and  C_6 
REMARK       I    between atoms: C_6  and  N_7 
REMARK    2  A    between atoms: N_7  and  N_8 
REMARK       I    between atoms: N_8  and  C_9 
REMARK    3  A    between atoms: C_9  and  C_10 
REMARK    4  A    between atoms: C_10  and  S_11 
REMARK    5  A    between atoms: S_11  and  C_12 
REMARK    6  A    between atoms: N_13  and  C_14 
REMARK    7  A    between atoms: C_21  and  C_22 
REMARK    8  A    between atoms: C_22  and  N_23 
ROOT
HETATM    1  C   UNL     1      21.011  45.645  48.432  1.00  0.00     0.196 A 
HETATM    2  N   UNL     1      20.034  46.619  48.346  1.00  0.00    -0.274 N 
HETATM    3  C   UNL     1      18.866  45.900  48.080  1.00  0.00     0.166 A 
HETATM    4  N   UNL     1      19.140  44.610  48.112  1.00  0.00    -0.131 NA
HETATM    5  N   UNL     1      20.475  44.453  48.323  1.00  0.00    -0.122 NA
ENDROOT
BRANCH   1   6
HETATM    6  S   UNL     1      22.680  45.916  48.802  1.00  0.00    -0.080 SA
BRANCH   6   7
HETATM    7  C   UNL     1      23.071  44.357  49.646  1.00  0.00     0.187 C 
BRANCH   7   8
HETATM    8  C   UNL     1      24.143  44.599  50.694  1.00  0.00     0.245 C 
HETATM    9  N   UNL     1      24.777  43.446  51.107  1.00  0.00    -0.267 N 
HETATM   10  H   UNL     1      24.540  42.509  50.778  1.00  0.00     0.190 HD
HETATM   11  O   UNL     1      24.431  45.719  51.121  1.00  0.00    -0.271 OA
BRANCH   9  12
HETATM   12  N   UNL     1      25.742  43.494  52.118  1.00  0.00    -0.263 N 
HETATM   13  C   UNL     1      27.061  43.579  51.704  1.00  0.00     0.270 C 
HETATM   14  O   UNL     1      27.341  43.674  50.509  1.00  0.00    -0.266 OA
HETATM   15  H   UNL     1      25.434  43.291  53.063  1.00  0.00     0.190 HD
BRANCH  13  16
HETATM   16  C   UNL     1      28.133  43.525  52.739  1.00  0.00     0.033 A 
HETATM   17  C   UNL     1      29.302  42.768  52.601  1.00  0.00     0.017 A 
HETATM   18  C   UNL     1      30.265  42.768  53.618  1.00  0.00     0.007 A 
HETATM   19  C   UNL     1      30.076  43.522  54.782  1.00  0.00    -0.062 A 
HETATM   20  C   UNL     1      31.090  43.504  55.888  1.00  0.00     0.048 C 
HETATM   21  C   UNL     1      28.900  44.263  54.928  1.00  0.00     0.007 A 
HETATM   22  C   UNL     1      27.938  44.266  53.914  1.00  0.00     0.017 A 
ENDBRANCH  13  16
ENDBRANCH   9  12
ENDBRANCH   7   8
ENDBRANCH   6   7
ENDBRANCH   1   6
BRANCH   2  23
HETATM   23  C   UNL     1      20.169  48.024  48.463  1.00  0.00     0.043 A 
HETATM   24  C   UNL     1      20.676  48.775  47.392  1.00  0.00     0.033 A 
HETATM   25  C   UNL     1      20.779  50.163  47.505  1.00  0.00     0.044 A 
HETATM   26  C   UNL     1      20.385  50.789  48.682  1.00  0.00     0.116 A 
HETATM   27  F   UNL     1      20.482  52.120  48.787  1.00  0.00    -0.206 F 
HETATM   28  C   UNL     1      19.893  50.053  49.754  1.00  0.00     0.044 A 
HETATM   29  C   UNL     1      19.783  48.664  49.650  1.00  0.00     0.033 A 
ENDBRANCH   2  23
BRANCH   3  30
HETATM   30  C   UNL     1      17.537  46.475  47.680  1.00  0.00     0.255 C 
HETATM   31  C   UNL     1      16.745  47.009  48.880  1.00  0.00     0.049 C 
BRANCH  30  32
HETATM   32  N   UNL     1      17.603  47.608  46.616  1.00  0.00    -0.060 N 
HETATM   33  H   UNL     1      18.600  47.832  46.521  1.00  0.00     0.280 HD
HETATM   34  C   UNL     1      17.115  47.227  45.228  1.00  0.00     0.236 C 
HETATM   35  C   UNL     1      17.461  48.350  44.256  1.00  0.00     0.028 C 
HETATM   36  C   UNL     1      16.864  49.680  44.702  1.00  0.00     0.003 C 
HETATM   37  C   UNL     1      17.265  50.014  46.134  1.00  0.00     0.028 C 
HETATM   38  C   UNL     1      16.928  48.879  47.094  1.00  0.00     0.236 C 
ENDBRANCH  30  32
ENDBRANCH   3  30
TORSDOF 8
ENDMDL
MODEL 6
REMARK VINA RESULT:      -9.2      4.107     10.901
REMARK  8 active torsions:
REMARK  status: ('A' for Active; 'I' for Inactive)
REMARK    1  A    between atoms: C_5  and  C_6 
REMARK       I    between atoms: C_6  and  N_7 
REMARK    2  A    between atoms: N_7  and  N_8 
REMARK       I    between atoms: N_8  and  C_9 
REMARK    3  A    between atoms: C_9  and  C_10 
REMARK    4  A    between atoms: C_10  and  S_11 
REMARK    5  A    between atoms: S_11  and  C_12 
REMARK    6  A    between atoms: N_13  and  C_14 
REMARK    7  A    between atoms: C_21  and  C_22 
REMARK    8  A    between atoms: C_22  and  N_23 
ROOT
HETATM    1  C   UNL     1      22.498  45.135  49.125  1.00  0.00     0.196 A 
HETATM    2  N   UNL     1      21.845  46.195  48.526  1.00  0.00    -0.274 N 
HETATM    3  C   UNL     1      20.852  45.586  47.756  1.00  0.00     0.166 A 
HETATM    4  N   UNL     1      20.874  44.285  47.979  1.00  0.00    -0.131 NA
HETATM    5  N   UNL     1      21.903  44.005  48.824  1.00  0.00    -0.122 NA
ENDROOT
BRANCH   1   6
HETATM    6  S   UNL     1      23.806  45.258  50.253  1.00  0.00    -0.080 SA
BRANCH   6   7
HETATM    7  C   UNL     1      25.200  44.864  49.160  1.00  0.00     0.187 C 
BRANCH   7   8
HETATM    8  C   UNL     1      26.455  44.652  49.989  1.00  0.00     0.245 C 
HETATM    9  N   UNL     1      26.240  43.902  51.126  1.00  0.00    -0.267 N 
HETATM   10  H   UNL     1      25.329  43.543  51.417  1.00  0.00     0.190 HD
HETATM   11  O   UNL     1      27.561  45.092  49.668  1.00  0.00    -0.271 OA
BRANCH   9  12
HETATM   12  N   UNL     1      27.283  43.675  52.030  1.00  0.00    -0.263 N 
HETATM   13  C   UNL     1      27.251  44.413  53.201  1.00  0.00     0.270 C 
HETATM   14  O   UNL     1      26.311  45.171  53.443  1.00  0.00    -0.266 OA
HETATM   15  H   UNL     1      28.071  43.128  51.701  1.00  0.00     0.190 HD
BRANCH  13  16
HETATM   16  C   UNL     1      28.395  44.287  54.150  1.00  0.00     0.033 A 
HETATM   17  C   UNL     1      28.763  45.291  55.053  1.00  0.00     0.017 A 
HETATM   18  C   UNL     1      29.851  45.099  55.914  1.00  0.00     0.007 A 
HETATM   19  C   UNL     1      30.583  43.906  55.886  1.00  0.00    -0.062 A 
HETATM   20  C   UNL     1      31.767  43.705  56.786  1.00  0.00     0.048 C 
HETATM   21  C   UNL     1      30.226  42.911  54.971  1.00  0.00     0.007 A 
HETATM   22  C   UNL     1      29.140  43.099  54.113  1.00  0.00     0.017 A 
ENDBRANCH  13  16
ENDBRANCH   9  12
ENDBRANCH   7   8
ENDBRANCH   6   7
ENDBRANCH   1   6
BRANCH   2  23
HETATM   23  C   UNL     1      22.122  47.581  48.629  1.00  0.00     0.043 A 
HETATM   24  C   UNL     1      21.161  48.454  49.160  1.00  0.00     0.033 A 
HETATM   25  C   UNL     1      21.453  49.814  49.284  1.00  0.00     0.044 A 
HETATM   26  C   UNL     1      22.690  50.293  48.872  1.00  0.00     0.116 A 
HETATM   27  F   UNL     1      22.969  51.596  48.994  1.00  0.00    -0.206 F 
HETATM   28  C   UNL     1      23.645  49.437  48.332  1.00  0.00     0.044 A 
HETATM   29  C   UNL     1      23.364  48.075  48.207  1.00  0.00     0.033 A 
ENDBRANCH   2  23
BRANCH   3  30
HETATM   30  C   UNL     1      19.983  46.255  46.730  1.00  0.00     0.255 C 
HETATM   31  C   UNL     1      19.431  45.267  45.695  1.00  0.00     0.049 C 
BRANCH  30  32
HETATM   32  N   UNL     1      18.780  47.055  47.306  1.00  0.00    -0.060 N 
HETATM   33  H   UNL     1      19.176  47.635  48.055  1.00  0.00     0.280 HD
HETATM   34  C   UNL     1      18.109  48.012  46.333  1.00  0.00     0.236 C 
HETATM   35  C   UNL     1      17.120  48.883  47.100  1.00  0.00     0.028 C 
HETATM   36  C   UNL     1      16.088  48.040  47.842  1.00  0.00     0.003 C 
HETATM   37  C   UNL     1      16.760  47.007  48.739  1.00  0.00     0.028 C 
HETATM   38  C   UNL     1      17.757  46.151  47.965  1.00  0.00     0.236 C 
ENDBRANCH  30  32
ENDBRANCH   3  30
TORSDOF 8
ENDMDL
MODEL 7
REMARK VINA RESULT:      -9.1      1.772      2.136
REMARK  8 active torsions:
REMARK  status: ('A' for Active; 'I' for Inactive)
REMARK    1  A    between atoms: C_5  and  C_6 
REMARK       I    between atoms: C_6  and  N_7 
REMARK    2  A    between atoms: N_7  and  N_8 
REMARK       I    between atoms: N_8  and  C_9 
REMARK    3  A    between atoms: C_9  and  C_10 
REMARK    4  A    between atoms: C_10  and  S_11 
REMARK    5  A    between atoms: S_11  and  C_12 
REMARK    6  A    between atoms: N_13  and  C_14 
REMARK    7  A    between atoms: C_21  and  C_22 
REMARK    8  A    between atoms: C_22  and  N_23 
ROOT
HETATM    1  C   UNL     1      25.381  46.832  50.934  1.00  0.00     0.196 A 
HETATM    2  N   UNL     1      25.644  45.592  51.485  1.00  0.00    -0.274 N 
HETATM    3  C   UNL     1      25.862  45.865  52.837  1.00  0.00     0.166 A 
HETATM    4  N   UNL     1      25.641  47.147  53.058  1.00  0.00    -0.131 NA
HETATM    5  N   UNL     1      25.350  47.749  51.872  1.00  0.00    -0.122 NA
ENDROOT
BRANCH   1   6
HETATM    6  S   UNL     1      24.977  47.139  49.280  1.00  0.00    -0.080 SA
BRANCH   6   7
HETATM    7  C   UNL     1      23.223  46.672  49.294  1.00  0.00     0.187 C 
BRANCH   7   8
HETATM    8  C   UNL     1      22.381  47.832  48.792  1.00  0.00     0.245 C 
HETATM    9  N   UNL     1      21.279  48.092  49.580  1.00  0.00    -0.267 N 
HETATM   10  H   UNL     1      21.019  47.548  50.404  1.00  0.00     0.190 HD
HETATM   11  O   UNL     1      22.665  48.489  47.789  1.00  0.00    -0.271 OA
BRANCH   9  12
HETATM   12  N   UNL     1      20.367  49.087  49.213  1.00  0.00    -0.263 N 
HETATM   13  C   UNL     1      19.143  49.066  49.861  1.00  0.00     0.270 C 
HETATM   14  O   UNL     1      18.917  48.250  50.755  1.00  0.00    -0.266 OA
HETATM   15  H   UNL     1      20.588  49.638  48.391  1.00  0.00     0.190 HD
BRANCH  13  16
HETATM   16  C   UNL     1      18.097  50.039  49.431  1.00  0.00     0.033 A 
HETATM   17  C   UNL     1      17.028  49.702  48.592  1.00  0.00     0.017 A 
HETATM   18  C   UNL     1      16.085  50.672  48.232  1.00  0.00     0.007 A 
HETATM   19  C   UNL     1      16.194  51.986  48.702  1.00  0.00    -0.062 A 
HETATM   20  C   UNL     1      15.203  53.037  48.297  1.00  0.00     0.048 C 
HETATM   21  C   UNL     1      17.272  52.326  49.524  1.00  0.00     0.007 A 
HETATM   22  C   UNL     1      18.214  51.360  49.887  1.00  0.00     0.017 A 
ENDBRANCH  13  16
ENDBRANCH   9  12
ENDBRANCH   7   8
ENDBRANCH   6   7
ENDBRANCH   1   6
BRANCH   2  23
HETATM   23  C   UNL     1      25.714  44.332  50.842  1.00  0.00     0.043 A 
HETATM   24  C   UNL     1      26.847  43.987  50.090  1.00  0.00     0.033 A 
HETATM   25  C   UNL     1      26.920  42.731  49.483  1.00  0.00     0.044 A 
HETATM   26  C   UNL     1      25.867  41.837  49.622  1.00  0.00     0.116 A 
HETATM   27  F   UNL     1      25.940  40.633  49.041  1.00  0.00    -0.206 F 
HETATM   28  C   UNL     1      24.733  42.174  50.354  1.00  0.00     0.044 A 
HETATM   29  C   UNL     1      24.651  43.425  50.968  1.00  0.00     0.033 A 
ENDBRANCH   2  23
BRANCH   3  30
HETATM   30  C   UNL     1      26.397  44.908  53.865  1.00  0.00     0.255 C 
HETATM   31  C   UNL     1      25.283  44.128  54.574  1.00  0.00     0.049 C 
BRANCH  30  32
HETATM   32  N   UNL     1      27.429  43.875  53.330  1.00  0.00    -0.060 N 
HETATM   33  H   UNL     1      27.342  43.913  52.307  1.00  0.00     0.280 HD
HETATM   34  C   UNL     1      28.883  44.182  53.648  1.00  0.00     0.236 C 
HETATM   35  C   UNL     1      29.774  43.225  52.865  1.00  0.00     0.028 C 
HETATM   36  C   UNL     1      29.440  41.769  53.172  1.00  0.00     0.003 C 
HETATM   37  C   UNL     1      27.957  41.484  52.956  1.00  0.00     0.028 C 
HETATM   38  C   UNL     1      27.076  42.456  53.733  1.00  0.00     0.236 C 
ENDBRANCH  30  32
ENDBRANCH   3  30
TORSDOF 8
ENDMDL
MODEL 8
REMARK VINA RESULT:      -8.9     12.595     16.256
REMARK  8 active torsions:
REMARK  status: ('A' for Active; 'I' for Inactive)
REMARK    1  A    between atoms: C_5  and  C_6 
REMARK       I    between atoms: C_6  and  N_7 
REMARK    2  A    between atoms: N_7  and  N_8 
REMARK       I    between atoms: N_8  and  C_9 
REMARK    3  A    between atoms: C_9  and  C_10 
REMARK    4  A    between atoms: C_10  and  S_11 
REMARK    5  A    between atoms: S_11  and  C_12 
REMARK    6  A    between atoms: N_13  and  C_14 
REMARK    7  A    between atoms: C_21  and  C_22 
REMARK    8  A    between atoms: C_22  and  N_23 
ROOT
HETATM    1  C   UNL     1      32.446  49.370  40.706  1.00  0.00     0.196 A 
HETATM    2  N   UNL     1      31.245  49.351  40.022  1.00  0.00    -0.274 N 
HETATM    3  C   UNL     1      30.923  47.994  39.948  1.00  0.00     0.166 A 
HETATM    4  N   UNL     1      31.819  47.302  40.626  1.00  0.00    -0.131 NA
HETATM    5  N   UNL     1      32.771  48.159  41.090  1.00  0.00    -0.122 NA
ENDROOT
BRANCH   1   6
HETATM    6  S   UNL     1      33.331  50.788  41.158  1.00  0.00    -0.080 SA
BRANCH   6   7
HETATM    7  C   UNL     1      32.311  51.364  42.545  1.00  0.00     0.187 C 
BRANCH   7   8
HETATM    8  C   UNL     1      33.204  51.723  43.720  1.00  0.00     0.245 C 
HETATM    9  N   UNL     1      34.512  51.969  43.360  1.00  0.00    -0.267 N 
HETATM   10  H   UNL     1      34.873  51.890  42.407  1.00  0.00     0.190 HD
HETATM   11  O   UNL     1      32.795  51.804  44.880  1.00  0.00    -0.271 OA
BRANCH   9  12
HETATM   12  N   UNL     1      35.474  52.246  44.337  1.00  0.00    -0.263 N 
HETATM   13  C   UNL     1      36.539  53.037  43.943  1.00  0.00     0.270 C 
HETATM   14  O   UNL     1      36.583  53.516  42.809  1.00  0.00    -0.266 OA
HETATM   15  H   UNL     1      35.422  51.718  45.202  1.00  0.00     0.190 HD
BRANCH  13  16
HETATM   16  C   UNL     1      37.645  53.274  44.915  1.00  0.00     0.033 A 
HETATM   17  C   UNL     1      38.709  52.385  45.106  1.00  0.00     0.017 A 
HETATM   18  C   UNL     1      39.711  52.677  46.040  1.00  0.00     0.007 A 
HETATM   19  C   UNL     1      39.666  53.856  46.793  1.00  0.00    -0.062 A 
HETATM   20  C   UNL     1      40.720  54.162  47.815  1.00  0.00     0.048 C 
HETATM   21  C   UNL     1      38.592  54.734  46.615  1.00  0.00     0.007 A 
HETATM   22  C   UNL     1      37.592  54.447  45.682  1.00  0.00     0.017 A 
ENDBRANCH  13  16
ENDBRANCH   9  12
ENDBRANCH   7   8
ENDBRANCH   6   7
ENDBRANCH   1   6
BRANCH   2  23
HETATM   23  C   UNL     1      30.513  50.437  39.483  1.00  0.00     0.043 A 
HETATM   24  C   UNL     1      29.542  51.086  40.260  1.00  0.00     0.033 A 
HETATM   25  C   UNL     1      28.845  52.175  39.731  1.00  0.00     0.044 A 
HETATM   26  C   UNL     1      29.113  52.601  38.436  1.00  0.00     0.116 A 
HETATM   27  F   UNL     1      28.445  53.646  37.932  1.00  0.00    -0.206 F 
HETATM   28  C   UNL     1      30.065  51.956  37.653  1.00  0.00     0.044 A 
HETATM   29  C   UNL     1      30.770  50.869  38.173  1.00  0.00     0.033 A 
ENDBRANCH   2  23
BRANCH   3  30
HETATM   30  C   UNL     1      29.826  47.382  39.124  1.00  0.00     0.255 C 
HETATM   31  C   UNL     1      29.809  45.851  39.217  1.00  0.00     0.049 C 
BRANCH  30  32
HETATM   32  N   UNL     1      28.393  47.890  39.453  1.00  0.00    -0.060 N 
HETATM   33  H   UNL     1      28.525  48.643  40.139  1.00  0.00     0.280 HD
HETATM   34  C   UNL     1      27.636  48.502  38.285  1.00  0.00     0.236 C 
HETATM   35  C   UNL     1      26.364  49.159  38.811  1.00  0.00     0.028 C 
HETATM   36  C   UNL     1      25.492  48.167  39.572  1.00  0.00     0.003 C 
HETATM   37  C   UNL     1      26.281  47.472  40.677  1.00  0.00     0.028 C 
HETATM   38  C   UNL     1      27.556  46.830  40.143  1.00  0.00     0.236 C 
ENDBRANCH  30  32
ENDBRANCH   3  30
TORSDOF 8
ENDMDL
MODEL 9
REMARK VINA RESULT:      -8.8      8.703     11.932
REMARK  8 active torsions:
REMARK  status: ('A' for Active; 'I' for Inactive)
REMARK    1  A    between atoms: C_5  and  C_6 
REMARK       I    between atoms: C_6  and  N_7 
REMARK    2  A    between atoms: N_7  and  N_8 
REMARK       I    between atoms: N_8  and  C_9 
REMARK    3  A    between atoms: C_9  and  C_10 
REMARK    4  A    between atoms: C_10  and  S_11 
REMARK    5  A    between atoms: S_11  and  C_12 
REMARK    6  A    between atoms: N_13  and  C_14 
REMARK    7  A    between atoms: C_21  and  C_22 
REMARK    8  A    between atoms: C_22  and  N_23 
ROOT
HETATM    1  C   UNL     1      15.937  52.471  48.267  1.00  0.00     0.196 A 
HETATM    2  N   UNL     1      16.980  51.631  47.926  1.00  0.00    -0.274 N 
HETATM    3  C   UNL     1      16.556  51.037  46.735  1.00  0.00     0.166 A 
HETATM    4  N   UNL     1      15.406  51.574  46.373  1.00  0.00    -0.131 NA
HETATM    5  N   UNL     1      15.018  52.460  47.331  1.00  0.00    -0.122 NA
ENDROOT
BRANCH   1   6
HETATM    6  S   UNL     1      15.897  53.529  49.636  1.00  0.00    -0.080 SA
BRANCH   6   7
HETATM    7  C   UNL     1      14.312  53.033  50.369  1.00  0.00     0.187 C 
BRANCH   7   8
HETATM    8  C   UNL     1      13.884  54.060  51.403  1.00  0.00     0.245 C 
HETATM    9  N   UNL     1      14.883  54.393  52.293  1.00  0.00    -0.267 N 
HETATM   10  H   UNL     1      15.816  53.976  52.294  1.00  0.00     0.190 HD
HETATM   11  O   UNL     1      12.758  54.561  51.433  1.00  0.00    -0.271 OA
BRANCH   9  12
HETATM   12  N   UNL     1      14.626  55.275  53.347  1.00  0.00    -0.263 N 
HETATM   13  C   UNL     1      14.930  56.607  53.121  1.00  0.00     0.270 C 
HETATM   14  O   UNL     1      15.340  56.982  52.022  1.00  0.00    -0.266 OA
HETATM   15  H   UNL     1      14.404  54.868  54.249  1.00  0.00     0.190 HD
BRANCH  13  16
HETATM   16  C   UNL     1      14.775  57.571  54.248  1.00  0.00     0.033 A 
HETATM   17  C   UNL     1      13.686  57.560  55.129  1.00  0.00     0.017 A 
HETATM   18  C   UNL     1      13.610  58.499  56.165  1.00  0.00     0.007 A 
HETATM   19  C   UNL     1      14.614  59.458  56.337  1.00  0.00    -0.062 A 
HETATM   20  C   UNL     1      14.525  60.485  57.427  1.00  0.00     0.048 C 
HETATM   21  C   UNL     1      15.691  59.480  55.445  1.00  0.00     0.007 A 
HETATM   22  C   UNL     1      15.772  58.543  54.412  1.00  0.00     0.017 A 
ENDBRANCH  13  16
ENDBRANCH   9  12
ENDBRANCH   7   8
ENDBRANCH   6   7
ENDBRANCH   1   6
BRANCH   2  23
HETATM   23  C   UNL     1      18.188  51.387  48.624  1.00  0.00     0.043 A 
HETATM   24  C   UNL     1      18.185  50.599  49.784  1.00  0.00     0.033 A 
HETATM   25  C   UNL     1      19.385  50.340  50.450  1.00  0.00     0.044 A 
HETATM   26  C   UNL     1      20.572  50.872  49.962  1.00  0.00     0.116 A 
HETATM   27  F   UNL     1      21.721  50.621  50.600  1.00  0.00    -0.206 F 
HETATM   28  C   UNL     1      20.584  51.666  48.819  1.00  0.00     0.044 A 
HETATM   29  C   UNL     1      19.390  51.928  48.144  1.00  0.00     0.033 A 
ENDBRANCH   2  23
BRANCH   3  30
HETATM   30  C   UNL     1      17.209  49.880  46.034  1.00  0.00     0.255 C 
HETATM   31  C   UNL     1      18.367  50.320  45.130  1.00  0.00     0.049 C 
BRANCH  30  32
HETATM   32  N   UNL     1      17.742  48.758  46.970  1.00  0.00    -0.060 N 
HETATM   33  H   UNL     1      17.718  49.161  47.915  1.00  0.00     0.280 HD
HETATM   34  C   UNL     1      16.898  47.496  47.021  1.00  0.00     0.236 C 
HETATM   35  C   UNL     1      17.411  46.602  48.145  1.00  0.00     0.028 C 
HETATM   36  C   UNL     1      18.888  46.268  47.966  1.00  0.00     0.003 C 
HETATM   37  C   UNL     1      19.725  47.532  47.807  1.00  0.00     0.028 C 
HETATM   38  C   UNL     1      19.195  48.425  46.691  1.00  0.00     0.236 C 
ENDBRANCH  30  32
ENDBRANCH   3  30
TORSDOF 8
ENDMDL
MODEL 10
REMARK VINA RESULT:      -8.8      4.097     10.979
REMARK  8 active torsions:
REMARK  status: ('A' for Active; 'I' for Inactive)
REMARK    1  A    between atoms: C_5  and  C_6 
REMARK       I    between atoms: C_6  and  N_7 
REMARK    2  A    between atoms: N_7  and  N_8 
REMARK       I    between atoms: N_8  and  C_9 
REMARK    3  A    between atoms: C_9  and  C_10 
REMARK    4  A    between atoms: C_10  and  S_11 
REMARK    5  A    between atoms: S_11  and  C_12 
REMARK    6  A    between atoms: N_13  and  C_14 
REMARK    7  A    between atoms: C_21  and  C_22 
REMARK    8  A    between atoms: C_22  and  N_23 
ROOT
HETATM    1  C   UNL     1      21.795  46.656  47.530  1.00  0.00     0.196 A 
HETATM    2  N   UNL     1      20.789  47.597  47.404  1.00  0.00    -0.274 N 
HETATM    3  C   UNL     1      20.092  47.191  46.264  1.00  0.00     0.166 A 
HETATM    4  N   UNL     1      20.600  46.052  45.832  1.00  0.00    -0.131 NA
HETATM    5  N   UNL     1      21.664  45.725  46.616  1.00  0.00    -0.122 NA
ENDROOT
BRANCH   1   6
HETATM    6  S   UNL     1      22.968  46.593  48.801  1.00  0.00    -0.080 SA
BRANCH   6   7
HETATM    7  C   UNL     1      23.121  44.795  48.997  1.00  0.00     0.187 C 
BRANCH   7   8
HETATM    8  C   UNL     1      23.795  44.482  50.322  1.00  0.00     0.245 C 
HETATM    9  N   UNL     1      24.745  45.411  50.687  1.00  0.00    -0.267 N 
HETATM   10  H   UNL     1      25.008  46.220  50.121  1.00  0.00     0.190 HD
HETATM   11  O   UNL     1      23.508  43.501  51.011  1.00  0.00    -0.271 OA
BRANCH   9  12
HETATM   12  N   UNL     1      25.503  45.228  51.848  1.00  0.00    -0.263 N 
HETATM   13  C   UNL     1      25.872  46.377  52.528  1.00  0.00     0.270 C 
HETATM   14  O   UNL     1      25.485  47.484  52.151  1.00  0.00    -0.266 OA
HETATM   15  H   UNL     1      25.875  44.300  52.018  1.00  0.00     0.190 HD
BRANCH  13  16
HETATM   16  C   UNL     1      26.769  46.243  53.712  1.00  0.00     0.033 A 
HETATM   17  C   UNL     1      27.537  45.102  53.973  1.00  0.00     0.017 A 
HETATM   18  C   UNL     1      28.357  45.050  55.107  1.00  0.00     0.007 A 
HETATM   19  C   UNL     1      28.422  46.132  55.993  1.00  0.00    -0.062 A 
HETATM   20  C   UNL     1      29.276  46.072  57.225  1.00  0.00     0.048 C 
HETATM   21  C   UNL     1      27.640  47.263  55.742  1.00  0.00     0.007 A 
HETATM   22  C   UNL     1      26.823  47.319  54.610  1.00  0.00     0.017 A 
ENDBRANCH  13  16
ENDBRANCH   9  12
ENDBRANCH   7   8
ENDBRANCH   6   7
ENDBRANCH   1   6
BRANCH   2  23
HETATM   23  C   UNL     1      20.529  48.731  48.211  1.00  0.00     0.043 A 
HETATM   24  C   UNL     1      21.105  49.970  47.891  1.00  0.00     0.033 A 
HETATM   25  C   UNL     1      20.820  51.090  48.675  1.00  0.00     0.044 A 
HETATM   26  C   UNL     1      19.975  50.967  49.771  1.00  0.00     0.116 A 
HETATM   27  F   UNL     1      19.702  52.042  50.520  1.00  0.00    -0.206 F 
HETATM   28  C   UNL     1      19.409  49.740  50.104  1.00  0.00     0.044 A 
HETATM   29  C   UNL     1      19.685  48.615  49.325  1.00  0.00     0.033 A 
ENDBRANCH   2  23
BRANCH   3  30
HETATM   30  C   UNL     1      19.031  47.973  45.543  1.00  0.00     0.255 C 
HETATM   31  C   UNL     1      18.363  47.162  44.425  1.00  0.00     0.049 C 
BRANCH  30  32
HETATM   32  N   UNL     1      17.903  48.543  46.449  1.00  0.00    -0.060 N 
HETATM   33  H   UNL     1      18.377  48.859  47.304  1.00  0.00     0.280 HD
HETATM   34  C   UNL     1      17.169  49.753  45.894  1.00  0.00     0.236 C 
HETATM   35  C   UNL     1      16.273  50.331  46.983  1.00  0.00     0.028 C 
HETATM   36  C   UNL     1      15.293  49.291  47.514  1.00  0.00     0.003 C 
HETATM   37  C   UNL     1      16.018  48.032  47.974  1.00  0.00     0.028 C 
HETATM   38  C   UNL     1      16.922  47.470  46.882  1.00  0.00     0.236 C 
ENDBRANCH  30  32
ENDBRANCH   3  30
TORSDOF 8
ENDMDL
