MODEL 1
REMARK VINA RESULT:      -8.5      0.000      0.000
REMARK  7 active torsions:
REMARK  status: ('A' for Active; 'I' for Inactive)
REMARK    1  A    between atoms: C_5  and  N_6 
REMARK    2  A    between atoms: N_6  and  C_9 
REMARK    3  A    between atoms: C_9  and  C_10 
REMARK    4  A    between atoms: C_10  and  C_11 
REMARK    5  A    between atoms: C_10  and  C_13 
REMARK    6  A    between atoms: C_11  and  O_12 
REMARK    7  A    between atoms: C_13  and  C_14 
ROOT
HETATM    1  N   UNL     1      27.839  42.829  53.270  1.00  0.00    -0.066 N 
HETATM    2  H   UNL     1      28.367  42.111  53.803  1.00  0.00     0.278 HD
HETATM    3  H   UNL     1      26.846  42.714  53.550  1.00  0.00     0.278 HD
ENDROOT
BRANCH   1   4
HETATM    4  C   UNL     1      28.326  44.155  53.699  1.00  0.00     0.220 C 
HETATM    5  C   UNL     1      29.374  44.076  54.771  1.00  0.00    -0.021 A 
HETATM    6  C   UNL     1      29.141  45.039  55.769  1.00  0.00    -0.040 A 
HETATM    7  C   UNL     1      30.470  43.226  54.841  1.00  0.00     0.010 A 
HETATM    8  C   UNL     1      29.974  45.145  56.880  1.00  0.00    -0.055 A 
HETATM    9  C   UNL     1      27.934  45.873  55.429  1.00  0.00     0.018 C 
HETATM   10  C   UNL     1      29.759  46.171  57.953  1.00  0.00     0.049 C 
HETATM   11  C   UNL     1      31.075  44.279  56.947  1.00  0.00     0.007 A 
HETATM   12  C   UNL     1      31.320  43.332  55.942  1.00  0.00     0.001 A 
HETATM   13  C   UNL     1      27.222  44.947  54.423  1.00  0.00     0.047 C 
HETATM   14  C   UNL     1      28.317  47.214  54.814  1.00  0.00     0.015 C 
ENDBRANCH   1   4
BRANCH   1  15
HETATM   15  C   UNL     1      27.958  42.456  51.837  1.00  0.00     0.240 C 
BRANCH  15  16
HETATM   16  C   UNL     1      26.624  42.705  51.101  1.00  0.00     0.040 C 
BRANCH  16  17
HETATM   17  C   UNL     1      25.973  41.364  50.725  1.00  0.00     0.170 C 
BRANCH  17  18
HETATM   18  O   UNL     1      26.440  40.348  51.614  1.00  0.00    -0.400 OA
HETATM   19  H   UNL     1      25.642  39.888  51.952  1.00  0.00     0.209 HD
ENDBRANCH  17  18
ENDBRANCH  16  17
BRANCH  16  20
HETATM   20  C   UNL     1      26.744  43.581  49.833  1.00  0.00     0.067 C 
BRANCH  20  21
HETATM   21  C   UNL     1      26.521  45.046  50.096  1.00  0.00     0.034 A 
HETATM   22  N   UNL     1      27.219  45.907  49.301  1.00  0.00    -0.266 NA
HETATM   23  C   UNL     1      27.020  47.230  49.525  1.00  0.00     0.117 A 
HETATM   24  C   UNL     1      26.195  47.732  50.518  1.00  0.00     0.019 A 
HETATM   25  C   UNL     1      25.515  46.831  51.329  1.00  0.00     0.003 A 
HETATM   26  C   UNL     1      25.677  45.465  51.118  1.00  0.00     0.027 A 
ENDBRANCH  20  21
ENDBRANCH  16  20
ENDBRANCH  15  16
ENDBRANCH   1  15
TORSDOF 7
ENDMDL
MODEL 2
REMARK VINA RESULT:      -8.4      1.937      2.984
REMARK  7 active torsions:
REMARK  status: ('A' for Active; 'I' for Inactive)
REMARK    1  A    between atoms: C_5  and  N_6 
REMARK    2  A    between atoms: N_6  and  C_9 
REMARK    3  A    between atoms: C_9  and  C_10 
REMARK    4  A    between atoms: C_10  and  C_11 
REMARK    5  A    between atoms: C_10  and  C_13 
REMARK    6  A    between atoms: C_11  and  O_12 
REMARK    7  A    between atoms: C_13  and  C_14 
ROOT
HETATM    1  N   UNL     1      26.006  44.127  52.432  1.00  0.00    -0.066 N 
HETATM    2  H   UNL     1      26.440  43.611  51.642  1.00  0.00     0.278 HD
HETATM    3  H   UNL     1      25.676  43.400  53.097  1.00  0.00     0.278 HD
ENDROOT
BRANCH   1   4
HETATM    4  C   UNL     1      27.059  44.943  53.069  1.00  0.00     0.220 C 
HETATM    5  C   UNL     1      28.318  44.170  53.333  1.00  0.00    -0.021 A 
HETATM    6  C   UNL     1      28.827  44.466  54.610  1.00  0.00    -0.040 A 
HETATM    7  C   UNL     1      28.978  43.287  52.489  1.00  0.00     0.010 A 
HETATM    8  C   UNL     1      29.984  43.854  55.088  1.00  0.00    -0.055 A 
HETATM    9  C   UNL     1      27.969  45.495  55.297  1.00  0.00     0.018 C 
HETATM   10  C   UNL     1      30.558  44.161  56.439  1.00  0.00     0.049 C 
HETATM   11  C   UNL     1      30.641  42.958  54.232  1.00  0.00     0.007 A 
HETATM   12  C   UNL     1      30.146  42.678  52.950  1.00  0.00     0.001 A 
HETATM   13  C   UNL     1      26.658  45.351  54.499  1.00  0.00     0.047 C 
HETATM   14  C   UNL     1      28.559  46.897  55.197  1.00  0.00     0.015 C 
ENDBRANCH   1   4
BRANCH   1  15
HETATM   15  C   UNL     1      24.812  44.814  51.874  1.00  0.00     0.240 C 
BRANCH  15  16
HETATM   16  C   UNL     1      25.189  45.606  50.605  1.00  0.00     0.040 C 
BRANCH  16  17
HETATM   17  C   UNL     1      25.822  44.665  49.566  1.00  0.00     0.170 C 
BRANCH  17  18
HETATM   18  O   UNL     1      27.245  44.735  49.672  1.00  0.00    -0.400 OA
HETATM   19  H   UNL     1      27.572  45.025  48.794  1.00  0.00     0.209 HD
ENDBRANCH  17  18
ENDBRANCH  16  17
BRANCH  16  20
HETATM   20  C   UNL     1      26.143  46.798  50.851  1.00  0.00     0.067 C 
BRANCH  20  21
HETATM   21  C   UNL     1      25.912  47.952  49.913  1.00  0.00     0.034 A 
HETATM   22  N   UNL     1      24.609  48.268  49.667  1.00  0.00    -0.266 NA
HETATM   23  C   UNL     1      24.390  49.311  48.827  1.00  0.00     0.117 A 
HETATM   24  C   UNL     1      25.397  50.024  48.199  1.00  0.00     0.019 A 
HETATM   25  C   UNL     1      26.716  49.663  48.449  1.00  0.00     0.003 A 
HETATM   26  C   UNL     1      26.983  48.611  49.320  1.00  0.00     0.027 A 
ENDBRANCH  20  21
ENDBRANCH  16  20
ENDBRANCH  15  16
ENDBRANCH   1  15
TORSDOF 7
ENDMDL
MODEL 3
REMARK VINA RESULT:      -8.2      1.263      2.691
REMARK  7 active torsions:
REMARK  status: ('A' for Active; 'I' for Inactive)
REMARK    1  A    between atoms: C_5  and  N_6 
REMARK    2  A    between atoms: N_6  and  C_9 
REMARK    3  A    between atoms: C_9  and  C_10 
REMARK    4  A    between atoms: C_10  and  C_11 
REMARK    5  A    between atoms: C_10  and  C_13 
REMARK    6  A    between atoms: C_11  and  O_12 
REMARK    7  A    between atoms: C_13  and  C_14 
ROOT
HETATM    1  N   UNL     1      27.585  41.025  52.714  1.00  0.00    -0.066 N 
HETATM    2  H   UNL     1      27.877  40.030  52.766  1.00  0.00     0.278 HD
HETATM    3  H   UNL     1      26.557  41.024  52.859  1.00  0.00     0.278 HD
ENDROOT
BRANCH   1   4
HETATM    4  C   UNL     1      28.244  41.747  53.820  1.00  0.00     0.220 C 
HETATM    5  C   UNL     1      27.533  43.014  54.197  1.00  0.00    -0.021 A 
HETATM    6  C   UNL     1      28.452  44.058  54.407  1.00  0.00    -0.040 A 
HETATM    7  C   UNL     1      26.170  43.218  54.365  1.00  0.00     0.010 A 
HETATM    8  C   UNL     1      28.026  45.339  54.748  1.00  0.00    -0.055 A 
HETATM    9  C   UNL     1      29.864  43.565  54.225  1.00  0.00     0.018 C 
HETATM   10  C   UNL     1      28.983  46.468  54.993  1.00  0.00     0.049 C 
HETATM   11  C   UNL     1      26.647  45.539  54.911  1.00  0.00     0.007 A 
HETATM   12  C   UNL     1      25.732  44.494  54.722  1.00  0.00     0.001 A 
HETATM   13  C   UNL     1      29.617  42.294  53.389  1.00  0.00     0.047 C 
HETATM   14  C   UNL     1      30.543  43.262  55.556  1.00  0.00     0.015 C 
ENDBRANCH   1   4
BRANCH   1  15
HETATM   15  C   UNL     1      27.850  41.463  51.319  1.00  0.00     0.240 C 
BRANCH  15  16
HETATM   16  C   UNL     1      26.562  42.015  50.672  1.00  0.00     0.040 C 
BRANCH  16  17
HETATM   17  C   UNL     1      25.741  40.862  50.070  1.00  0.00     0.170 C 
BRANCH  17  18
HETATM   18  O   UNL     1      26.068  39.648  50.748  1.00  0.00    -0.400 OA
HETATM   19  H   UNL     1      25.259  39.093  50.725  1.00  0.00     0.209 HD
ENDBRANCH  17  18
ENDBRANCH  16  17
BRANCH  16  20
HETATM   20  C   UNL     1      26.798  43.088  49.584  1.00  0.00     0.067 C 
BRANCH  20  21
HETATM   21  C   UNL     1      26.409  44.475  50.019  1.00  0.00     0.034 A 
HETATM   22  N   UNL     1      27.057  45.499  49.394  1.00  0.00    -0.266 NA
HETATM   23  C   UNL     1      26.709  46.754  49.774  1.00  0.00     0.117 A 
HETATM   24  C   UNL     1      25.781  47.034  50.763  1.00  0.00     0.019 A 
HETATM   25  C   UNL     1      25.155  45.970  51.401  1.00  0.00     0.003 A 
HETATM   26  C   UNL     1      25.470  44.667  51.026  1.00  0.00     0.027 A 
ENDBRANCH  20  21
ENDBRANCH  16  20
ENDBRANCH  15  16
ENDBRANCH   1  15
TORSDOF 7
ENDMDL
MODEL 4
REMARK VINA RESULT:      -8.1      2.055      3.419
REMARK  7 active torsions:
REMARK  status: ('A' for Active; 'I' for Inactive)
REMARK    1  A    between atoms: C_5  and  N_6 
REMARK    2  A    between atoms: N_6  and  C_9 
REMARK    3  A    between atoms: C_9  and  C_10 
REMARK    4  A    between atoms: C_10  and  C_11 
REMARK    5  A    between atoms: C_10  and  C_13 
REMARK    6  A    between atoms: C_11  and  O_12 
REMARK    7  A    between atoms: C_13  and  C_14 
ROOT
HETATM    1  N   UNL     1      26.942  46.116  53.146  1.00  0.00    -0.066 N 
HETATM    2  H   UNL     1      27.312  46.915  53.697  1.00  0.00     0.278 HD
HETATM    3  H   UNL     1      27.367  46.204  52.202  1.00  0.00     0.278 HD
ENDROOT
BRANCH   1   4
HETATM    4  C   UNL     1      27.411  44.872  53.788  1.00  0.00     0.220 C 
HETATM    5  C   UNL     1      28.306  45.123  54.967  1.00  0.00    -0.021 A 
HETATM    6  C   UNL     1      29.409  44.251  54.950  1.00  0.00    -0.040 A 
HETATM    7  C   UNL     1      28.138  46.043  55.993  1.00  0.00     0.010 A 
HETATM    8  C   UNL     1      30.391  44.308  55.937  1.00  0.00    -0.055 A 
HETATM    9  C   UNL     1      29.326  43.313  53.775  1.00  0.00     0.018 C 
HETATM   10  C   UNL     1      31.570  43.382  55.954  1.00  0.00     0.049 C 
HETATM   11  C   UNL     1      30.218  45.244  56.967  1.00  0.00     0.007 A 
HETATM   12  C   UNL     1      29.107  46.100  56.995  1.00  0.00     0.001 A 
HETATM   13  C   UNL     1      28.358  44.088  52.860  1.00  0.00     0.047 C 
HETATM   14  C   UNL     1      28.783  41.944  54.169  1.00  0.00     0.015 C 
ENDBRANCH   1   4
BRANCH   1  15
HETATM   15  C   UNL     1      25.479  46.342  53.013  1.00  0.00     0.240 C 
BRANCH  15  16
HETATM   16  C   UNL     1      25.072  46.384  51.525  1.00  0.00     0.040 C 
BRANCH  16  17
HETATM   17  C   UNL     1      24.399  45.060  51.127  1.00  0.00     0.170 C 
BRANCH  17  18
HETATM   18  O   UNL     1      24.518  44.129  52.205  1.00  0.00    -0.400 OA
HETATM   19  H   UNL     1      25.079  43.395  51.875  1.00  0.00     0.209 HD
ENDBRANCH  17  18
ENDBRANCH  16  17
BRANCH  16  20
HETATM   20  C   UNL     1      26.236  46.672  50.549  1.00  0.00     0.067 C 
BRANCH  20  21
HETATM   21  C   UNL     1      26.037  47.920  49.733  1.00  0.00     0.034 A 
HETATM   22  N   UNL     1      24.742  48.276  49.496  1.00  0.00    -0.266 NA
HETATM   23  C   UNL     1      24.551  49.404  48.767  1.00  0.00     0.117 A 
HETATM   24  C   UNL     1      25.578  50.167  48.237  1.00  0.00     0.019 A 
HETATM   25  C   UNL     1      26.888  49.766  48.475  1.00  0.00     0.003 A 
HETATM   26  C   UNL     1      27.126  48.626  49.234  1.00  0.00     0.027 A 
ENDBRANCH  20  21
ENDBRANCH  16  20
ENDBRANCH  15  16
ENDBRANCH   1  15
TORSDOF 7
ENDMDL
MODEL 5
REMARK VINA RESULT:      -8.1      1.494      1.647
REMARK  7 active torsions:
REMARK  status: ('A' for Active; 'I' for Inactive)
REMARK    1  A    between atoms: C_5  and  N_6 
REMARK    2  A    between atoms: N_6  and  C_9 
REMARK    3  A    between atoms: C_9  and  C_10 
REMARK    4  A    between atoms: C_10  and  C_11 
REMARK    5  A    between atoms: C_10  and  C_13 
REMARK    6  A    between atoms: C_11  and  O_12 
REMARK    7  A    between atoms: C_13  and  C_14 
ROOT
HETATM    1  N   UNL     1      26.544  43.339  53.191  1.00  0.00    -0.066 N 
HETATM    2  H   UNL     1      26.963  42.540  53.704  1.00  0.00     0.278 HD
HETATM    3  H   UNL     1      25.577  43.433  53.558  1.00  0.00     0.278 HD
ENDROOT
BRANCH   1   4
HETATM    4  C   UNL     1      27.323  44.547  53.525  1.00  0.00     0.220 C 
HETATM    5  C   UNL     1      28.606  44.237  54.240  1.00  0.00    -0.021 A 
HETATM    6  C   UNL     1      28.808  45.128  55.310  1.00  0.00    -0.040 A 
HETATM    7  C   UNL     1      29.538  43.252  53.945  1.00  0.00     0.010 A 
HETATM    8  C   UNL     1      29.926  45.025  56.135  1.00  0.00    -0.055 A 
HETATM    9  C   UNL     1      27.692  46.137  55.378  1.00  0.00     0.018 C 
HETATM   10  C   UNL     1      30.176  45.968  57.273  1.00  0.00     0.049 C 
HETATM   11  C   UNL     1      30.860  44.023  55.834  1.00  0.00     0.007 A 
HETATM   12  C   UNL     1      30.669  43.148  54.755  1.00  0.00     0.001 A 
HETATM   13  C   UNL     1      26.597  45.405  54.579  1.00  0.00     0.047 C 
HETATM   14  C   UNL     1      28.081  47.468  54.746  1.00  0.00     0.015 C 
ENDBRANCH   1   4
BRANCH   1  15
HETATM   15  C   UNL     1      26.455  42.919  51.768  1.00  0.00     0.240 C 
BRANCH  15  16
HETATM   16  C   UNL     1      25.602  43.921  50.961  1.00  0.00     0.040 C 
BRANCH  16  17
HETATM   17  C   UNL     1      24.221  43.315  50.663  1.00  0.00     0.170 C 
BRANCH  17  18
HETATM   18  O   UNL     1      23.206  44.247  51.041  1.00  0.00    -0.400 OA
HETATM   19  H   UNL     1      22.785  44.548  50.209  1.00  0.00     0.209 HD
ENDBRANCH  17  18
ENDBRANCH  16  17
BRANCH  16  20
HETATM   20  C   UNL     1      26.245  44.390  49.635  1.00  0.00     0.067 C 
BRANCH  20  21
HETATM   21  C   UNL     1      26.414  45.882  49.549  1.00  0.00     0.034 A 
HETATM   22  N   UNL     1      27.656  46.321  49.194  1.00  0.00    -0.266 NA
HETATM   23  C   UNL     1      27.818  47.665  49.106  1.00  0.00     0.117 A 
HETATM   24  C   UNL     1      26.822  48.585  49.388  1.00  0.00     0.019 A 
HETATM   25  C   UNL     1      25.574  48.110  49.772  1.00  0.00     0.003 A 
HETATM   26  C   UNL     1      25.361  46.737  49.854  1.00  0.00     0.027 A 
ENDBRANCH  20  21
ENDBRANCH  16  20
ENDBRANCH  15  16
ENDBRANCH   1  15
TORSDOF 7
ENDMDL
MODEL 6
REMARK VINA RESULT:      -7.7      2.323      7.415
REMARK  7 active torsions:
REMARK  status: ('A' for Active; 'I' for Inactive)
REMARK    1  A    between atoms: C_5  and  N_6 
REMARK    2  A    between atoms: N_6  and  C_9 
REMARK    3  A    between atoms: C_9  and  C_10 
REMARK    4  A    between atoms: C_10  and  C_11 
REMARK    5  A    between atoms: C_10  and  C_13 
REMARK    6  A    between atoms: C_11  and  O_12 
REMARK    7  A    between atoms: C_13  and  C_14 
ROOT
HETATM    1  N   UNL     1      26.543  45.916  51.290  1.00  0.00    -0.066 N 
HETATM    2  H   UNL     1      26.527  44.881  51.376  1.00  0.00     0.278 HD
HETATM    3  H   UNL     1      27.531  46.168  51.096  1.00  0.00     0.278 HD
ENDROOT
BRANCH   1   4
HETATM    4  C   UNL     1      25.700  46.285  50.136  1.00  0.00     0.220 C 
HETATM    5  C   UNL     1      26.067  47.614  49.544  1.00  0.00    -0.021 A 
HETATM    6  C   UNL     1      24.913  48.363  49.247  1.00  0.00    -0.040 A 
HETATM    7  C   UNL     1      27.332  48.113  49.267  1.00  0.00     0.010 A 
HETATM    8  C   UNL     1      25.002  49.643  48.705  1.00  0.00    -0.055 A 
HETATM    9  C   UNL     1      23.671  47.579  49.580  1.00  0.00     0.018 C 
HETATM   10  C   UNL     1      23.791  50.459  48.363  1.00  0.00     0.049 C 
HETATM   11  C   UNL     1      26.285  50.142  48.433  1.00  0.00     0.007 A 
HETATM   12  C   UNL     1      27.434  49.388  48.710  1.00  0.00     0.001 A 
HETATM   13  C   UNL     1      24.245  46.545  50.569  1.00  0.00     0.047 C 
HETATM   14  C   UNL     1      23.056  46.926  48.348  1.00  0.00     0.015 C 
ENDBRANCH   1   4
BRANCH   1  15
HETATM   15  C   UNL     1      26.188  46.450  52.631  1.00  0.00     0.240 C 
BRANCH  15  16
HETATM   16  C   UNL     1      26.622  45.464  53.737  1.00  0.00     0.040 C 
BRANCH  16  17
HETATM   17  C   UNL     1      25.384  44.918  54.469  1.00  0.00     0.170 C 
BRANCH  17  18
HETATM   18  O   UNL     1      24.937  43.730  53.815  1.00  0.00    -0.400 OA
HETATM   19  H   UNL     1      24.447  44.021  53.017  1.00  0.00     0.209 HD
ENDBRANCH  17  18
ENDBRANCH  16  17
BRANCH  16  20
HETATM   20  C   UNL     1      27.603  46.055  54.776  1.00  0.00     0.067 C 
BRANCH  20  21
HETATM   21  C   UNL     1      28.756  45.143  55.094  1.00  0.00     0.034 A 
HETATM   22  N   UNL     1      29.550  45.527  56.134  1.00  0.00    -0.266 NA
HETATM   23  C   UNL     1      30.589  44.708  56.435  1.00  0.00     0.117 A 
HETATM   24  C   UNL     1      30.893  43.554  55.732  1.00  0.00     0.019 A 
HETATM   25  C   UNL     1      30.081  43.200  54.661  1.00  0.00     0.003 A 
HETATM   26  C   UNL     1      28.993  44.004  54.334  1.00  0.00     0.027 A 
ENDBRANCH  20  21
ENDBRANCH  16  20
ENDBRANCH  15  16
ENDBRANCH   1  15
TORSDOF 7
ENDMDL
MODEL 7
REMARK VINA RESULT:      -7.6      2.159      3.866
REMARK  7 active torsions:
REMARK  status: ('A' for Active; 'I' for Inactive)
REMARK    1  A    between atoms: C_5  and  N_6 
REMARK    2  A    between atoms: N_6  and  C_9 
REMARK    3  A    between atoms: C_9  and  C_10 
REMARK    4  A    between atoms: C_10  and  C_11 
REMARK    5  A    between atoms: C_10  and  C_13 
REMARK    6  A    between atoms: C_11  and  O_12 
REMARK    7  A    between atoms: C_13  and  C_14 
ROOT
HETATM    1  N   UNL     1      25.697  44.275  52.825  1.00  0.00    -0.066 N 
HETATM    2  H   UNL     1      25.983  43.332  52.496  1.00  0.00     0.278 HD
HETATM    3  H   UNL     1      25.041  44.111  53.613  1.00  0.00     0.278 HD
ENDROOT
BRANCH   1   4
HETATM    4  C   UNL     1      26.904  44.966  53.317  1.00  0.00     0.220 C 
HETATM    5  C   UNL     1      28.119  44.084  53.329  1.00  0.00    -0.021 A 
HETATM    6  C   UNL     1      28.851  44.260  54.517  1.00  0.00    -0.040 A 
HETATM    7  C   UNL     1      28.556  43.208  52.345  1.00  0.00     0.010 A 
HETATM    8  C   UNL     1      30.013  43.532  54.766  1.00  0.00    -0.055 A 
HETATM    9  C   UNL     1      28.206  45.307  55.388  1.00  0.00     0.018 C 
HETATM   10  C   UNL     1      30.822  43.709  56.016  1.00  0.00     0.049 C 
HETATM   11  C   UNL     1      30.444  42.644  53.769  1.00  0.00     0.007 A 
HETATM   12  C   UNL     1      29.726  42.484  52.575  1.00  0.00     0.001 A 
HETATM   13  C   UNL     1      26.777  45.314  54.812  1.00  0.00     0.047 C 
HETATM   14  C   UNL     1      28.891  46.662  55.260  1.00  0.00     0.015 C 
ENDBRANCH   1   4
BRANCH   1  15
HETATM   15  C   UNL     1      24.929  44.889  51.709  1.00  0.00     0.240 C 
BRANCH  15  16
HETATM   16  C   UNL     1      25.243  44.171  50.379  1.00  0.00     0.040 C 
BRANCH  16  17
HETATM   17  C   UNL     1      24.509  44.868  49.221  1.00  0.00     0.170 C 
BRANCH  17  18
HETATM   18  O   UNL     1      24.510  44.009  48.079  1.00  0.00    -0.400 OA
HETATM   19  H   UNL     1      24.573  44.594  47.294  1.00  0.00     0.209 HD
ENDBRANCH  17  18
ENDBRANCH  16  17
BRANCH  16  20
HETATM   20  C   UNL     1      24.894  42.665  50.364  1.00  0.00     0.067 C 
BRANCH  20  21
HETATM   21  C   UNL     1      26.067  41.784  50.032  1.00  0.00     0.034 A 
HETATM   22  N   UNL     1      26.680  42.032  48.840  1.00  0.00    -0.266 NA
HETATM   23  C   UNL     1      27.744  41.248  48.533  1.00  0.00     0.117 A 
HETATM   24  C   UNL     1      28.199  40.213  49.334  1.00  0.00     0.019 A 
HETATM   25  C   UNL     1      27.539  39.966  50.532  1.00  0.00     0.003 A 
HETATM   26  C   UNL     1      26.456  40.762  50.891  1.00  0.00     0.027 A 
ENDBRANCH  20  21
ENDBRANCH  16  20
ENDBRANCH  15  16
ENDBRANCH   1  15
TORSDOF 7
ENDMDL
MODEL 8
REMARK VINA RESULT:      -7.4      2.280      4.236
REMARK  7 active torsions:
REMARK  status: ('A' for Active; 'I' for Inactive)
REMARK    1  A    between atoms: C_5  and  N_6 
REMARK    2  A    between atoms: N_6  and  C_9 
REMARK    3  A    between atoms: C_9  and  C_10 
REMARK    4  A    between atoms: C_10  and  C_11 
REMARK    5  A    between atoms: C_10  and  C_13 
REMARK    6  A    between atoms: C_11  and  O_12 
REMARK    7  A    between atoms: C_13  and  C_14 
ROOT
HETATM    1  N   UNL     1      27.049  43.604  52.479  1.00  0.00    -0.066 N 
HETATM    2  H   UNL     1      27.642  42.777  52.683  1.00  0.00     0.278 HD
HETATM    3  H   UNL     1      26.140  43.422  52.948  1.00  0.00     0.278 HD
ENDROOT
BRANCH   1   4
HETATM    4  C   UNL     1      27.695  44.783  53.089  1.00  0.00     0.220 C 
HETATM    5  C   UNL     1      28.792  44.419  54.046  1.00  0.00    -0.021 A 
HETATM    6  C   UNL     1      28.721  45.207  55.209  1.00  0.00    -0.040 A 
HETATM    7  C   UNL     1      29.796  43.475  53.884  1.00  0.00     0.010 A 
HETATM    8  C   UNL     1      29.626  45.038  56.254  1.00  0.00    -0.055 A 
HETATM    9  C   UNL     1      27.588  46.195  55.112  1.00  0.00     0.018 C 
HETATM   10  C   UNL     1      29.584  45.872  57.499  1.00  0.00     0.049 C 
HETATM   11  C   UNL     1      30.634  44.077  56.086  1.00  0.00     0.007 A 
HETATM   12  C   UNL     1      30.719  43.306  54.918  1.00  0.00     0.001 A 
HETATM   13  C   UNL     1      26.724  45.531  54.022  1.00  0.00     0.047 C 
HETATM   14  C   UNL     1      28.069  47.583  54.707  1.00  0.00     0.015 C 
ENDBRANCH   1   4
BRANCH   1  15
HETATM   15  C   UNL     1      26.817  43.598  51.011  1.00  0.00     0.240 C 
BRANCH  15  16
HETATM   16  C   UNL     1      26.556  42.160  50.512  1.00  0.00     0.040 C 
BRANCH  16  17
HETATM   17  C   UNL     1      25.045  41.876  50.496  1.00  0.00     0.170 C 
BRANCH  17  18
HETATM   18  O   UNL     1      24.405  42.674  51.494  1.00  0.00    -0.400 OA
HETATM   19  H   UNL     1      24.512  43.607  51.211  1.00  0.00     0.209 HD
ENDBRANCH  17  18
ENDBRANCH  16  17
BRANCH  16  20
HETATM   20  C   UNL     1      27.269  41.058  51.330  1.00  0.00     0.067 C 
BRANCH  20  21
HETATM   21  C   UNL     1      28.074  40.112  50.481  1.00  0.00     0.034 A 
HETATM   22  N   UNL     1      28.890  39.254  51.157  1.00  0.00    -0.266 NA
HETATM   23  C   UNL     1      29.615  38.391  50.401  1.00  0.00     0.117 A 
HETATM   24  C   UNL     1      29.594  38.367  49.017  1.00  0.00     0.019 A 
HETATM   25  C   UNL     1      28.771  39.271  48.354  1.00  0.00     0.003 A 
HETATM   26  C   UNL     1      27.996  40.158  49.094  1.00  0.00     0.027 A 
ENDBRANCH  20  21
ENDBRANCH  16  20
ENDBRANCH  15  16
ENDBRANCH   1  15
TORSDOF 7
ENDMDL
MODEL 9
REMARK VINA RESULT:      -7.3      3.013      7.664
REMARK  7 active torsions:
REMARK  status: ('A' for Active; 'I' for Inactive)
REMARK    1  A    between atoms: C_5  and  N_6 
REMARK    2  A    between atoms: N_6  and  C_9 
REMARK    3  A    between atoms: C_9  and  C_10 
REMARK    4  A    between atoms: C_10  and  C_11 
REMARK    5  A    between atoms: C_10  and  C_13 
REMARK    6  A    between atoms: C_11  and  O_12 
REMARK    7  A    between atoms: C_13  and  C_14 
ROOT
HETATM    1  N   UNL     1      28.801  41.532  51.791  1.00  0.00    -0.066 N 
HETATM    2  H   UNL     1      29.746  41.283  51.440  1.00  0.00     0.278 HD
HETATM    3  H   UNL     1      28.733  42.565  51.710  1.00  0.00     0.278 HD
ENDROOT
BRANCH   1   4
HETATM    4  C   UNL     1      27.808  40.898  50.901  1.00  0.00     0.220 C 
HETATM    5  C   UNL     1      28.392  39.796  50.064  1.00  0.00    -0.021 A 
HETATM    6  C   UNL     1      27.926  39.875  48.739  1.00  0.00    -0.040 A 
HETATM    7  C   UNL     1      29.255  38.782  50.458  1.00  0.00     0.010 A 
HETATM    8  C   UNL     1      28.346  38.968  47.770  1.00  0.00    -0.055 A 
HETATM    9  C   UNL     1      26.957  41.019  48.586  1.00  0.00     0.018 C 
HETATM   10  C   UNL     1      27.855  39.018  46.353  1.00  0.00     0.049 C 
HETATM   11  C   UNL     1      29.222  37.950  48.174  1.00  0.00     0.007 A 
HETATM   12  C   UNL     1      29.671  37.858  49.499  1.00  0.00     0.001 A 
HETATM   13  C   UNL     1      27.332  41.876  49.811  1.00  0.00     0.047 C 
HETATM   14  C   UNL     1      25.507  40.552  48.624  1.00  0.00     0.015 C 
ENDBRANCH   1   4
BRANCH   1  15
HETATM   15  C   UNL     1      28.789  41.182  53.235  1.00  0.00     0.240 C 
BRANCH  15  16
HETATM   16  C   UNL     1      28.676  42.457  54.098  1.00  0.00     0.040 C 
BRANCH  16  17
HETATM   17  C   UNL     1      27.465  43.290  53.648  1.00  0.00     0.170 C 
BRANCH  17  18
HETATM   18  O   UNL     1      27.890  44.257  52.685  1.00  0.00    -0.400 OA
HETATM   19  H   UNL     1      27.077  44.699  52.360  1.00  0.00     0.209 HD
ENDBRANCH  17  18
ENDBRANCH  16  17
BRANCH  16  20
HETATM   20  C   UNL     1      29.936  43.352  54.088  1.00  0.00     0.067 C 
BRANCH  20  21
HETATM   21  C   UNL     1      30.288  43.903  55.443  1.00  0.00     0.034 A 
HETATM   22  N   UNL     1      29.727  45.105  55.762  1.00  0.00    -0.266 NA
HETATM   23  C   UNL     1      30.033  45.607  56.984  1.00  0.00     0.117 A 
HETATM   24  C   UNL     1      30.891  44.993  57.882  1.00  0.00     0.019 A 
HETATM   25  C   UNL     1      31.467  43.782  57.520  1.00  0.00     0.003 A 
HETATM   26  C   UNL     1      31.164  43.223  56.282  1.00  0.00     0.027 A 
ENDBRANCH  20  21
ENDBRANCH  16  20
ENDBRANCH  15  16
ENDBRANCH   1  15
TORSDOF 7
ENDMDL
MODEL 10
REMARK VINA RESULT:      -7.2     12.570     14.629
REMARK  7 active torsions:
REMARK  status: ('A' for Active; 'I' for Inactive)
REMARK    1  A    between atoms: C_5  and  N_6 
REMARK    2  A    between atoms: N_6  and  C_9 
REMARK    3  A    between atoms: C_9  and  C_10 
REMARK    4  A    between atoms: C_10  and  C_11 
REMARK    5  A    between atoms: C_10  and  C_13 
REMARK    6  A    between atoms: C_11  and  O_12 
REMARK    7  A    between atoms: C_13  and  C_14 
ROOT
HETATM    1  N   UNL     1      29.600  48.926  42.287  1.00  0.00    -0.066 N 
HETATM    2  H   UNL     1      29.454  48.430  43.187  1.00  0.00     0.278 HD
HETATM    3  H   UNL     1      28.867  49.659  42.246  1.00  0.00     0.278 HD
ENDROOT
BRANCH   1   4
HETATM    4  C   UNL     1      30.934  49.558  42.333  1.00  0.00     0.220 C 
HETATM    5  C   UNL     1      30.933  50.964  41.807  1.00  0.00    -0.021 A 
HETATM    6  C   UNL     1      32.049  51.187  40.980  1.00  0.00    -0.040 A 
HETATM    7  C   UNL     1      30.021  51.978  42.065  1.00  0.00     0.010 A 
HETATM    8  C   UNL     1      32.254  52.417  40.360  1.00  0.00    -0.055 A 
HETATM    9  C   UNL     1      32.915  49.957  40.913  1.00  0.00     0.018 C 
HETATM   10  C   UNL     1      33.442  52.690  39.485  1.00  0.00     0.049 C 
HETATM   11  C   UNL     1      31.325  53.435  40.620  1.00  0.00     0.007 A 
HETATM   12  C   UNL     1      30.223  53.219  41.460  1.00  0.00     0.001 A 
HETATM   13  C   UNL     1      31.908  48.876  41.353  1.00  0.00     0.047 C 
HETATM   14  C   UNL     1      34.116  50.047  41.848  1.00  0.00     0.015 C 
ENDBRANCH   1   4
BRANCH   1  15
HETATM   15  C   UNL     1      29.318  47.935  41.216  1.00  0.00     0.240 C 
BRANCH  15  16
HETATM   16  C   UNL     1      28.166  48.428  40.314  1.00  0.00     0.040 C 
BRANCH  16  17
HETATM   17  C   UNL     1      26.983  47.449  40.391  1.00  0.00     0.170 C 
BRANCH  17  18
HETATM   18  O   UNL     1      26.977  46.817  41.672  1.00  0.00    -0.400 OA
HETATM   19  H   UNL     1      26.410  47.370  42.250  1.00  0.00     0.209 HD
ENDBRANCH  17  18
ENDBRANCH  16  17
BRANCH  16  20
HETATM   20  C   UNL     1      28.554  48.635  38.832  1.00  0.00     0.067 C 
BRANCH  20  21
HETATM   21  C   UNL     1      28.833  50.072  38.483  1.00  0.00     0.034 A 
HETATM   22  N   UNL     1      30.058  50.327  37.942  1.00  0.00    -0.266 NA
HETATM   23  C   UNL     1      30.317  51.619  37.617  1.00  0.00     0.117 A 
HETATM   24  C   UNL     1      29.435  52.664  37.837  1.00  0.00     0.019 A 
HETATM   25  C   UNL     1      28.203  52.378  38.414  1.00  0.00     0.003 A 
HETATM   26  C   UNL     1      27.892  51.063  38.743  1.00  0.00     0.027 A 
ENDBRANCH  20  21
ENDBRANCH  16  20
ENDBRANCH  15  16
ENDBRANCH   1  15
TORSDOF 7
ENDMDL
