MODEL 1
REMARK VINA RESULT:     -11.0      0.000      0.000
REMARK  7 active torsions:
REMARK  status: ('A' for Active; 'I' for Inactive)
REMARK       I    between atoms: C_2  and  N_3 
REMARK       I    between atoms: C_2  and  N_12 
REMARK    1  A    between atoms: N_3  and  C_4 
REMARK    2  A    between atoms: C_16  and  C_17 
REMARK    3  A    between atoms: C_21  and  C_23 
REMARK       I    between atoms: C_23  and  N_25 
REMARK    4  A    between atoms: N_25  and  C_26 
REMARK    5  A    between atoms: C_29  and  C_30 
REMARK    6  A    between atoms: C_30  and  C_31 
REMARK    7  A    between atoms: C_31  and  N_32 
ROOT
HETATM    1  C   UNL     1      27.055  45.406  53.738  1.00  0.00     0.037 A 
HETATM    2  C   UNL     1      27.043  46.716  54.222  1.00  0.00     0.029 A 
HETATM    3  C   UNL     1      28.029  47.154  55.111  1.00  0.00     0.004 A 
HETATM    4  C   UNL     1      29.036  46.285  55.526  1.00  0.00     0.023 A 
HETATM    5  C   UNL     1      29.058  44.972  55.051  1.00  0.00     0.046 A 
HETATM    6  C   UNL     1      28.070  44.536  54.160  1.00  0.00     0.052 A 
HETATM    7  C   UNL     1      30.082  44.068  55.486  1.00  0.00     0.099 C 
HETATM    8  N   UNL     1      30.902  43.330  55.848  1.00  0.00    -0.191 NA
ENDROOT
BRANCH   1   9
HETATM    9  N   UNL     1      26.068  44.875  52.885  1.00  0.00    -0.309 N 
HETATM   10  C   UNL     1      26.078  43.673  52.216  1.00  0.00     0.323 C 
HETATM   11  O   UNL     1      26.858  42.751  52.447  1.00  0.00    -0.247 OA
HETATM   12  N   UNL     1      25.140  43.571  51.204  1.00  0.00    -0.325 N 
HETATM   13  C   UNL     1      25.021  42.339  50.444  1.00  0.00     0.128 C 
HETATM   14  C   UNL     1      24.145  44.557  50.773  1.00  0.00     0.122 C 
HETATM   15  C   UNL     1      24.211  42.715  49.214  1.00  0.00     0.022 C 
HETATM   16  C   UNL     1      23.297  43.822  49.725  1.00  0.00     0.032 C 
HETATM   17  H   UNL     1      25.243  45.437  52.767  1.00  0.00     0.170 HD
BRANCH  14  18
HETATM   18  C   UNL     1      24.770  45.839  50.252  1.00  0.00    -0.034 A 
HETATM   19  C   UNL     1      26.156  45.980  50.074  1.00  0.00     0.009 A 
HETATM   20  C   UNL     1      26.707  47.191  49.653  1.00  0.00     0.002 A 
HETATM   21  C   UNL     1      25.884  48.292  49.420  1.00  0.00     0.017 A 
HETATM   22  C   UNL     1      24.502  48.175  49.602  1.00  0.00     0.033 A 
HETATM   23  C   UNL     1      23.948  46.947  49.987  1.00  0.00     0.026 A 
BRANCH  22  24
HETATM   24  C   UNL     1      23.586  49.329  49.394  1.00  0.00     0.256 C 
HETATM   25  O   UNL     1      24.084  50.430  49.192  1.00  0.00    -0.267 OA
HETATM   26  N   UNL     1      22.242  49.005  49.391  1.00  0.00    -0.323 N 
HETATM   27  H   UNL     1      22.003  48.022  49.414  1.00  0.00     0.169 HD
BRANCH  26  28
HETATM   28  C   UNL     1      21.150  49.893  49.295  1.00  0.00     0.035 A 
HETATM   29  C   UNL     1      21.145  51.034  48.494  1.00  0.00     0.030 A 
HETATM   30  C   UNL     1      20.042  51.896  48.493  1.00  0.00     0.009 A 
HETATM   31  C   UNL     1      18.920  51.626  49.285  1.00  0.00    -0.056 A 
HETATM   32  C   UNL     1      18.919  50.474  50.076  1.00  0.00     0.009 A 
HETATM   33  C   UNL     1      20.025  49.616  50.082  1.00  0.00     0.030 A 
BRANCH  31  34
HETATM   34  C   UNL     1      17.755  52.591  49.330  1.00  0.00     0.068 C 
BRANCH  34  35
HETATM   35  C   UNL     1      16.560  52.141  48.469  1.00  0.00     0.277 C 
BRANCH  35  36
HETATM   36  N   UNL     1      16.975  51.602  47.159  1.00  0.00     0.092 N 
HETATM   37  C   UNL     1      16.641  50.171  46.978  1.00  0.00     0.298 C 
HETATM   38  C   UNL     1      15.144  49.893  46.760  1.00  0.00     0.198 C 
HETATM   39  O   UNL     1      14.631  50.643  45.652  1.00  0.00    -0.388 OA
HETATM   40  C   UNL     1      14.855  52.046  45.842  1.00  0.00     0.198 C 
HETATM   41  C   UNL     1      16.348  52.354  46.046  1.00  0.00     0.298 C 
ENDBRANCH  35  36
ENDBRANCH  34  35
ENDBRANCH  31  34
ENDBRANCH  26  28
ENDBRANCH  22  24
ENDBRANCH  14  18
ENDBRANCH   1   9
TORSDOF 7
ENDMDL
MODEL 2
REMARK VINA RESULT:     -10.8      3.083     11.468
REMARK  7 active torsions:
REMARK  status: ('A' for Active; 'I' for Inactive)
REMARK       I    between atoms: C_2  and  N_3 
REMARK       I    between atoms: C_2  and  N_12 
REMARK    1  A    between atoms: N_3  and  C_4 
REMARK    2  A    between atoms: C_16  and  C_17 
REMARK    3  A    between atoms: C_21  and  C_23 
REMARK       I    between atoms: C_23  and  N_25 
REMARK    4  A    between atoms: N_25  and  C_26 
REMARK    5  A    between atoms: C_29  and  C_30 
REMARK    6  A    between atoms: C_30  and  C_31 
REMARK    7  A    between atoms: C_31  and  N_32 
ROOT
HETATM    1  C   UNL     1      19.690  46.596  47.136  1.00  0.00     0.037 A 
HETATM    2  C   UNL     1      19.111  45.366  47.453  1.00  0.00     0.029 A 
HETATM    3  C   UNL     1      19.414  44.223  46.706  1.00  0.00     0.004 A 
HETATM    4  C   UNL     1      20.299  44.302  45.633  1.00  0.00     0.023 A 
HETATM    5  C   UNL     1      20.883  45.527  45.304  1.00  0.00     0.046 A 
HETATM    6  C   UNL     1      20.579  46.669  46.054  1.00  0.00     0.052 A 
HETATM    7  C   UNL     1      21.781  45.618  44.190  1.00  0.00     0.099 C 
HETATM    8  N   UNL     1      22.498  45.697  43.280  1.00  0.00    -0.191 NA
ENDROOT
BRANCH   1   9
HETATM    9  N   UNL     1      19.394  47.799  47.806  1.00  0.00    -0.309 N 
HETATM   10  C   UNL     1      18.617  48.847  47.367  1.00  0.00     0.323 C 
HETATM   11  O   UNL     1      17.856  48.799  46.404  1.00  0.00    -0.247 OA
HETATM   12  N   UNL     1      18.777  50.018  48.087  1.00  0.00    -0.325 N 
HETATM   13  C   UNL     1      17.989  51.192  47.750  1.00  0.00     0.128 C 
HETATM   14  C   UNL     1      19.639  50.275  49.245  1.00  0.00     0.122 C 
HETATM   15  C   UNL     1      18.688  52.346  48.449  1.00  0.00     0.022 C 
HETATM   16  C   UNL     1      19.272  51.695  49.697  1.00  0.00     0.032 C 
HETATM   17  H   UNL     1      19.780  47.893  48.728  1.00  0.00     0.170 HD
BRANCH  14  18
HETATM   18  C   UNL     1      21.115  50.104  48.932  1.00  0.00    -0.034 A 
HETATM   19  C   UNL     1      21.853  51.079  48.242  1.00  0.00     0.009 A 
HETATM   20  C   UNL     1      23.194  50.867  47.913  1.00  0.00     0.002 A 
HETATM   21  C   UNL     1      23.817  49.667  48.253  1.00  0.00     0.017 A 
HETATM   22  C   UNL     1      23.095  48.679  48.931  1.00  0.00     0.033 A 
HETATM   23  C   UNL     1      21.761  48.910  49.293  1.00  0.00     0.026 A 
BRANCH  22  24
HETATM   24  C   UNL     1      23.707  47.371  49.289  1.00  0.00     0.256 C 
HETATM   25  O   UNL     1      23.202  46.355  48.828  1.00  0.00    -0.267 OA
HETATM   26  N   UNL     1      24.842  47.460  50.072  1.00  0.00    -0.323 N 
HETATM   27  H   UNL     1      25.219  48.386  50.236  1.00  0.00     0.169 HD
BRANCH  26  28
HETATM   28  C   UNL     1      25.585  46.396  50.624  1.00  0.00     0.035 A 
HETATM   29  C   UNL     1      25.522  46.019  51.965  1.00  0.00     0.030 A 
HETATM   30  C   UNL     1      26.332  44.986  52.451  1.00  0.00     0.009 A 
HETATM   31  C   UNL     1      27.212  44.304  51.602  1.00  0.00    -0.056 A 
HETATM   32  C   UNL     1      27.264  44.673  50.255  1.00  0.00     0.009 A 
HETATM   33  C   UNL     1      26.459  45.711  49.771  1.00  0.00     0.030 A 
BRANCH  31  34
HETATM   34  C   UNL     1      28.131  43.231  52.142  1.00  0.00     0.068 C 
BRANCH  34  35
HETATM   35  C   UNL     1      29.177  43.769  53.136  1.00  0.00     0.277 C 
BRANCH  35  36
HETATM   36  N   UNL     1      28.829  43.476  54.540  1.00  0.00     0.092 N 
HETATM   37  C   UNL     1      29.977  42.993  55.342  1.00  0.00     0.298 C 
HETATM   38  C   UNL     1      31.006  44.082  55.692  1.00  0.00     0.198 C 
HETATM   39  O   UNL     1      30.388  45.185  56.365  1.00  0.00    -0.388 OA
HETATM   40  C   UNL     1      29.331  45.737  55.569  1.00  0.00     0.198 C 
HETATM   41  C   UNL     1      28.278  44.672  55.218  1.00  0.00     0.298 C 
ENDBRANCH  35  36
ENDBRANCH  34  35
ENDBRANCH  31  34
ENDBRANCH  26  28
ENDBRANCH  22  24
ENDBRANCH  14  18
ENDBRANCH   1   9
TORSDOF 7
ENDMDL
MODEL 3
REMARK VINA RESULT:     -10.6      3.395     10.676
REMARK  7 active torsions:
REMARK  status: ('A' for Active; 'I' for Inactive)
REMARK       I    between atoms: C_2  and  N_3 
REMARK       I    between atoms: C_2  and  N_12 
REMARK    1  A    between atoms: N_3  and  C_4 
REMARK    2  A    between atoms: C_16  and  C_17 
REMARK    3  A    between atoms: C_21  and  C_23 
REMARK       I    between atoms: C_23  and  N_25 
REMARK    4  A    between atoms: N_25  and  C_26 
REMARK    5  A    between atoms: C_29  and  C_30 
REMARK    6  A    between atoms: C_30  and  C_31 
REMARK    7  A    between atoms: C_31  and  N_32 
ROOT
HETATM    1  C   UNL     1      21.333  46.141  47.336  1.00  0.00     0.037 A 
HETATM    2  C   UNL     1      21.430  46.000  45.950  1.00  0.00     0.029 A 
HETATM    3  C   UNL     1      21.960  44.834  45.390  1.00  0.00     0.004 A 
HETATM    4  C   UNL     1      22.401  43.798  46.211  1.00  0.00     0.023 A 
HETATM    5  C   UNL     1      22.312  43.928  47.599  1.00  0.00     0.046 A 
HETATM    6  C   UNL     1      21.780  45.096  48.157  1.00  0.00     0.052 A 
HETATM    7  C   UNL     1      22.779  42.873  48.450  1.00  0.00     0.099 C 
HETATM    8  N   UNL     1      23.168  42.026  49.141  1.00  0.00    -0.191 NA
ENDROOT
BRANCH   1   9
HETATM    9  N   UNL     1      20.863  47.305  47.976  1.00  0.00    -0.309 N 
HETATM   10  C   UNL     1      19.933  48.210  47.518  1.00  0.00     0.323 C 
HETATM   11  O   UNL     1      19.180  48.019  46.567  1.00  0.00    -0.247 OA
HETATM   12  N   UNL     1      19.919  49.412  48.203  1.00  0.00    -0.325 N 
HETATM   13  C   UNL     1      18.959  50.442  47.844  1.00  0.00     0.128 C 
HETATM   14  C   UNL     1      20.742  49.830  49.342  1.00  0.00     0.122 C 
HETATM   15  C   UNL     1      19.481  51.710  48.501  1.00  0.00     0.022 C 
HETATM   16  C   UNL     1      20.167  51.191  49.759  1.00  0.00     0.032 C 
HETATM   17  H   UNL     1      21.238  47.483  48.890  1.00  0.00     0.170 HD
BRANCH  14  18
HETATM   18  C   UNL     1      22.224  49.876  49.015  1.00  0.00    -0.034 A 
HETATM   19  C   UNL     1      22.767  50.815  48.123  1.00  0.00     0.009 A 
HETATM   20  C   UNL     1      24.123  50.793  47.793  1.00  0.00     0.002 A 
HETATM   21  C   UNL     1      24.961  49.819  48.336  1.00  0.00     0.017 A 
HETATM   22  C   UNL     1      24.436  48.869  49.219  1.00  0.00     0.033 A 
HETATM   23  C   UNL     1      23.082  48.917  49.577  1.00  0.00     0.026 A 
BRANCH  22  24
HETATM   24  C   UNL     1      25.283  47.792  49.801  1.00  0.00     0.256 C 
HETATM   25  O   UNL     1      26.350  48.113  50.311  1.00  0.00    -0.267 OA
HETATM   26  N   UNL     1      24.725  46.529  49.752  1.00  0.00    -0.323 N 
HETATM   27  H   UNL     1      23.764  46.460  49.439  1.00  0.00     0.169 HD
BRANCH  26  28
HETATM   28  C   UNL     1      25.321  45.316  50.153  1.00  0.00     0.035 A 
HETATM   29  C   UNL     1      26.448  44.766  49.544  1.00  0.00     0.030 A 
HETATM   30  C   UNL     1      26.949  43.528  49.964  1.00  0.00     0.009 A 
HETATM   31  C   UNL     1      26.339  42.823  51.008  1.00  0.00    -0.056 A 
HETATM   32  C   UNL     1      25.217  43.382  51.627  1.00  0.00     0.009 A 
HETATM   33  C   UNL     1      24.712  44.616  51.202  1.00  0.00     0.030 A 
BRANCH  31  34
HETATM   34  C   UNL     1      26.844  41.458  51.418  1.00  0.00     0.068 C 
BRANCH  34  35
HETATM   35  C   UNL     1      26.960  40.473  50.240  1.00  0.00     0.277 C 
BRANCH  35  36
HETATM   36  N   UNL     1      28.361  40.228  49.842  1.00  0.00     0.092 N 
HETATM   37  C   UNL     1      28.845  38.874  50.196  1.00  0.00     0.298 C 
HETATM   38  C   UNL     1      28.267  37.747  49.324  1.00  0.00     0.198 C 
HETATM   39  O   UNL     1      28.510  37.988  47.933  1.00  0.00    -0.388 OA
HETATM   40  C   UNL     1      27.968  39.254  47.534  1.00  0.00     0.198 C 
HETATM   41  C   UNL     1      28.542  40.402  48.381  1.00  0.00     0.298 C 
ENDBRANCH  35  36
ENDBRANCH  34  35
ENDBRANCH  31  34
ENDBRANCH  26  28
ENDBRANCH  22  24
ENDBRANCH  14  18
ENDBRANCH   1   9
TORSDOF 7
ENDMDL
MODEL 4
REMARK VINA RESULT:     -10.5      3.262     11.027
REMARK  7 active torsions:
REMARK  status: ('A' for Active; 'I' for Inactive)
REMARK       I    between atoms: C_2  and  N_3 
REMARK       I    between atoms: C_2  and  N_12 
REMARK    1  A    between atoms: N_3  and  C_4 
REMARK    2  A    between atoms: C_16  and  C_17 
REMARK    3  A    between atoms: C_21  and  C_23 
REMARK       I    between atoms: C_23  and  N_25 
REMARK    4  A    between atoms: N_25  and  C_26 
REMARK    5  A    between atoms: C_29  and  C_30 
REMARK    6  A    between atoms: C_30  and  C_31 
REMARK    7  A    between atoms: C_31  and  N_32 
ROOT
HETATM    1  C   UNL     1      19.405  46.659  47.133  1.00  0.00     0.037 A 
HETATM    2  C   UNL     1      18.518  45.583  47.198  1.00  0.00     0.029 A 
HETATM    3  C   UNL     1      18.753  44.422  46.454  1.00  0.00     0.004 A 
HETATM    4  C   UNL     1      19.877  44.328  45.637  1.00  0.00     0.023 A 
HETATM    5  C   UNL     1      20.771  45.398  45.562  1.00  0.00     0.046 A 
HETATM    6  C   UNL     1      20.534  46.559  46.308  1.00  0.00     0.052 A 
HETATM    7  C   UNL     1      21.921  45.315  44.710  1.00  0.00     0.099 C 
HETATM    8  N   UNL     1      22.846  45.255  44.011  1.00  0.00    -0.191 NA
ENDROOT
BRANCH   1   9
HETATM    9  N   UNL     1      19.209  47.880  47.807  1.00  0.00    -0.309 N 
HETATM   10  C   UNL     1      18.499  48.980  47.386  1.00  0.00     0.323 C 
HETATM   11  O   UNL     1      17.714  48.986  46.440  1.00  0.00    -0.247 OA
HETATM   12  N   UNL     1      18.757  50.137  48.100  1.00  0.00    -0.325 N 
HETATM   13  C   UNL     1      18.045  51.363  47.780  1.00  0.00     0.128 C 
HETATM   14  C   UNL     1      19.660  50.331  49.237  1.00  0.00     0.122 C 
HETATM   15  C   UNL     1      18.840  52.465  48.461  1.00  0.00     0.022 C 
HETATM   16  C   UNL     1      19.404  51.773  49.697  1.00  0.00     0.032 C 
HETATM   17  H   UNL     1      19.622  47.946  48.721  1.00  0.00     0.170 HD
BRANCH  14  18
HETATM   18  C   UNL     1      21.113  50.058  48.891  1.00  0.00    -0.034 A 
HETATM   19  C   UNL     1      21.891  50.961  48.149  1.00  0.00     0.009 A 
HETATM   20  C   UNL     1      23.205  50.654  47.792  1.00  0.00     0.002 A 
HETATM   21  C   UNL     1      23.762  49.428  48.155  1.00  0.00     0.017 A 
HETATM   22  C   UNL     1      23.000  48.511  48.887  1.00  0.00     0.033 A 
HETATM   23  C   UNL     1      21.694  48.838  49.276  1.00  0.00     0.026 A 
BRANCH  22  24
HETATM   24  C   UNL     1      23.540  47.179  49.273  1.00  0.00     0.256 C 
HETATM   25  O   UNL     1      22.937  46.183  48.893  1.00  0.00    -0.267 OA
HETATM   26  N   UNL     1      24.724  47.221  49.983  1.00  0.00    -0.323 N 
HETATM   27  H   UNL     1      25.175  48.123  50.079  1.00  0.00     0.169 HD
BRANCH  26  28
HETATM   28  C   UNL     1      25.423  46.132  50.544  1.00  0.00     0.035 A 
HETATM   29  C   UNL     1      26.571  45.573  49.982  1.00  0.00     0.030 A 
HETATM   30  C   UNL     1      27.177  44.457  50.569  1.00  0.00     0.009 A 
HETATM   31  C   UNL     1      26.654  43.885  51.734  1.00  0.00    -0.056 A 
HETATM   32  C   UNL     1      25.512  44.454  52.305  1.00  0.00     0.009 A 
HETATM   33  C   UNL     1      24.902  45.567  51.714  1.00  0.00     0.030 A 
BRANCH  31  34
HETATM   34  C   UNL     1      27.275  42.642  52.332  1.00  0.00     0.068 C 
BRANCH  34  35
HETATM   35  C   UNL     1      28.095  41.824  51.317  1.00  0.00     0.277 C 
BRANCH  35  36
HETATM   36  N   UNL     1      27.406  40.589  50.895  1.00  0.00     0.092 N 
HETATM   37  C   UNL     1      26.245  40.836  50.010  1.00  0.00     0.298 C 
HETATM   38  C   UNL     1      26.617  41.266  48.581  1.00  0.00     0.198 C 
HETATM   39  O   UNL     1      27.491  40.316  47.962  1.00  0.00    -0.388 OA
HETATM   40  C   UNL     1      28.674  40.125  48.749  1.00  0.00     0.198 C 
HETATM   41  C   UNL     1      28.330  39.677  50.180  1.00  0.00     0.298 C 
ENDBRANCH  35  36
ENDBRANCH  34  35
ENDBRANCH  31  34
ENDBRANCH  26  28
ENDBRANCH  22  24
ENDBRANCH  14  18
ENDBRANCH   1   9
TORSDOF 7
ENDMDL
MODEL 5
REMARK VINA RESULT:     -10.4      2.207      5.237
REMARK  7 active torsions:
REMARK  status: ('A' for Active; 'I' for Inactive)
REMARK       I    between atoms: C_2  and  N_3 
REMARK       I    between atoms: C_2  and  N_12 
REMARK    1  A    between atoms: N_3  and  C_4 
REMARK    2  A    between atoms: C_16  and  C_17 
REMARK    3  A    between atoms: C_21  and  C_23 
REMARK       I    between atoms: C_23  and  N_25 
REMARK    4  A    between atoms: N_25  and  C_26 
REMARK    5  A    between atoms: C_29  and  C_30 
REMARK    6  A    between atoms: C_30  and  C_31 
REMARK    7  A    between atoms: C_31  and  N_32 
ROOT
HETATM    1  C   UNL     1      24.343  43.960  48.539  1.00  0.00     0.037 A 
HETATM    2  C   UNL     1      24.379  42.607  48.193  1.00  0.00     0.029 A 
HETATM    3  C   UNL     1      23.651  42.133  47.097  1.00  0.00     0.004 A 
HETATM    4  C   UNL     1      22.879  43.008  46.337  1.00  0.00     0.023 A 
HETATM    5  C   UNL     1      22.832  44.363  46.673  1.00  0.00     0.046 A 
HETATM    6  C   UNL     1      23.562  44.835  47.771  1.00  0.00     0.052 A 
HETATM    7  C   UNL     1      22.025  45.266  45.906  1.00  0.00     0.099 C 
HETATM    8  N   UNL     1      21.362  45.996  45.294  1.00  0.00    -0.191 NA
ENDROOT
BRANCH   1   9
HETATM    9  N   UNL     1      25.003  44.502  49.658  1.00  0.00    -0.309 N 
HETATM   10  C   UNL     1      24.609  44.469  50.976  1.00  0.00     0.323 C 
HETATM   11  O   UNL     1      23.722  43.746  51.424  1.00  0.00    -0.247 OA
HETATM   12  N   UNL     1      25.277  45.361  51.796  1.00  0.00    -0.325 N 
HETATM   13  C   UNL     1      24.983  45.402  53.218  1.00  0.00     0.128 C 
HETATM   14  C   UNL     1      26.343  46.306  51.449  1.00  0.00     0.122 C 
HETATM   15  C   UNL     1      25.581  46.712  53.704  1.00  0.00     0.022 C 
HETATM   16  C   UNL     1      26.788  46.902  52.792  1.00  0.00     0.032 C 
HETATM   17  H   UNL     1      25.883  44.950  49.473  1.00  0.00     0.170 HD
BRANCH  14  18
HETATM   18  C   UNL     1      25.899  47.352  50.442  1.00  0.00    -0.034 A 
HETATM   19  C   UNL     1      26.815  48.155  49.741  1.00  0.00     0.009 A 
HETATM   20  C   UNL     1      26.376  49.152  48.869  1.00  0.00     0.002 A 
HETATM   21  C   UNL     1      25.011  49.378  48.693  1.00  0.00     0.017 A 
HETATM   22  C   UNL     1      24.084  48.596  49.390  1.00  0.00     0.033 A 
HETATM   23  C   UNL     1      24.527  47.571  50.237  1.00  0.00     0.026 A 
BRANCH  22  24
HETATM   24  C   UNL     1      22.618  48.820  49.259  1.00  0.00     0.256 C 
HETATM   25  O   UNL     1      21.929  47.890  48.858  1.00  0.00    -0.267 OA
HETATM   26  N   UNL     1      22.185  50.065  49.674  1.00  0.00    -0.323 N 
HETATM   27  H   UNL     1      22.864  50.663  50.129  1.00  0.00     0.169 HD
BRANCH  26  28
HETATM   28  C   UNL     1      20.876  50.584  49.597  1.00  0.00     0.035 A 
HETATM   29  C   UNL     1      19.809  50.116  50.361  1.00  0.00     0.030 A 
HETATM   30  C   UNL     1      18.525  50.646  50.188  1.00  0.00     0.009 A 
HETATM   31  C   UNL     1      18.287  51.661  49.254  1.00  0.00    -0.056 A 
HETATM   32  C   UNL     1      19.361  52.140  48.498  1.00  0.00     0.009 A 
HETATM   33  C   UNL     1      20.643  51.605  48.667  1.00  0.00     0.030 A 
BRANCH  31  34
HETATM   34  C   UNL     1      16.889  52.189  49.025  1.00  0.00     0.068 C 
BRANCH  34  35
HETATM   35  C   UNL     1      15.942  51.149  48.397  1.00  0.00     0.277 C 
BRANCH  35  36
HETATM   36  N   UNL     1      16.531  50.484  47.219  1.00  0.00     0.092 N 
HETATM   37  C   UNL     1      16.106  49.073  47.064  1.00  0.00     0.298 C 
HETATM   38  C   UNL     1      14.652  48.899  46.593  1.00  0.00     0.198 C 
HETATM   39  O   UNL     1      14.413  49.603  45.369  1.00  0.00    -0.388 OA
HETATM   40  C   UNL     1      14.726  50.994  45.513  1.00  0.00     0.198 C 
HETATM   41  C   UNL     1      16.181  51.198  45.968  1.00  0.00     0.298 C 
ENDBRANCH  35  36
ENDBRANCH  34  35
ENDBRANCH  31  34
ENDBRANCH  26  28
ENDBRANCH  22  24
ENDBRANCH  14  18
ENDBRANCH   1   9
TORSDOF 7
ENDMDL
MODEL 6
REMARK VINA RESULT:     -10.4      1.484      2.171
REMARK  7 active torsions:
REMARK  status: ('A' for Active; 'I' for Inactive)
REMARK       I    between atoms: C_2  and  N_3 
REMARK       I    between atoms: C_2  and  N_12 
REMARK    1  A    between atoms: N_3  and  C_4 
REMARK    2  A    between atoms: C_16  and  C_17 
REMARK    3  A    between atoms: C_21  and  C_23 
REMARK       I    between atoms: C_23  and  N_25 
REMARK    4  A    between atoms: N_25  and  C_26 
REMARK    5  A    between atoms: C_29  and  C_30 
REMARK    6  A    between atoms: C_30  and  C_31 
REMARK    7  A    between atoms: C_31  and  N_32 
ROOT
HETATM    1  C   UNL     1      27.139  44.441  53.812  1.00  0.00     0.037 A 
HETATM    2  C   UNL     1      28.361  43.985  54.312  1.00  0.00     0.029 A 
HETATM    3  C   UNL     1      29.103  44.769  55.201  1.00  0.00     0.004 A 
HETATM    4  C   UNL     1      28.631  46.018  55.597  1.00  0.00     0.023 A 
HETATM    5  C   UNL     1      27.412  46.487  55.103  1.00  0.00     0.046 A 
HETATM    6  C   UNL     1      26.670  45.700  54.214  1.00  0.00     0.052 A 
HETATM    7  C   UNL     1      26.928  47.779  55.493  1.00  0.00     0.099 C 
HETATM    8  N   UNL     1      26.541  48.830  55.798  1.00  0.00    -0.191 NA
ENDROOT
BRANCH   1   9
HETATM    9  N   UNL     1      26.362  43.736  52.874  1.00  0.00    -0.309 N 
HETATM   10  C   UNL     1      26.707  42.615  52.155  1.00  0.00     0.323 C 
HETATM   11  O   UNL     1      27.679  41.902  52.394  1.00  0.00    -0.247 OA
HETATM   12  N   UNL     1      25.879  42.346  51.080  1.00  0.00    -0.325 N 
HETATM   13  C   UNL     1      26.111  41.170  50.259  1.00  0.00     0.128 C 
HETATM   14  C   UNL     1      24.693  43.080  50.628  1.00  0.00     0.122 C 
HETATM   15  C   UNL     1      25.299  41.407  48.996  1.00  0.00     0.022 C 
HETATM   16  C   UNL     1      24.112  42.222  49.495  1.00  0.00     0.032 C 
HETATM   17  H   UNL     1      25.431  44.083  52.728  1.00  0.00     0.170 HD
BRANCH  14  18
HETATM   18  C   UNL     1      25.005  44.505  50.207  1.00  0.00    -0.034 A 
HETATM   19  C   UNL     1      26.262  45.092  50.421  1.00  0.00     0.009 A 
HETATM   20  C   UNL     1      26.500  46.425  50.080  1.00  0.00     0.002 A 
HETATM   21  C   UNL     1      25.479  47.202  49.535  1.00  0.00     0.017 A 
HETATM   22  C   UNL     1      24.216  46.638  49.324  1.00  0.00     0.033 A 
HETATM   23  C   UNL     1      23.991  45.289  49.632  1.00  0.00     0.026 A 
BRANCH  22  24
HETATM   24  C   UNL     1      23.086  47.435  48.773  1.00  0.00     0.256 C 
HETATM   25  O   UNL     1      22.619  47.098  47.692  1.00  0.00    -0.267 OA
HETATM   26  N   UNL     1      22.644  48.452  49.596  1.00  0.00    -0.323 N 
HETATM   27  H   UNL     1      23.035  48.497  50.529  1.00  0.00     0.169 HD
BRANCH  26  28
HETATM   28  C   UNL     1      21.649  49.411  49.310  1.00  0.00     0.035 A 
HETATM   29  C   UNL     1      21.923  50.726  48.936  1.00  0.00     0.030 A 
HETATM   30  C   UNL     1      20.881  51.635  48.721  1.00  0.00     0.009 A 
HETATM   31  C   UNL     1      19.545  51.242  48.865  1.00  0.00    -0.056 A 
HETATM   32  C   UNL     1      19.270  49.920  49.226  1.00  0.00     0.009 A 
HETATM   33  C   UNL     1      20.314  49.014  49.448  1.00  0.00     0.030 A 
BRANCH  31  34
HETATM   34  C   UNL     1      18.422  52.241  48.694  1.00  0.00     0.068 C 
BRANCH  34  35
HETATM   35  C   UNL     1      17.561  51.978  47.444  1.00  0.00     0.277 C 
BRANCH  35  36
HETATM   36  N   UNL     1      16.115  51.986  47.741  1.00  0.00     0.092 N 
HETATM   37  C   UNL     1      15.268  52.173  46.540  1.00  0.00     0.298 C 
HETATM   38  C   UNL     1      15.200  50.945  45.617  1.00  0.00     0.198 C 
HETATM   39  O   UNL     1      14.763  49.781  46.328  1.00  0.00    -0.388 OA
HETATM   40  C   UNL     1      15.621  49.517  47.446  1.00  0.00     0.198 C 
HETATM   41  C   UNL     1      15.693  50.725  48.396  1.00  0.00     0.298 C 
ENDBRANCH  35  36
ENDBRANCH  34  35
ENDBRANCH  31  34
ENDBRANCH  26  28
ENDBRANCH  22  24
ENDBRANCH  14  18
ENDBRANCH   1   9
TORSDOF 7
ENDMDL
MODEL 7
REMARK VINA RESULT:     -10.3      1.920      2.613
REMARK  7 active torsions:
REMARK  status: ('A' for Active; 'I' for Inactive)
REMARK       I    between atoms: C_2  and  N_3 
REMARK       I    between atoms: C_2  and  N_12 
REMARK    1  A    between atoms: N_3  and  C_4 
REMARK    2  A    between atoms: C_16  and  C_17 
REMARK    3  A    between atoms: C_21  and  C_23 
REMARK       I    between atoms: C_23  and  N_25 
REMARK    4  A    between atoms: N_25  and  C_26 
REMARK    5  A    between atoms: C_29  and  C_30 
REMARK    6  A    between atoms: C_30  and  C_31 
REMARK    7  A    between atoms: C_31  and  N_32 
ROOT
HETATM    1  C   UNL     1      28.438  44.094  54.147  1.00  0.00     0.037 A 
HETATM    2  C   UNL     1      28.056  45.421  54.361  1.00  0.00     0.029 A 
HETATM    3  C   UNL     1      28.732  46.213  55.293  1.00  0.00     0.004 A 
HETATM    4  C   UNL     1      29.795  45.686  56.022  1.00  0.00     0.023 A 
HETATM    5  C   UNL     1      30.186  44.361  55.820  1.00  0.00     0.046 A 
HETATM    6  C   UNL     1      29.508  43.569  54.885  1.00  0.00     0.052 A 
HETATM    7  C   UNL     1      31.268  43.807  56.579  1.00  0.00     0.099 C 
HETATM    8  N   UNL     1      32.136  43.352  57.202  1.00  0.00    -0.191 NA
ENDROOT
BRANCH   1   9
HETATM    9  N   UNL     1      27.773  43.219  53.267  1.00  0.00    -0.309 N 
HETATM   10  C   UNL     1      28.276  42.105  52.634  1.00  0.00     0.323 C 
HETATM   11  O   UNL     1      29.336  41.555  52.923  1.00  0.00    -0.247 OA
HETATM   12  N   UNL     1      27.501  41.643  51.585  1.00  0.00    -0.325 N 
HETATM   13  C   UNL     1      27.900  40.452  50.855  1.00  0.00     0.128 C 
HETATM   14  C   UNL     1      26.228  42.168  51.083  1.00  0.00     0.122 C 
HETATM   15  C   UNL     1      27.072  40.478  49.581  1.00  0.00     0.022 C 
HETATM   16  C   UNL     1      25.779  41.155  50.021  1.00  0.00     0.032 C 
HETATM   17  H   UNL     1      26.804  43.420  53.098  1.00  0.00     0.170 HD
BRANCH  14  18
HETATM   18  C   UNL     1      26.341  43.587  50.554  1.00  0.00    -0.034 A 
HETATM   19  C   UNL     1      27.576  44.245  50.431  1.00  0.00     0.009 A 
HETATM   20  C   UNL     1      27.643  45.572  50.001  1.00  0.00     0.002 A 
HETATM   21  C   UNL     1      26.474  46.272  49.703  1.00  0.00     0.017 A 
HETATM   22  C   UNL     1      25.235  45.636  49.829  1.00  0.00     0.033 A 
HETATM   23  C   UNL     1      25.173  44.294  50.225  1.00  0.00     0.026 A 
BRANCH  22  24
HETATM   24  C   UNL     1      23.959  46.351  49.551  1.00  0.00     0.256 C 
HETATM   25  O   UNL     1      22.923  45.697  49.549  1.00  0.00    -0.267 OA
HETATM   26  N   UNL     1      24.088  47.716  49.383  1.00  0.00    -0.323 N 
HETATM   27  H   UNL     1      24.995  48.122  49.572  1.00  0.00     0.169 HD
BRANCH  26  28
HETATM   28  C   UNL     1      23.074  48.633  49.035  1.00  0.00     0.035 A 
HETATM   29  C   UNL     1      23.145  50.003  49.288  1.00  0.00     0.030 A 
HETATM   30  C   UNL     1      22.074  50.842  48.963  1.00  0.00     0.009 A 
HETATM   31  C   UNL     1      20.915  50.329  48.368  1.00  0.00    -0.056 A 
HETATM   32  C   UNL     1      20.850  48.958  48.101  1.00  0.00     0.009 A 
HETATM   33  C   UNL     1      21.919  48.118  48.434  1.00  0.00     0.030 A 
BRANCH  31  34
HETATM   34  C   UNL     1      19.734  51.227  48.074  1.00  0.00     0.068 C 
BRANCH  34  35
HETATM   35  C   UNL     1      18.377  50.570  48.391  1.00  0.00     0.277 C 
BRANCH  35  36
HETATM   36  N   UNL     1      17.685  50.086  47.180  1.00  0.00     0.092 N 
HETATM   37  C   UNL     1      17.585  48.610  47.109  1.00  0.00     0.298 C 
HETATM   38  C   UNL     1      16.570  47.997  48.088  1.00  0.00     0.198 C 
HETATM   39  O   UNL     1      15.268  48.569  47.915  1.00  0.00    -0.388 OA
HETATM   40  C   UNL     1      15.314  49.993  48.073  1.00  0.00     0.198 C 
HETATM   41  C   UNL     1      16.310  50.635  47.093  1.00  0.00     0.298 C 
ENDBRANCH  35  36
ENDBRANCH  34  35
ENDBRANCH  31  34
ENDBRANCH  26  28
ENDBRANCH  22  24
ENDBRANCH  14  18
ENDBRANCH   1   9
TORSDOF 7
ENDMDL
MODEL 8
REMARK VINA RESULT:     -10.0      2.261     12.443
REMARK  7 active torsions:
REMARK  status: ('A' for Active; 'I' for Inactive)
REMARK       I    between atoms: C_2  and  N_3 
REMARK       I    between atoms: C_2  and  N_12 
REMARK    1  A    between atoms: N_3  and  C_4 
REMARK    2  A    between atoms: C_16  and  C_17 
REMARK    3  A    between atoms: C_21  and  C_23 
REMARK       I    between atoms: C_23  and  N_25 
REMARK    4  A    between atoms: N_25  and  C_26 
REMARK    5  A    between atoms: C_29  and  C_30 
REMARK    6  A    between atoms: C_30  and  C_31 
REMARK    7  A    between atoms: C_31  and  N_32 
ROOT
HETATM    1  C   UNL     1      15.952  51.888  48.291  1.00  0.00     0.037 A 
HETATM    2  C   UNL     1      16.288  52.105  49.629  1.00  0.00     0.029 A 
HETATM    3  C   UNL     1      15.765  53.199  50.325  1.00  0.00     0.004 A 
HETATM    4  C   UNL     1      14.901  54.088  49.688  1.00  0.00     0.023 A 
HETATM    5  C   UNL     1      14.559  53.883  48.350  1.00  0.00     0.046 A 
HETATM    6  C   UNL     1      15.084  52.787  47.655  1.00  0.00     0.052 A 
HETATM    7  C   UNL     1      13.684  54.803  47.684  1.00  0.00     0.099 C 
HETATM    8  N   UNL     1      12.987  55.554  47.139  1.00  0.00    -0.191 NA
ENDROOT
BRANCH   1   9
HETATM    9  N   UNL     1      16.480  50.843  47.508  1.00  0.00    -0.309 N 
HETATM   10  C   UNL     1      16.160  49.505  47.549  1.00  0.00     0.323 C 
HETATM   11  O   UNL     1      15.179  49.037  48.122  1.00  0.00    -0.247 OA
HETATM   12  N   UNL     1      17.067  48.680  46.908  1.00  0.00    -0.325 N 
HETATM   13  C   UNL     1      16.830  47.248  46.845  1.00  0.00     0.128 C 
HETATM   14  C   UNL     1      18.292  49.044  46.190  1.00  0.00     0.122 C 
HETATM   15  C   UNL     1      18.166  46.646  46.443  1.00  0.00     0.022 C 
HETATM   16  C   UNL     1      18.785  47.730  45.567  1.00  0.00     0.032 C 
HETATM   17  H   UNL     1      17.159  51.112  46.819  1.00  0.00     0.170 HD
BRANCH  14  18
HETATM   18  C   UNL     1      19.323  49.713  47.082  1.00  0.00    -0.034 A 
HETATM   19  C   UNL     1      19.144  51.007  47.596  1.00  0.00     0.009 A 
HETATM   20  C   UNL     1      20.138  51.621  48.361  1.00  0.00     0.002 A 
HETATM   21  C   UNL     1      21.338  50.958  48.612  1.00  0.00     0.017 A 
HETATM   22  C   UNL     1      21.539  49.672  48.100  1.00  0.00     0.033 A 
HETATM   23  C   UNL     1      20.525  49.044  47.364  1.00  0.00     0.026 A 
BRANCH  22  24
HETATM   24  C   UNL     1      22.815  48.935  48.316  1.00  0.00     0.256 C 
HETATM   25  O   UNL     1      23.831  49.381  47.797  1.00  0.00    -0.267 OA
HETATM   26  N   UNL     1      22.713  47.839  49.151  1.00  0.00    -0.323 N 
HETATM   27  H   UNL     1      21.830  47.699  49.626  1.00  0.00     0.169 HD
BRANCH  26  28
HETATM   28  C   UNL     1      23.728  46.915  49.475  1.00  0.00     0.035 A 
HETATM   29  C   UNL     1      23.798  45.624  48.953  1.00  0.00     0.030 A 
HETATM   30  C   UNL     1      24.807  44.745  49.365  1.00  0.00     0.009 A 
HETATM   31  C   UNL     1      25.770  45.145  50.299  1.00  0.00    -0.056 A 
HETATM   32  C   UNL     1      25.708  46.444  50.811  1.00  0.00     0.009 A 
HETATM   33  C   UNL     1      24.695  47.320  50.404  1.00  0.00     0.030 A 
BRANCH  31  34
HETATM   34  C   UNL     1      26.821  44.175  50.789  1.00  0.00     0.068 C 
BRANCH  34  35
HETATM   35  C   UNL     1      27.395  44.547  52.169  1.00  0.00     0.277 C 
BRANCH  35  36
HETATM   36  N   UNL     1      27.454  43.394  53.089  1.00  0.00     0.092 N 
HETATM   37  C   UNL     1      28.515  42.419  52.743  1.00  0.00     0.298 C 
HETATM   38  C   UNL     1      29.942  42.901  53.054  1.00  0.00     0.198 C 
HETATM   39  O   UNL     1      30.076  43.280  54.429  1.00  0.00    -0.388 OA
HETATM   40  C   UNL     1      29.123  44.294  54.771  1.00  0.00     0.198 C 
HETATM   41  C   UNL     1      27.684  43.832  54.486  1.00  0.00     0.298 C 
ENDBRANCH  35  36
ENDBRANCH  34  35
ENDBRANCH  31  34
ENDBRANCH  26  28
ENDBRANCH  22  24
ENDBRANCH  14  18
ENDBRANCH   1   9
TORSDOF 7
ENDMDL
MODEL 9
REMARK VINA RESULT:     -10.0      2.530     10.918
REMARK  7 active torsions:
REMARK  status: ('A' for Active; 'I' for Inactive)
REMARK       I    between atoms: C_2  and  N_3 
REMARK       I    between atoms: C_2  and  N_12 
REMARK    1  A    between atoms: N_3  and  C_4 
REMARK    2  A    between atoms: C_16  and  C_17 
REMARK    3  A    between atoms: C_21  and  C_23 
REMARK       I    between atoms: C_23  and  N_25 
REMARK    4  A    between atoms: N_25  and  C_26 
REMARK    5  A    between atoms: C_29  and  C_30 
REMARK    6  A    between atoms: C_30  and  C_31 
REMARK    7  A    between atoms: C_31  and  N_32 
ROOT
HETATM    1  C   UNL     1      21.509  45.296  48.254  1.00  0.00     0.037 A 
HETATM    2  C   UNL     1      21.506  44.602  47.042  1.00  0.00     0.029 A 
HETATM    3  C   UNL     1      22.198  43.394  46.913  1.00  0.00     0.004 A 
HETATM    4  C   UNL     1      22.902  42.869  47.994  1.00  0.00     0.023 A 
HETATM    5  C   UNL     1      22.915  43.555  49.211  1.00  0.00     0.046 A 
HETATM    6  C   UNL     1      22.221  44.764  49.338  1.00  0.00     0.052 A 
HETATM    7  C   UNL     1      23.652  43.029  50.323  1.00  0.00     0.099 C 
HETATM    8  N   UNL     1      24.259  42.613  51.221  1.00  0.00    -0.191 NA
ENDROOT
BRANCH   1   9
HETATM    9  N   UNL     1      20.883  46.543  48.446  1.00  0.00    -0.309 N 
HETATM   10  C   UNL     1      19.971  47.171  47.630  1.00  0.00     0.323 C 
HETATM   11  O   UNL     1      19.370  46.630  46.705  1.00  0.00    -0.247 OA
HETATM   12  N   UNL     1      19.788  48.515  47.904  1.00  0.00    -0.325 N 
HETATM   13  C   UNL     1      18.824  49.289  47.140  1.00  0.00     0.128 C 
HETATM   14  C   UNL     1      20.417  49.334  48.944  1.00  0.00     0.122 C 
HETATM   15  C   UNL     1      19.170  50.740  47.428  1.00  0.00     0.022 C 
HETATM   16  C   UNL     1      19.706  50.692  48.855  1.00  0.00     0.032 C 
HETATM   17  H   UNL     1      21.116  47.023  49.297  1.00  0.00     0.170 HD
BRANCH  14  18
HETATM   18  C   UNL     1      21.924  49.431  48.789  1.00  0.00    -0.034 A 
HETATM   19  C   UNL     1      22.536  50.434  48.019  1.00  0.00     0.009 A 
HETATM   20  C   UNL     1      23.921  50.460  47.842  1.00  0.00     0.002 A 
HETATM   21  C   UNL     1      24.720  49.473  48.418  1.00  0.00     0.017 A 
HETATM   22  C   UNL     1      24.127  48.460  49.180  1.00  0.00     0.033 A 
HETATM   23  C   UNL     1      22.742  48.458  49.387  1.00  0.00     0.026 A 
BRANCH  22  24
HETATM   24  C   UNL     1      24.934  47.368  49.790  1.00  0.00     0.256 C 
HETATM   25  O   UNL     1      25.168  46.377  49.109  1.00  0.00    -0.267 OA
HETATM   26  N   UNL     1      25.390  47.633  51.068  1.00  0.00    -0.323 N 
HETATM   27  H   UNL     1      25.240  48.567  51.428  1.00  0.00     0.169 HD
BRANCH  26  28
HETATM   28  C   UNL     1      26.106  46.763  51.916  1.00  0.00     0.035 A 
HETATM   29  C   UNL     1      26.466  45.462  51.570  1.00  0.00     0.030 A 
HETATM   30  C   UNL     1      27.129  44.640  52.488  1.00  0.00     0.009 A 
HETATM   31  C   UNL     1      27.454  45.108  53.767  1.00  0.00    -0.056 A 
HETATM   32  C   UNL     1      27.106  46.418  54.109  1.00  0.00     0.009 A 
HETATM   33  C   UNL     1      26.436  47.237  53.192  1.00  0.00     0.030 A 
BRANCH  31  34
HETATM   34  C   UNL     1      28.116  44.199  54.779  1.00  0.00     0.068 C 
BRANCH  34  35
HETATM   35  C   UNL     1      28.616  44.945  56.030  1.00  0.00     0.277 C 
BRANCH  35  36
HETATM   36  N   UNL     1      30.037  45.332  55.929  1.00  0.00     0.092 N 
HETATM   37  C   UNL     1      30.548  46.017  57.139  1.00  0.00     0.298 C 
HETATM   38  C   UNL     1      30.755  45.092  58.350  1.00  0.00     0.198 C 
HETATM   39  O   UNL     1      31.617  43.995  58.027  1.00  0.00    -0.388 OA
HETATM   40  C   UNL     1      31.100  43.252  56.916  1.00  0.00     0.198 C 
HETATM   41  C   UNL     1      30.899  44.151  55.684  1.00  0.00     0.298 C 
ENDBRANCH  35  36
ENDBRANCH  34  35
ENDBRANCH  31  34
ENDBRANCH  26  28
ENDBRANCH  22  24
ENDBRANCH  14  18
ENDBRANCH   1   9
TORSDOF 7
ENDMDL
MODEL 10
REMARK VINA RESULT:     -10.0     12.625     15.305
REMARK  7 active torsions:
REMARK  status: ('A' for Active; 'I' for Inactive)
REMARK       I    between atoms: C_2  and  N_3 
REMARK       I    between atoms: C_2  and  N_12 
REMARK    1  A    between atoms: N_3  and  C_4 
REMARK    2  A    between atoms: C_16  and  C_17 
REMARK    3  A    between atoms: C_21  and  C_23 
REMARK       I    between atoms: C_23  and  N_25 
REMARK    4  A    between atoms: N_25  and  C_26 
REMARK    5  A    between atoms: C_29  and  C_30 
REMARK    6  A    between atoms: C_30  and  C_31 
REMARK    7  A    between atoms: C_31  and  N_32 
ROOT
HETATM    1  C   UNL     1      34.594  51.225  42.813  1.00  0.00     0.037 A 
HETATM    2  C   UNL     1      33.664  51.780  43.693  1.00  0.00     0.029 A 
HETATM    3  C   UNL     1      32.377  51.243  43.800  1.00  0.00     0.004 A 
HETATM    4  C   UNL     1      32.008  50.146  43.024  1.00  0.00     0.023 A 
HETATM    5  C   UNL     1      32.929  49.583  42.138  1.00  0.00     0.046 A 
HETATM    6  C   UNL     1      34.217  50.122  42.034  1.00  0.00     0.052 A 
HETATM    7  C   UNL     1      32.551  48.464  41.324  1.00  0.00     0.099 C 
HETATM    8  N   UNL     1      32.243  47.567  40.655  1.00  0.00    -0.191 NA
ENDROOT
BRANCH   1   9
HETATM    9  N   UNL     1      35.888  51.742  42.610  1.00  0.00    -0.309 N 
HETATM   10  C   UNL     1      36.667  52.455  43.491  1.00  0.00     0.323 C 
HETATM   11  O   UNL     1      36.448  52.555  44.696  1.00  0.00    -0.247 OA
HETATM   12  N   UNL     1      37.739  53.110  42.909  1.00  0.00    -0.325 N 
HETATM   13  C   UNL     1      38.662  53.870  43.734  1.00  0.00     0.128 C 
HETATM   14  C   UNL     1      38.151  53.125  41.503  1.00  0.00     0.122 C 
HETATM   15  C   UNL     1      39.435  54.740  42.757  1.00  0.00     0.022 C 
HETATM   16  C   UNL     1      39.485  53.885  41.496  1.00  0.00     0.032 C 
HETATM   17  H   UNL     1      36.303  51.545  41.716  1.00  0.00     0.170 HD
BRANCH  14  18
HETATM   18  C   UNL     1      37.105  53.735  40.587  1.00  0.00    -0.034 A 
HETATM   19  C   UNL     1      37.240  55.025  40.048  1.00  0.00     0.009 A 
HETATM   20  C   UNL     1      36.232  55.583  39.260  1.00  0.00     0.002 A 
HETATM   21  C   UNL     1      35.061  54.869  39.010  1.00  0.00     0.017 A 
HETATM   22  C   UNL     1      34.904  53.587  39.546  1.00  0.00     0.033 A 
HETATM   23  C   UNL     1      35.933  53.014  40.305  1.00  0.00     0.026 A 
BRANCH  22  24
HETATM   24  C   UNL     1      33.661  52.797  39.332  1.00  0.00     0.256 C 
HETATM   25  O   UNL     1      33.628  52.022  38.384  1.00  0.00    -0.267 OA
HETATM   26  N   UNL     1      32.683  52.990  40.289  1.00  0.00    -0.323 N 
HETATM   27  H   UNL     1      32.930  53.548  41.097  1.00  0.00     0.169 HD
BRANCH  26  28
HETATM   28  C   UNL     1      31.384  52.442  40.306  1.00  0.00     0.035 A 
HETATM   29  C   UNL     1      30.992  51.348  39.535  1.00  0.00     0.030 A 
HETATM   30  C   UNL     1      29.668  50.896  39.565  1.00  0.00     0.009 A 
HETATM   31  C   UNL     1      28.714  51.521  40.376  1.00  0.00    -0.056 A 
HETATM   32  C   UNL     1      29.110  52.608  41.160  1.00  0.00     0.009 A 
HETATM   33  C   UNL     1      30.433  53.065  41.123  1.00  0.00     0.030 A 
BRANCH  31  34
HETATM   34  C   UNL     1      27.270  51.070  40.360  1.00  0.00     0.068 C 
BRANCH  34  35
HETATM   35  C   UNL     1      27.089  49.630  39.843  1.00  0.00     0.277 C 
BRANCH  35  36
HETATM   36  N   UNL     1      26.912  48.653  40.936  1.00  0.00     0.092 N 
HETATM   37  C   UNL     1      25.917  47.601  40.629  1.00  0.00     0.298 C 
HETATM   38  C   UNL     1      26.393  46.558  39.604  1.00  0.00     0.198 C 
HETATM   39  O   UNL     1      27.620  45.944  40.017  1.00  0.00    -0.388 OA
HETATM   40  C   UNL     1      28.636  46.933  40.231  1.00  0.00     0.198 C 
HETATM   41  C   UNL     1      28.191  47.980  41.266  1.00  0.00     0.298 C 
ENDBRANCH  35  36
ENDBRANCH  34  35
ENDBRANCH  31  34
ENDBRANCH  26  28
ENDBRANCH  22  24
ENDBRANCH  14  18
ENDBRANCH   1   9
TORSDOF 7
ENDMDL
