MODEL 1
REMARK VINA RESULT:      -9.2      0.000      0.000
REMARK  4 active torsions:
REMARK  status: ('A' for Active; 'I' for Inactive)
REMARK    1  A    between atoms: C_5  and  N_6 
REMARK       I    between atoms: N_6  and  C_7 
REMARK    2  A    between atoms: C_7  and  C_8 
REMARK    3  A    between atoms: C_8  and  N_9 
REMARK    4  A    between atoms: C_11  and  C_12 
REMARK       I    between atoms: C_12  and  N_13 
ROOT
HETATM    1  N   UNL     1      27.845  45.772  54.259  1.00  0.00    -0.325 N 
HETATM    2  C   UNL     1      26.478  45.541  54.271  1.00  0.00     0.240 C 
HETATM    3  O   UNL     1      25.910  44.533  54.683  1.00  0.00    -0.271 OA
HETATM    4  H   UNL     1      28.171  46.697  54.015  1.00  0.00     0.169 HD
ENDROOT
BRANCH   2   5
HETATM    5  C   UNL     1      25.659  46.697  53.721  1.00  0.00     0.230 C 
BRANCH   5   6
HETATM    6  N   UNL     1      25.496  46.530  52.255  1.00  0.00    -0.357 N 
HETATM    7  C   UNL     1      26.155  47.366  51.415  1.00  0.00     0.108 A 
HETATM    8  C   UNL     1      26.091  47.188  50.034  1.00  0.00     0.047 A 
HETATM    9  C   UNL     1      25.321  46.150  49.516  1.00  0.00     0.020 A 
HETATM   10  C   UNL     1      24.652  45.301  50.394  1.00  0.00     0.018 A 
HETATM   11  C   UNL     1      24.762  45.502  51.767  1.00  0.00     0.091 A 
BRANCH   8  12
HETATM   12  C   UNL     1      26.845  48.149  49.206  1.00  0.00     0.250 C 
HETATM   13  N   UNL     1      26.263  49.341  48.896  1.00  0.00    -0.366 N 
HETATM   14  H   UNL     1      25.293  49.576  49.056  1.00  0.00     0.159 HD
HETATM   15  H   UNL     1      26.778  49.954  48.271  1.00  0.00     0.159 HD
HETATM   16  O   UNL     1      27.957  47.843  48.799  1.00  0.00    -0.268 OA
ENDBRANCH   8  12
ENDBRANCH   5   6
ENDBRANCH   2   5
BRANCH   1  17
HETATM   17  C   UNL     1      28.875  44.850  54.607  1.00  0.00     0.045 A 
HETATM   18  C   UNL     1      29.550  44.988  55.864  1.00  0.00     0.001 A 
HETATM   19  C   UNL     1      30.602  44.082  56.168  1.00  0.00    -0.024 A 
HETATM   20  C   UNL     1      29.243  45.959  56.858  1.00  0.00     0.014 A 
HETATM   21  C   UNL     1      31.295  44.171  57.385  1.00  0.00     0.012 A 
HETATM   22  C   UNL     1      30.959  43.084  55.256  1.00  0.00     0.012 A 
HETATM   23  C   UNL     1      30.970  45.139  58.330  1.00  0.00     0.001 A 
HETATM   24  C   UNL     1      29.943  46.032  58.068  1.00  0.00     0.001 A 
HETATM   25  C   UNL     1      30.294  42.957  54.044  1.00  0.00     0.003 A 
HETATM   26  C   UNL     1      29.262  43.833  53.722  1.00  0.00     0.030 A 
ENDBRANCH   1  17
TORSDOF 4
ENDMDL
MODEL 2
REMARK VINA RESULT:      -9.0      4.670      6.219
REMARK  4 active torsions:
REMARK  status: ('A' for Active; 'I' for Inactive)
REMARK    1  A    between atoms: C_5  and  N_6 
REMARK       I    between atoms: N_6  and  C_7 
REMARK    2  A    between atoms: C_7  and  C_8 
REMARK    3  A    between atoms: C_8  and  N_9 
REMARK    4  A    between atoms: C_11  and  C_12 
REMARK       I    between atoms: C_12  and  N_13 
ROOT
HETATM    1  N   UNL     1      26.919  43.029  52.918  1.00  0.00    -0.325 N 
HETATM    2  C   UNL     1      27.029  42.852  51.547  1.00  0.00     0.240 C 
HETATM    3  O   UNL     1      27.587  43.606  50.755  1.00  0.00    -0.271 OA
HETATM    4  H   UNL     1      26.550  42.267  53.469  1.00  0.00     0.169 HD
ENDROOT
BRANCH   2   5
HETATM    5  C   UNL     1      26.388  41.569  51.044  1.00  0.00     0.230 C 
BRANCH   5   6
HETATM    6  N   UNL     1      27.343  40.857  50.157  1.00  0.00    -0.357 N 
HETATM    7  C   UNL     1      28.001  39.769  50.629  1.00  0.00     0.108 A 
HETATM    8  C   UNL     1      28.842  39.027  49.801  1.00  0.00     0.047 A 
HETATM    9  C   UNL     1      29.020  39.427  48.479  1.00  0.00     0.020 A 
HETATM   10  C   UNL     1      28.335  40.546  48.012  1.00  0.00     0.018 A 
HETATM   11  C   UNL     1      27.488  41.244  48.868  1.00  0.00     0.091 A 
BRANCH   8  12
HETATM   12  C   UNL     1      29.511  37.861  50.408  1.00  0.00     0.250 C 
HETATM   13  N   UNL     1      28.749  36.803  50.802  1.00  0.00    -0.366 N 
HETATM   14  H   UNL     1      27.740  36.799  50.855  1.00  0.00     0.159 HD
HETATM   15  H   UNL     1      29.229  36.044  51.276  1.00  0.00     0.159 HD
HETATM   16  O   UNL     1      30.724  37.884  50.567  1.00  0.00    -0.268 OA
ENDBRANCH   8  12
ENDBRANCH   5   6
ENDBRANCH   2   5
BRANCH   1  17
HETATM   17  C   UNL     1      27.320  44.171  53.671  1.00  0.00     0.045 A 
HETATM   18  C   UNL     1      28.529  44.118  54.441  1.00  0.00     0.001 A 
HETATM   19  C   UNL     1      28.884  45.254  55.217  1.00  0.00    -0.024 A 
HETATM   20  C   UNL     1      29.428  43.016  54.483  1.00  0.00     0.014 A 
HETATM   21  C   UNL     1      30.058  45.257  55.987  1.00  0.00     0.012 A 
HETATM   22  C   UNL     1      28.068  46.390  55.221  1.00  0.00     0.012 A 
HETATM   23  C   UNL     1      30.909  44.156  56.008  1.00  0.00     0.001 A 
HETATM   24  C   UNL     1      30.595  43.036  55.255  1.00  0.00     0.001 A 
HETATM   25  C   UNL     1      26.903  46.430  54.468  1.00  0.00     0.003 A 
HETATM   26  C   UNL     1      26.532  45.330  53.700  1.00  0.00     0.030 A 
ENDBRANCH   1  17
TORSDOF 4
ENDMDL
MODEL 3
REMARK VINA RESULT:      -8.9      2.495      8.001
REMARK  4 active torsions:
REMARK  status: ('A' for Active; 'I' for Inactive)
REMARK    1  A    between atoms: C_5  and  N_6 
REMARK       I    between atoms: N_6  and  C_7 
REMARK    2  A    between atoms: C_7  and  C_8 
REMARK    3  A    between atoms: C_8  and  N_9 
REMARK    4  A    between atoms: C_11  and  C_12 
REMARK       I    between atoms: C_12  and  N_13 
ROOT
HETATM    1  N   UNL     1      25.579  46.759  50.670  1.00  0.00    -0.325 N 
HETATM    2  C   UNL     1      25.411  46.727  52.045  1.00  0.00     0.240 C 
HETATM    3  O   UNL     1      25.326  47.696  52.795  1.00  0.00    -0.271 OA
HETATM    4  H   UNL     1      25.501  45.890  50.159  1.00  0.00     0.169 HD
ENDROOT
BRANCH   2   5
HETATM    5  C   UNL     1      25.315  45.321  52.616  1.00  0.00     0.230 C 
BRANCH   5   6
HETATM    6  N   UNL     1      26.677  44.827  52.941  1.00  0.00    -0.357 N 
HETATM    7  C   UNL     1      27.306  45.295  54.046  1.00  0.00     0.108 A 
HETATM    8  C   UNL     1      28.550  44.793  54.427  1.00  0.00     0.047 A 
HETATM    9  C   UNL     1      29.157  43.814  53.645  1.00  0.00     0.020 A 
HETATM   10  C   UNL     1      28.495  43.345  52.513  1.00  0.00     0.018 A 
HETATM   11  C   UNL     1      27.244  43.859  52.183  1.00  0.00     0.091 A 
BRANCH   8  12
HETATM   12  C   UNL     1      29.151  45.366  55.646  1.00  0.00     0.250 C 
HETATM   13  N   UNL     1      28.405  46.216  56.405  1.00  0.00    -0.366 N 
HETATM   14  H   UNL     1      27.517  46.613  56.133  1.00  0.00     0.159 HD
HETATM   15  H   UNL     1      28.867  46.646  57.201  1.00  0.00     0.159 HD
HETATM   16  O   UNL     1      30.309  45.088  55.929  1.00  0.00    -0.268 OA
ENDBRANCH   8  12
ENDBRANCH   5   6
ENDBRANCH   2   5
BRANCH   1  17
HETATM   17  C   UNL     1      25.807  47.909  49.859  1.00  0.00     0.045 A 
HETATM   18  C   UNL     1      24.693  48.575  49.251  1.00  0.00     0.001 A 
HETATM   19  C   UNL     1      24.950  49.693  48.413  1.00  0.00    -0.024 A 
HETATM   20  C   UNL     1      23.326  48.219  49.430  1.00  0.00     0.014 A 
HETATM   21  C   UNL     1      23.896  50.384  47.795  1.00  0.00     0.012 A 
HETATM   22  C   UNL     1      26.263  50.125  48.195  1.00  0.00     0.012 A 
HETATM   23  C   UNL     1      22.572  50.000  47.989  1.00  0.00     0.001 A 
HETATM   24  C   UNL     1      22.287  48.919  48.808  1.00  0.00     0.001 A 
HETATM   25  C   UNL     1      27.333  49.474  48.794  1.00  0.00     0.003 A 
HETATM   26  C   UNL     1      27.108  48.376  49.618  1.00  0.00     0.030 A 
ENDBRANCH   1  17
TORSDOF 4
ENDMDL
MODEL 4
REMARK VINA RESULT:      -8.8      4.684      6.218
REMARK  4 active torsions:
REMARK  status: ('A' for Active; 'I' for Inactive)
REMARK    1  A    between atoms: C_5  and  N_6 
REMARK       I    between atoms: N_6  and  C_7 
REMARK    2  A    between atoms: C_7  and  C_8 
REMARK    3  A    between atoms: C_8  and  N_9 
REMARK    4  A    between atoms: C_11  and  C_12 
REMARK       I    between atoms: C_12  and  N_13 
ROOT
HETATM    1  N   UNL     1      27.871  42.527  53.132  1.00  0.00    -0.325 N 
HETATM    2  C   UNL     1      27.680  42.784  51.784  1.00  0.00     0.240 C 
HETATM    3  O   UNL     1      28.197  43.686  51.130  1.00  0.00    -0.271 OA
HETATM    4  H   UNL     1      27.487  41.674  53.515  1.00  0.00     0.169 HD
ENDROOT
BRANCH   2   5
HETATM    5  C   UNL     1      26.737  41.805  51.103  1.00  0.00     0.230 C 
BRANCH   5   6
HETATM    6  N   UNL     1      27.507  40.956  50.159  1.00  0.00    -0.357 N 
HETATM    7  C   UNL     1      28.148  39.857  50.627  1.00  0.00     0.108 A 
HETATM    8  C   UNL     1      28.811  38.991  49.758  1.00  0.00     0.047 A 
HETATM    9  C   UNL     1      28.830  39.278  48.396  1.00  0.00     0.020 A 
HETATM   10  C   UNL     1      28.166  40.411  47.934  1.00  0.00     0.018 A 
HETATM   11  C   UNL     1      27.497  41.234  48.834  1.00  0.00     0.091 A 
BRANCH   8  12
HETATM   12  C   UNL     1      29.476  37.823  50.366  1.00  0.00     0.250 C 
HETATM   13  N   UNL     1      28.709  36.774  50.775  1.00  0.00    -0.366 N 
HETATM   14  H   UNL     1      27.701  36.779  50.838  1.00  0.00     0.159 HD
HETATM   15  H   UNL     1      29.188  36.014  51.248  1.00  0.00     0.159 HD
HETATM   16  O   UNL     1      30.691  37.836  50.512  1.00  0.00    -0.268 OA
ENDBRANCH   8  12
ENDBRANCH   5   6
ENDBRANCH   2   5
BRANCH   1  17
HETATM   17  C   UNL     1      28.606  43.319  54.062  1.00  0.00     0.045 A 
HETATM   18  C   UNL     1      28.109  44.612  54.433  1.00  0.00     0.001 A 
HETATM   19  C   UNL     1      28.882  45.400  55.328  1.00  0.00    -0.024 A 
HETATM   20  C   UNL     1      26.881  45.179  53.990  1.00  0.00     0.014 A 
HETATM   21  C   UNL     1      28.442  46.672  55.727  1.00  0.00     0.012 A 
HETATM   22  C   UNL     1      30.095  44.915  55.829  1.00  0.00     0.012 A 
HETATM   23  C   UNL     1      27.238  47.195  55.266  1.00  0.00     0.001 A 
HETATM   24  C   UNL     1      26.456  46.448  54.398  1.00  0.00     0.001 A 
HETATM   25  C   UNL     1      30.562  43.659  55.465  1.00  0.00     0.003 A 
HETATM   26  C   UNL     1      29.824  42.869  54.589  1.00  0.00     0.030 A 
ENDBRANCH   1  17
TORSDOF 4
ENDMDL
MODEL 5
REMARK VINA RESULT:      -8.6      2.944      8.008
REMARK  4 active torsions:
REMARK  status: ('A' for Active; 'I' for Inactive)
REMARK    1  A    between atoms: C_5  and  N_6 
REMARK       I    between atoms: N_6  and  C_7 
REMARK    2  A    between atoms: C_7  and  C_8 
REMARK    3  A    between atoms: C_8  and  N_9 
REMARK    4  A    between atoms: C_11  and  C_12 
REMARK       I    between atoms: C_12  and  N_13 
ROOT
HETATM    1  N   UNL     1      25.384  46.658  50.581  1.00  0.00    -0.325 N 
HETATM    2  C   UNL     1      25.308  46.550  51.961  1.00  0.00     0.240 C 
HETATM    3  O   UNL     1      25.417  47.464  52.774  1.00  0.00    -0.271 OA
HETATM    4  H   UNL     1      25.145  45.848  50.025  1.00  0.00     0.169 HD
ENDROOT
BRANCH   2   5
HETATM    5  C   UNL     1      25.046  45.135  52.449  1.00  0.00     0.230 C 
BRANCH   5   6
HETATM    6  N   UNL     1      26.340  44.472  52.754  1.00  0.00    -0.357 N 
HETATM    7  C   UNL     1      26.684  43.347  52.079  1.00  0.00     0.108 A 
HETATM    8  C   UNL     1      27.926  42.746  52.279  1.00  0.00     0.047 A 
HETATM    9  C   UNL     1      28.810  43.300  53.201  1.00  0.00     0.020 A 
HETATM   10  C   UNL     1      28.439  44.456  53.884  1.00  0.00     0.018 A 
HETATM   11  C   UNL     1      27.199  45.036  53.636  1.00  0.00     0.091 A 
BRANCH   8  12
HETATM   12  C   UNL     1      28.205  41.527  51.497  1.00  0.00     0.250 C 
HETATM   13  N   UNL     1      28.926  40.528  52.079  1.00  0.00    -0.366 N 
HETATM   14  H   UNL     1      29.421  40.601  52.956  1.00  0.00     0.159 HD
HETATM   15  H   UNL     1      29.158  39.731  51.494  1.00  0.00     0.159 HD
HETATM   16  O   UNL     1      27.809  41.455  50.342  1.00  0.00    -0.268 OA
ENDBRANCH   8  12
ENDBRANCH   5   6
ENDBRANCH   2   5
BRANCH   1  17
HETATM   17  C   UNL     1      25.721  47.821  49.828  1.00  0.00     0.045 A 
HETATM   18  C   UNL     1      24.679  48.581  49.202  1.00  0.00     0.001 A 
HETATM   19  C   UNL     1      25.045  49.711  48.421  1.00  0.00    -0.024 A 
HETATM   20  C   UNL     1      23.286  48.310  49.310  1.00  0.00     0.014 A 
HETATM   21  C   UNL     1      24.066  50.493  47.789  1.00  0.00     0.012 A 
HETATM   22  C   UNL     1      26.391  50.063  48.276  1.00  0.00     0.012 A 
HETATM   23  C   UNL     1      22.713  50.191  47.912  1.00  0.00     0.001 A 
HETATM   24  C   UNL     1      22.323  49.101  48.674  1.00  0.00     0.001 A 
HETATM   25  C   UNL     1      27.390  49.321  48.891  1.00  0.00     0.003 A 
HETATM   26  C   UNL     1      27.058  48.209  49.660  1.00  0.00     0.030 A 
ENDBRANCH   1  17
TORSDOF 4
ENDMDL
MODEL 6
REMARK VINA RESULT:      -8.5      5.352      7.163
REMARK  4 active torsions:
REMARK  status: ('A' for Active; 'I' for Inactive)
REMARK    1  A    between atoms: C_5  and  N_6 
REMARK       I    between atoms: N_6  and  C_7 
REMARK    2  A    between atoms: C_7  and  C_8 
REMARK    3  A    between atoms: C_8  and  N_9 
REMARK    4  A    between atoms: C_11  and  C_12 
REMARK       I    between atoms: C_12  and  N_13 
ROOT
HETATM    1  N   UNL     1      27.528  43.065  50.411  1.00  0.00    -0.325 N 
HETATM    2  C   UNL     1      26.911  41.866  50.092  1.00  0.00     0.240 C 
HETATM    3  O   UNL     1      26.042  41.294  50.744  1.00  0.00    -0.271 OA
HETATM    4  H   UNL     1      28.132  43.490  49.720  1.00  0.00     0.169 HD
ENDROOT
BRANCH   2   5
HETATM    5  C   UNL     1      27.392  41.261  48.783  1.00  0.00     0.230 C 
BRANCH   5   6
HETATM    6  N   UNL     1      27.450  39.783  48.916  1.00  0.00    -0.357 N 
HETATM    7  C   UNL     1      28.443  39.221  49.648  1.00  0.00     0.108 A 
HETATM    8  C   UNL     1      28.481  37.844  49.863  1.00  0.00     0.047 A 
HETATM    9  C   UNL     1      27.496  37.039  49.297  1.00  0.00     0.020 A 
HETATM   10  C   UNL     1      26.483  37.634  48.550  1.00  0.00     0.018 A 
HETATM   11  C   UNL     1      26.471  39.016  48.380  1.00  0.00     0.091 A 
BRANCH   8  12
HETATM   12  C   UNL     1      29.602  37.331  50.674  1.00  0.00     0.250 C 
HETATM   13  N   UNL     1      29.406  36.210  51.423  1.00  0.00    -0.366 N 
HETATM   14  H   UNL     1      28.512  35.773  51.596  1.00  0.00     0.159 HD
HETATM   15  H   UNL     1      30.174  35.919  52.021  1.00  0.00     0.159 HD
HETATM   16  O   UNL     1      30.665  37.937  50.674  1.00  0.00    -0.268 OA
ENDBRANCH   8  12
ENDBRANCH   5   6
ENDBRANCH   2   5
BRANCH   1  17
HETATM   17  C   UNL     1      27.373  43.817  51.612  1.00  0.00     0.045 A 
HETATM   18  C   UNL     1      28.342  43.680  52.660  1.00  0.00     0.001 A 
HETATM   19  C   UNL     1      28.142  44.408  53.864  1.00  0.00    -0.024 A 
HETATM   20  C   UNL     1      29.515  42.877  52.593  1.00  0.00     0.014 A 
HETATM   21  C   UNL     1      29.060  44.312  54.921  1.00  0.00     0.012 A 
HETATM   22  C   UNL     1      27.024  45.237  54.010  1.00  0.00     0.012 A 
HETATM   23  C   UNL     1      30.194  43.510  54.820  1.00  0.00     0.001 A 
HETATM   24  C   UNL     1      30.422  42.794  53.656  1.00  0.00     0.001 A 
HETATM   25  C   UNL     1      26.096  45.365  52.986  1.00  0.00     0.003 A 
HETATM   26  C   UNL     1      26.269  44.661  51.797  1.00  0.00     0.030 A 
ENDBRANCH   1  17
TORSDOF 4
ENDMDL
MODEL 7
REMARK VINA RESULT:      -8.4      2.806      4.337
REMARK  4 active torsions:
REMARK  status: ('A' for Active; 'I' for Inactive)
REMARK    1  A    between atoms: C_5  and  N_6 
REMARK       I    between atoms: N_6  and  C_7 
REMARK    2  A    between atoms: C_7  and  C_8 
REMARK    3  A    between atoms: C_8  and  N_9 
REMARK    4  A    between atoms: C_11  and  C_12 
REMARK       I    between atoms: C_12  and  N_13 
ROOT
HETATM    1  N   UNL     1      26.343  45.726  52.644  1.00  0.00    -0.325 N 
HETATM    2  C   UNL     1      25.190  44.977  52.476  1.00  0.00     0.240 C 
HETATM    3  O   UNL     1      24.698  44.198  53.288  1.00  0.00    -0.271 OA
HETATM    4  H   UNL     1      26.564  46.427  51.949  1.00  0.00     0.169 HD
ENDROOT
BRANCH   2   5
HETATM    5  C   UNL     1      24.506  45.200  51.137  1.00  0.00     0.230 C 
BRANCH   5   6
HETATM    6  N   UNL     1      24.539  43.940  50.351  1.00  0.00    -0.357 N 
HETATM    7  C   UNL     1      25.734  43.365  50.071  1.00  0.00     0.108 A 
HETATM    8  C   UNL     1      25.800  42.140  49.408  1.00  0.00     0.047 A 
HETATM    9  C   UNL     1      24.619  41.517  49.012  1.00  0.00     0.020 A 
HETATM   10  C   UNL     1      23.401  42.123  49.309  1.00  0.00     0.018 A 
HETATM   11  C   UNL     1      23.383  43.335  49.994  1.00  0.00     0.091 A 
BRANCH   8  12
HETATM   12  C   UNL     1      27.147  41.596  49.151  1.00  0.00     0.250 C 
HETATM   13  N   UNL     1      27.811  40.988  50.173  1.00  0.00    -0.366 N 
HETATM   14  H   UNL     1      27.529  41.003  51.143  1.00  0.00     0.159 HD
HETATM   15  H   UNL     1      28.761  40.683  49.984  1.00  0.00     0.159 HD
HETATM   16  O   UNL     1      27.642  41.728  48.040  1.00  0.00    -0.268 OA
ENDBRANCH   8  12
ENDBRANCH   5   6
ENDBRANCH   2   5
BRANCH   1  17
HETATM   17  C   UNL     1      27.258  45.662  53.736  1.00  0.00     0.045 A 
HETATM   18  C   UNL     1      28.286  44.662  53.736  1.00  0.00     0.001 A 
HETATM   19  C   UNL     1      29.158  44.591  54.856  1.00  0.00    -0.024 A 
HETATM   20  C   UNL     1      28.524  43.730  52.687  1.00  0.00     0.014 A 
HETATM   21  C   UNL     1      30.183  43.633  54.907  1.00  0.00     0.012 A 
HETATM   22  C   UNL     1      29.008  45.481  55.925  1.00  0.00     0.012 A 
HETATM   23  C   UNL     1      30.380  42.733  53.863  1.00  0.00     0.001 A 
HETATM   24  C   UNL     1      29.552  42.782  52.753  1.00  0.00     0.001 A 
HETATM   25  C   UNL     1      28.011  46.447  55.911  1.00  0.00     0.003 A 
HETATM   26  C   UNL     1      27.144  46.537  54.826  1.00  0.00     0.030 A 
ENDBRANCH   1  17
TORSDOF 4
ENDMDL
MODEL 8
REMARK VINA RESULT:      -8.3      3.489      5.011
REMARK  4 active torsions:
REMARK  status: ('A' for Active; 'I' for Inactive)
REMARK    1  A    between atoms: C_5  and  N_6 
REMARK       I    between atoms: N_6  and  C_7 
REMARK    2  A    between atoms: C_7  and  C_8 
REMARK    3  A    between atoms: C_8  and  N_9 
REMARK    4  A    between atoms: C_11  and  C_12 
REMARK       I    between atoms: C_12  and  N_13 
ROOT
HETATM    1  N   UNL     1      26.124  44.336  53.209  1.00  0.00    -0.325 N 
HETATM    2  C   UNL     1      25.899  44.424  51.845  1.00  0.00     0.240 C 
HETATM    3  O   UNL     1      26.501  45.138  51.048  1.00  0.00    -0.271 OA
HETATM    4  H   UNL     1      25.646  43.612  53.727  1.00  0.00     0.169 HD
ENDROOT
BRANCH   2   5
HETATM    5  C   UNL     1      24.792  43.508  51.349  1.00  0.00     0.230 C 
BRANCH   5   6
HETATM    6  N   UNL     1      25.386  42.403  50.554  1.00  0.00    -0.357 N 
HETATM    7  C   UNL     1      26.552  41.846  50.963  1.00  0.00     0.108 A 
HETATM    8  C   UNL     1      27.097  40.753  50.289  1.00  0.00     0.047 A 
HETATM    9  C   UNL     1      26.440  40.248  49.170  1.00  0.00     0.020 A 
HETATM   10  C   UNL     1      25.243  40.833  48.766  1.00  0.00     0.018 A 
HETATM   11  C   UNL     1      24.724  41.908  49.482  1.00  0.00     0.091 A 
BRANCH   8  12
HETATM   12  C   UNL     1      28.368  40.218  50.813  1.00  0.00     0.250 C 
HETATM   13  N   UNL     1      29.083  39.357  50.037  1.00  0.00    -0.366 N 
HETATM   14  H   UNL     1      28.752  38.928  49.184  1.00  0.00     0.159 HD
HETATM   15  H   UNL     1      29.919  38.955  50.450  1.00  0.00     0.159 HD
HETATM   16  O   UNL     1      28.732  40.537  51.937  1.00  0.00    -0.268 OA
ENDBRANCH   8  12
ENDBRANCH   5   6
ENDBRANCH   2   5
BRANCH   1  17
HETATM   17  C   UNL     1      27.013  45.136  53.986  1.00  0.00     0.045 A 
HETATM   18  C   UNL     1      28.226  44.558  54.487  1.00  0.00     0.001 A 
HETATM   19  C   UNL     1      29.074  45.364  55.294  1.00  0.00    -0.024 A 
HETATM   20  C   UNL     1      28.671  43.232  54.228  1.00  0.00     0.014 A 
HETATM   21  C   UNL     1      30.275  44.850  55.808  1.00  0.00     0.012 A 
HETATM   22  C   UNL     1      28.724  46.687  55.584  1.00  0.00     0.012 A 
HETATM   23  C   UNL     1      30.673  43.543  55.538  1.00  0.00     0.001 A 
HETATM   24  C   UNL     1      29.872  42.735  54.747  1.00  0.00     0.001 A 
HETATM   25  C   UNL     1      27.549  47.236  55.089  1.00  0.00     0.003 A 
HETATM   26  C   UNL     1      26.701  46.467  54.298  1.00  0.00     0.030 A 
ENDBRANCH   1  17
TORSDOF 4
ENDMDL
MODEL 9
REMARK VINA RESULT:      -8.3      3.046      4.232
REMARK  4 active torsions:
REMARK  status: ('A' for Active; 'I' for Inactive)
REMARK    1  A    between atoms: C_5  and  N_6 
REMARK       I    between atoms: N_6  and  C_7 
REMARK    2  A    between atoms: C_7  and  C_8 
REMARK    3  A    between atoms: C_8  and  N_9 
REMARK    4  A    between atoms: C_11  and  C_12 
REMARK       I    between atoms: C_12  and  N_13 
ROOT
HETATM    1  N   UNL     1      29.158  43.146  53.417  1.00  0.00    -0.325 N 
HETATM    2  C   UNL     1      28.387  41.995  53.399  1.00  0.00     0.240 C 
HETATM    3  O   UNL     1      27.418  41.752  54.113  1.00  0.00    -0.271 OA
HETATM    4  H   UNL     1      29.845  43.273  52.687  1.00  0.00     0.169 HD
ENDROOT
BRANCH   2   5
HETATM    5  C   UNL     1      28.830  40.980  52.358  1.00  0.00     0.230 C 
BRANCH   5   6
HETATM    6  N   UNL     1      28.071  41.201  51.101  1.00  0.00    -0.357 N 
HETATM    7  C   UNL     1      27.126  42.173  51.059  1.00  0.00     0.108 A 
HETATM    8  C   UNL     1      26.453  42.464  49.873  1.00  0.00     0.047 A 
HETATM    9  C   UNL     1      26.744  41.729  48.727  1.00  0.00     0.020 A 
HETATM   10  C   UNL     1      27.719  40.737  48.789  1.00  0.00     0.018 A 
HETATM   11  C   UNL     1      28.382  40.495  49.989  1.00  0.00     0.091 A 
BRANCH   8  12
HETATM   12  C   UNL     1      25.444  43.539  49.931  1.00  0.00     0.250 C 
HETATM   13  N   UNL     1      25.294  44.352  48.849  1.00  0.00    -0.366 N 
HETATM   14  H   UNL     1      25.916  44.386  48.053  1.00  0.00     0.159 HD
HETATM   15  H   UNL     1      24.639  45.123  48.943  1.00  0.00     0.159 HD
HETATM   16  O   UNL     1      24.790  43.690  50.954  1.00  0.00    -0.268 OA
ENDBRANCH   8  12
ENDBRANCH   5   6
ENDBRANCH   2   5
BRANCH   1  17
HETATM   17  C   UNL     1      29.063  44.228  54.341  1.00  0.00     0.045 A 
HETATM   18  C   UNL     1      29.892  44.231  55.511  1.00  0.00     0.001 A 
HETATM   19  C   UNL     1      29.748  45.299  56.437  1.00  0.00    -0.024 A 
HETATM   20  C   UNL     1      30.875  43.251  55.823  1.00  0.00     0.014 A 
HETATM   21  C   UNL     1      30.536  45.353  57.598  1.00  0.00     0.012 A 
HETATM   22  C   UNL     1      28.818  46.317  56.201  1.00  0.00     0.012 A 
HETATM   23  C   UNL     1      31.483  44.370  57.871  1.00  0.00     0.001 A 
HETATM   24  C   UNL     1      31.654  43.320  56.983  1.00  0.00     0.001 A 
HETATM   25  C   UNL     1      28.025  46.306  55.063  1.00  0.00     0.003 A 
HETATM   26  C   UNL     1      28.146  45.270  54.141  1.00  0.00     0.030 A 
ENDBRANCH   1  17
TORSDOF 4
ENDMDL
MODEL 10
REMARK VINA RESULT:      -8.3      2.295      3.274
REMARK  4 active torsions:
REMARK  status: ('A' for Active; 'I' for Inactive)
REMARK    1  A    between atoms: C_5  and  N_6 
REMARK       I    between atoms: N_6  and  C_7 
REMARK    2  A    between atoms: C_7  and  C_8 
REMARK    3  A    between atoms: C_8  and  N_9 
REMARK    4  A    between atoms: C_11  and  C_12 
REMARK       I    between atoms: C_12  and  N_13 
ROOT
HETATM    1  N   UNL     1      26.488  42.893  52.831  1.00  0.00    -0.325 N 
HETATM    2  C   UNL     1      26.393  42.898  51.449  1.00  0.00     0.240 C 
HETATM    3  O   UNL     1      27.292  43.156  50.654  1.00  0.00    -0.271 OA
HETATM    4  H   UNL     1      25.707  42.534  53.363  1.00  0.00     0.169 HD
ENDROOT
BRANCH   2   5
HETATM    5  C   UNL     1      25.014  42.524  50.931  1.00  0.00     0.230 C 
BRANCH   5   6
HETATM    6  N   UNL     1      24.394  43.706  50.280  1.00  0.00    -0.357 N 
HETATM    7  C   UNL     1      24.825  44.948  50.613  1.00  0.00     0.108 A 
HETATM    8  C   UNL     1      24.326  46.076  49.963  1.00  0.00     0.047 A 
HETATM    9  C   UNL     1      23.355  45.919  48.977  1.00  0.00     0.020 A 
HETATM   10  C   UNL     1      22.926  44.636  48.648  1.00  0.00     0.018 A 
HETATM   11  C   UNL     1      23.469  43.536  49.307  1.00  0.00     0.091 A 
BRANCH   8  12
HETATM   12  C   UNL     1      24.859  47.381  50.396  1.00  0.00     0.250 C 
HETATM   13  N   UNL     1      25.279  48.263  49.446  1.00  0.00    -0.366 N 
HETATM   14  H   UNL     1      25.399  48.050  48.466  1.00  0.00     0.159 HD
HETATM   15  H   UNL     1      25.702  49.125  49.777  1.00  0.00     0.159 HD
HETATM   16  O   UNL     1      24.937  47.627  51.592  1.00  0.00    -0.268 OA
ENDBRANCH   8  12
ENDBRANCH   5   6
ENDBRANCH   2   5
BRANCH   1  17
HETATM   17  C   UNL     1      27.608  43.299  53.616  1.00  0.00     0.045 A 
HETATM   18  C   UNL     1      27.674  44.645  54.106  1.00  0.00     0.001 A 
HETATM   19  C   UNL     1      28.820  45.036  54.849  1.00  0.00    -0.024 A 
HETATM   20  C   UNL     1      26.668  45.635  53.925  1.00  0.00     0.014 A 
HETATM   21  C   UNL     1      28.936  46.341  55.355  1.00  0.00     0.012 A 
HETATM   22  C   UNL     1      29.851  44.122  55.092  1.00  0.00     0.012 A 
HETATM   23  C   UNL     1      27.933  47.284  55.150  1.00  0.00     0.001 A 
HETATM   24  C   UNL     1      26.798  46.931  54.437  1.00  0.00     0.001 A 
HETATM   25  C   UNL     1      29.772  42.820  54.616  1.00  0.00     0.003 A 
HETATM   26  C   UNL     1      28.661  42.412  53.884  1.00  0.00     0.030 A 
ENDBRANCH   1  17
TORSDOF 4
ENDMDL
