MODEL 1
REMARK VINA RESULT:      -9.6      0.000      0.000
REMARK  8 active torsions:
REMARK  status: ('A' for Active; 'I' for Inactive)
REMARK    1  A    between atoms: C_2  and  O_3 
REMARK    2  A    between atoms: O_3  and  C_4 
REMARK    3  A    between atoms: C_5  and  C_6 
REMARK    4  A    between atoms: C_6  and  N_7 
REMARK    5  A    between atoms: C_23  and  C_24 
REMARK    6  A    between atoms: N_25  and  N_26 
REMARK       I    between atoms: N_26  and  C_27 
REMARK    7  A    between atoms: C_27  and  C_28 
REMARK    8  A    between atoms: C_32  and  C_33 
ROOT
HETATM    1  C   UNL     1      21.804  49.799  48.164  1.00  0.00     0.076 A 
HETATM    2  C   UNL     1      21.529  48.517  48.683  1.00  0.00     0.002 A 
HETATM    3  C   UNL     1      22.591  47.784  49.227  1.00  0.00     0.024 A 
HETATM    4  C   UNL     1      23.879  48.328  49.325  1.00  0.00    -0.016 A 
HETATM    5  C   UNL     1      24.143  49.593  48.816  1.00  0.00     0.016 A 
HETATM    6  C   UNL     1      23.103  50.323  48.227  1.00  0.00     0.038 A 
ENDROOT
BRANCH   2   7
HETATM    7  C   UNL     1      20.127  47.956  48.584  1.00  0.00     0.276 C 
BRANCH   7   8
HETATM    8  N   UNL     1      19.957  46.632  47.835  1.00  0.00    -0.066 N 
HETATM    9  H   UNL     1      20.676  46.038  48.263  1.00  0.00     0.280 HD
HETATM   10  C   UNL     1      18.646  45.899  48.085  1.00  0.00     0.246 C 
HETATM   11  C   UNL     1      17.555  46.196  47.039  1.00  0.00     0.062 C 
HETATM   12  C   UNL     1      18.096  45.937  45.640  1.00  0.00     0.020 C 
HETATM   13  C   UNL     1      17.031  47.611  47.163  1.00  0.00     0.020 A 
HETATM   14  C   UNL     1      19.226  46.924  45.400  1.00  0.00     0.031 C 
HETATM   15  C   UNL     1      18.674  48.352  45.428  1.00  0.00     0.138 C 
HETATM   16  C   UNL     1      20.373  46.690  46.387  1.00  0.00     0.241 C 
HETATM   17  N   UNL     1      17.647  48.629  46.431  1.00  0.00    -0.317 N 
HETATM   18  C   UNL     1      17.237  49.968  46.523  1.00  0.00     0.247 A 
HETATM   19  O   UNL     1      17.772  50.890  45.915  1.00  0.00    -0.268 OA
HETATM   20  C   UNL     1      16.100  50.249  47.432  1.00  0.00     0.074 A 
HETATM   21  C   UNL     1      15.521  49.252  48.107  1.00  0.00     0.007 A 
HETATM   22  C   UNL     1      15.997  47.901  47.972  1.00  0.00     0.026 A 
ENDBRANCH   7   8
ENDBRANCH   2   7
BRANCH   1  23
HETATM   23  O   UNL     1      20.726  50.439  47.613  1.00  0.00    -0.351 OA
BRANCH  23  24
HETATM   24  C   UNL     1      20.346  51.703  48.162  1.00  0.00     0.171 C 
HETATM   25  C   UNL     1      19.340  51.441  49.269  1.00  0.00     0.034 C 
ENDBRANCH  23  24
ENDBRANCH   1  23
BRANCH   4  26
HETATM   26  C   UNL     1      24.923  47.545  50.020  1.00  0.00     0.150 C 
HETATM   27  N   UNL     1      24.899  47.510  51.312  1.00  0.00    -0.184 NA
BRANCH  27  28
HETATM   28  N   UNL     1      25.871  46.807  51.938  1.00  0.00    -0.242 N 
HETATM   29  C   UNL     1      26.101  47.009  53.292  1.00  0.00     0.292 C 
HETATM   30  O   UNL     1      25.476  47.804  53.994  1.00  0.00    -0.264 OA
HETATM   31  H   UNL     1      26.459  46.128  51.455  1.00  0.00     0.192 HD
BRANCH  29  32
HETATM   32  C   UNL     1      27.187  46.167  53.812  1.00  0.00     0.148 A 
HETATM   33  N   UNL     1      27.987  46.566  54.819  1.00  0.00    -0.169 NA
HETATM   34  N   UNL     1      28.827  45.529  54.998  1.00  0.00    -0.281 N 
HETATM   35  H   UNL     1      29.528  45.600  55.730  1.00  0.00     0.189 HD
HETATM   36  C   UNL     1      28.617  44.482  54.136  1.00  0.00     0.038 A 
HETATM   37  C   UNL     1      27.543  44.871  53.365  1.00  0.00     0.066 A 
BRANCH  36  38
HETATM   38  C   UNL     1      29.438  43.208  54.162  1.00  0.00    -0.007 C 
HETATM   39  C   UNL     1      30.384  43.238  55.376  1.00  0.00     0.021 C 
HETATM   40  C   UNL     1      28.522  41.973  54.280  1.00  0.00     0.021 C 
HETATM   41  C   UNL     1      30.270  43.058  52.873  1.00  0.00     0.021 C 
ENDBRANCH  36  38
ENDBRANCH  29  32
ENDBRANCH  27  28
ENDBRANCH   4  26
TORSDOF 8
ENDMDL
MODEL 2
REMARK VINA RESULT:      -9.2      1.508      2.807
REMARK  8 active torsions:
REMARK  status: ('A' for Active; 'I' for Inactive)
REMARK    1  A    between atoms: C_2  and  O_3 
REMARK    2  A    between atoms: O_3  and  C_4 
REMARK    3  A    between atoms: C_5  and  C_6 
REMARK    4  A    between atoms: C_6  and  N_7 
REMARK    5  A    between atoms: C_23  and  C_24 
REMARK    6  A    between atoms: N_25  and  N_26 
REMARK       I    between atoms: N_26  and  C_27 
REMARK    7  A    between atoms: C_27  and  C_28 
REMARK    8  A    between atoms: C_32  and  C_33 
ROOT
HETATM    1  C   UNL     1      21.564  50.060  48.235  1.00  0.00     0.076 A 
HETATM    2  C   UNL     1      21.371  48.665  48.303  1.00  0.00     0.002 A 
HETATM    3  C   UNL     1      22.398  47.882  48.845  1.00  0.00     0.024 A 
HETATM    4  C   UNL     1      23.558  48.463  49.374  1.00  0.00    -0.016 A 
HETATM    5  C   UNL     1      23.741  49.839  49.309  1.00  0.00     0.016 A 
HETATM    6  C   UNL     1      22.745  50.634  48.730  1.00  0.00     0.038 A 
ENDROOT
BRANCH   2   7
HETATM    7  C   UNL     1      20.102  48.059  47.743  1.00  0.00     0.276 C 
BRANCH   7   8
HETATM    8  N   UNL     1      18.783  48.752  48.096  1.00  0.00    -0.066 N 
HETATM    9  H   UNL     1      19.098  49.640  48.503  1.00  0.00     0.280 HD
HETATM   10  C   UNL     1      17.913  49.152  46.913  1.00  0.00     0.246 C 
HETATM   11  C   UNL     1      16.834  48.114  46.552  1.00  0.00     0.062 C 
HETATM   12  C   UNL     1      16.004  47.780  47.784  1.00  0.00     0.020 C 
HETATM   13  C   UNL     1      17.439  46.862  45.953  1.00  0.00     0.020 A 
HETATM   14  C   UNL     1      16.932  47.127  48.794  1.00  0.00     0.031 C 
HETATM   15  C   UNL     1      17.467  45.811  48.223  1.00  0.00     0.138 C 
HETATM   16  C   UNL     1      18.033  48.099  49.230  1.00  0.00     0.241 C 
HETATM   17  N   UNL     1      17.800  45.811  46.800  1.00  0.00    -0.317 N 
HETATM   18  C   UNL     1      18.398  44.637  46.319  1.00  0.00     0.247 A 
HETATM   19  O   UNL     1      18.751  43.706  47.037  1.00  0.00    -0.268 OA
HETATM   20  C   UNL     1      18.617  44.559  44.854  1.00  0.00     0.074 A 
HETATM   21  C   UNL     1      18.246  45.574  44.068  1.00  0.00     0.007 A 
HETATM   22  C   UNL     1      17.645  46.755  44.629  1.00  0.00     0.026 A 
ENDBRANCH   7   8
ENDBRANCH   2   7
BRANCH   1  23
HETATM   23  O   UNL     1      20.536  50.756  47.659  1.00  0.00    -0.351 OA
BRANCH  23  24
HETATM   24  C   UNL     1      20.224  52.048  48.185  1.00  0.00     0.171 C 
HETATM   25  C   UNL     1      19.134  51.871  49.228  1.00  0.00     0.034 C 
ENDBRANCH  23  24
ENDBRANCH   1  23
BRANCH   4  26
HETATM   26  C   UNL     1      24.544  47.586  50.039  1.00  0.00     0.150 C 
HETATM   27  N   UNL     1      24.690  47.692  51.318  1.00  0.00    -0.184 NA
BRANCH  27  28
HETATM   28  N   UNL     1      25.610  46.898  51.912  1.00  0.00    -0.242 N 
HETATM   29  C   UNL     1      25.915  47.085  53.254  1.00  0.00     0.292 C 
HETATM   30  O   UNL     1      25.404  47.944  53.971  1.00  0.00    -0.264 OA
HETATM   31  H   UNL     1      26.106  46.159  51.414  1.00  0.00     0.192 HD
BRANCH  29  32
HETATM   32  C   UNL     1      26.930  46.140  53.739  1.00  0.00     0.148 A 
HETATM   33  N   UNL     1      27.648  46.367  54.856  1.00  0.00    -0.169 NA
HETATM   34  N   UNL     1      28.444  45.284  54.957  1.00  0.00    -0.281 N 
HETATM   35  H   UNL     1      29.079  45.229  55.748  1.00  0.00     0.189 HD
HETATM   36  C   UNL     1      28.285  44.375  53.942  1.00  0.00     0.038 A 
HETATM   37  C   UNL     1      27.293  44.907  53.145  1.00  0.00     0.066 A 
BRANCH  36  38
HETATM   38  C   UNL     1      29.070  43.082  53.856  1.00  0.00    -0.007 C 
HETATM   39  C   UNL     1      28.092  41.895  53.841  1.00  0.00     0.021 C 
HETATM   40  C   UNL     1      29.915  43.043  52.567  1.00  0.00     0.021 C 
HETATM   41  C   UNL     1      30.029  42.935  55.054  1.00  0.00     0.021 C 
ENDBRANCH  36  38
ENDBRANCH  29  32
ENDBRANCH  27  28
ENDBRANCH   4  26
TORSDOF 8
ENDMDL
MODEL 3
REMARK VINA RESULT:      -9.2      1.712      3.253
REMARK  8 active torsions:
REMARK  status: ('A' for Active; 'I' for Inactive)
REMARK    1  A    between atoms: C_2  and  O_3 
REMARK    2  A    between atoms: O_3  and  C_4 
REMARK    3  A    between atoms: C_5  and  C_6 
REMARK    4  A    between atoms: C_6  and  N_7 
REMARK    5  A    between atoms: C_23  and  C_24 
REMARK    6  A    between atoms: N_25  and  N_26 
REMARK       I    between atoms: N_26  and  C_27 
REMARK    7  A    between atoms: C_27  and  C_28 
REMARK    8  A    between atoms: C_32  and  C_33 
ROOT
HETATM    1  C   UNL     1      20.498  50.808  48.588  1.00  0.00     0.076 A 
HETATM    2  C   UNL     1      20.091  49.463  48.699  1.00  0.00     0.002 A 
HETATM    3  C   UNL     1      21.080  48.486  48.869  1.00  0.00     0.024 A 
HETATM    4  C   UNL     1      22.432  48.830  49.000  1.00  0.00    -0.016 A 
HETATM    5  C   UNL     1      22.827  50.157  48.894  1.00  0.00     0.016 A 
HETATM    6  C   UNL     1      21.858  51.144  48.678  1.00  0.00     0.038 A 
ENDROOT
BRANCH   2   7
HETATM    7  C   UNL     1      18.623  49.115  48.574  1.00  0.00     0.276 C 
BRANCH   7   8
HETATM    8  N   UNL     1      17.925  49.498  47.267  1.00  0.00    -0.066 N 
HETATM    9  H   UNL     1      17.695  50.487  47.417  1.00  0.00     0.280 HD
HETATM   10  C   UNL     1      18.804  49.487  46.024  1.00  0.00     0.246 C 
HETATM   11  C   UNL     1      18.744  48.169  45.229  1.00  0.00     0.062 C 
HETATM   12  C   UNL     1      17.297  47.823  44.907  1.00  0.00     0.020 C 
HETATM   13  C   UNL     1      19.417  47.035  45.973  1.00  0.00     0.020 A 
HETATM   14  C   UNL     1      16.583  47.582  46.227  1.00  0.00     0.031 C 
HETATM   15  C   UNL     1      17.204  46.373  46.932  1.00  0.00     0.138 C 
HETATM   16  C   UNL     1      16.574  48.853  47.082  1.00  0.00     0.241 C 
HETATM   17  N   UNL     1      18.657  46.246  46.840  1.00  0.00    -0.317 N 
HETATM   18  C   UNL     1      19.221  45.201  47.588  1.00  0.00     0.247 A 
HETATM   19  O   UNL     1      18.588  44.506  48.377  1.00  0.00    -0.268 OA
HETATM   20  C   UNL     1      20.674  44.965  47.401  1.00  0.00     0.074 A 
HETATM   21  C   UNL     1      21.371  45.726  46.552  1.00  0.00     0.007 A 
HETATM   22  C   UNL     1      20.730  46.787  45.822  1.00  0.00     0.026 A 
ENDBRANCH   7   8
ENDBRANCH   2   7
BRANCH   1  23
HETATM   23  O   UNL     1      19.482  51.702  48.383  1.00  0.00    -0.351 OA
BRANCH  23  24
HETATM   24  C   UNL     1      18.920  52.349  49.528  1.00  0.00     0.171 C 
HETATM   25  C   UNL     1      17.434  52.526  49.274  1.00  0.00     0.034 C 
ENDBRANCH  23  24
ENDBRANCH   1  23
BRANCH   4  26
HETATM   26  C   UNL     1      23.405  47.758  49.299  1.00  0.00     0.150 C 
HETATM   27  N   UNL     1      24.138  47.877  50.356  1.00  0.00    -0.184 NA
BRANCH  27  28
HETATM   28  N   UNL     1      25.039  46.900  50.609  1.00  0.00    -0.242 N 
HETATM   29  C   UNL     1      25.560  46.760  51.888  1.00  0.00     0.292 C 
HETATM   30  O   UNL     1      25.263  47.476  52.844  1.00  0.00    -0.264 OA
HETATM   31  H   UNL     1      25.367  46.253  49.892  1.00  0.00     0.192 HD
BRANCH  29  32
HETATM   32  C   UNL     1      26.520  45.653  51.988  1.00  0.00     0.148 A 
HETATM   33  N   UNL     1      26.975  44.996  50.902  1.00  0.00    -0.169 NA
HETATM   34  N   UNL     1      27.823  44.080  51.409  1.00  0.00    -0.281 N 
HETATM   35  H   UNL     1      28.305  43.463  50.762  1.00  0.00     0.189 HD
HETATM   36  C   UNL     1      27.922  44.103  52.778  1.00  0.00     0.038 A 
HETATM   37  C   UNL     1      27.091  45.131  53.173  1.00  0.00     0.066 A 
BRANCH  36  38
HETATM   38  C   UNL     1      28.822  43.168  53.560  1.00  0.00    -0.007 C 
HETATM   39  C   UNL     1      28.123  41.807  53.720  1.00  0.00     0.021 C 
HETATM   40  C   UNL     1      30.158  42.954  52.821  1.00  0.00     0.021 C 
HETATM   41  C   UNL     1      29.141  43.743  54.954  1.00  0.00     0.021 C 
ENDBRANCH  36  38
ENDBRANCH  29  32
ENDBRANCH  27  28
ENDBRANCH   4  26
TORSDOF 8
ENDMDL
MODEL 4
REMARK VINA RESULT:      -9.1      3.843     10.962
REMARK  8 active torsions:
REMARK  status: ('A' for Active; 'I' for Inactive)
REMARK    1  A    between atoms: C_2  and  O_3 
REMARK    2  A    between atoms: O_3  and  C_4 
REMARK    3  A    between atoms: C_5  and  C_6 
REMARK    4  A    between atoms: C_6  and  N_7 
REMARK    5  A    between atoms: C_23  and  C_24 
REMARK    6  A    between atoms: N_25  and  N_26 
REMARK       I    between atoms: N_26  and  C_27 
REMARK    7  A    between atoms: C_27  and  C_28 
REMARK    8  A    between atoms: C_32  and  C_33 
ROOT
HETATM    1  C   UNL     1      25.719  40.525  49.175  1.00  0.00     0.076 A 
HETATM    2  C   UNL     1      25.701  41.447  50.241  1.00  0.00     0.002 A 
HETATM    3  C   UNL     1      25.054  42.673  50.044  1.00  0.00     0.024 A 
HETATM    4  C   UNL     1      24.377  42.957  48.850  1.00  0.00    -0.016 A 
HETATM    5  C   UNL     1      24.395  42.044  47.804  1.00  0.00     0.016 A 
HETATM    6  C   UNL     1      25.075  40.831  47.967  1.00  0.00     0.038 A 
ENDROOT
BRANCH   2   7
HETATM    7  C   UNL     1      26.422  41.112  51.530  1.00  0.00     0.276 C 
BRANCH   7   8
HETATM    8  N   UNL     1      27.947  41.247  51.531  1.00  0.00    -0.066 N 
HETATM    9  H   UNL     1      28.239  40.501  50.889  1.00  0.00     0.280 HD
HETATM   10  C   UNL     1      28.493  42.528  50.914  1.00  0.00     0.246 C 
HETATM   11  C   UNL     1      28.771  43.645  51.937  1.00  0.00     0.062 C 
HETATM   12  C   UNL     1      29.669  43.118  53.047  1.00  0.00     0.020 C 
HETATM   13  C   UNL     1      27.489  44.216  52.505  1.00  0.00     0.020 A 
HETATM   14  C   UNL     1      28.900  42.027  53.774  1.00  0.00     0.031 C 
HETATM   15  C   UNL     1      27.654  42.628  54.430  1.00  0.00     0.138 C 
HETATM   16  C   UNL     1      28.596  40.857  52.835  1.00  0.00     0.241 C 
HETATM   17  N   UNL     1      26.945  43.648  53.660  1.00  0.00    -0.317 N 
HETATM   18  C   UNL     1      25.743  44.103  54.220  1.00  0.00     0.247 A 
HETATM   19  O   UNL     1      25.225  43.610  55.218  1.00  0.00    -0.268 OA
HETATM   20  C   UNL     1      25.078  45.234  53.530  1.00  0.00     0.074 A 
HETATM   21  C   UNL     1      25.630  45.768  52.436  1.00  0.00     0.007 A 
HETATM   22  C   UNL     1      26.863  45.246  51.908  1.00  0.00     0.026 A 
ENDBRANCH   7   8
ENDBRANCH   2   7
BRANCH   1  23
HETATM   23  O   UNL     1      26.404  39.366  49.427  1.00  0.00    -0.351 OA
BRANCH  23  24
HETATM   24  C   UNL     1      27.484  39.024  48.556  1.00  0.00     0.171 C 
HETATM   25  C   UNL     1      28.563  38.365  49.396  1.00  0.00     0.034 C 
ENDBRANCH  23  24
ENDBRANCH   1  23
BRANCH   4  26
HETATM   26  C   UNL     1      23.614  44.220  48.757  1.00  0.00     0.150 C 
HETATM   27  N   UNL     1      23.876  45.154  49.610  1.00  0.00    -0.184 NA
BRANCH  27  28
HETATM   28  N   UNL     1      23.158  46.298  49.528  1.00  0.00    -0.242 N 
HETATM   29  C   UNL     1      23.815  47.518  49.456  1.00  0.00     0.292 C 
HETATM   30  O   UNL     1      25.039  47.652  49.464  1.00  0.00    -0.264 OA
HETATM   31  H   UNL     1      22.138  46.310  49.523  1.00  0.00     0.192 HD
BRANCH  29  32
HETATM   32  C   UNL     1      22.888  48.655  49.370  1.00  0.00     0.148 A 
HETATM   33  N   UNL     1      23.282  49.923  49.599  1.00  0.00    -0.169 NA
HETATM   34  N   UNL     1      22.163  50.649  49.416  1.00  0.00    -0.281 N 
HETATM   35  H   UNL     1      22.222  51.657  49.527  1.00  0.00     0.189 HD
HETATM   36  C   UNL     1      21.055  49.903  49.098  1.00  0.00     0.038 A 
HETATM   37  C   UNL     1      21.510  48.602  49.049  1.00  0.00     0.066 A 
BRANCH  36  38
HETATM   38  C   UNL     1      19.692  50.511  48.841  1.00  0.00    -0.007 C 
HETATM   39  C   UNL     1      19.851  52.014  48.554  1.00  0.00     0.021 C 
HETATM   40  C   UNL     1      19.020  49.844  47.624  1.00  0.00     0.021 C 
HETATM   41  C   UNL     1      18.762  50.321  50.055  1.00  0.00     0.021 C 
ENDBRANCH  36  38
ENDBRANCH  29  32
ENDBRANCH  27  28
ENDBRANCH   4  26
TORSDOF 8
ENDMDL
MODEL 5
REMARK VINA RESULT:      -8.9      2.380      3.487
REMARK  8 active torsions:
REMARK  status: ('A' for Active; 'I' for Inactive)
REMARK    1  A    between atoms: C_2  and  O_3 
REMARK    2  A    between atoms: O_3  and  C_4 
REMARK    3  A    between atoms: C_5  and  C_6 
REMARK    4  A    between atoms: C_6  and  N_7 
REMARK    5  A    between atoms: C_23  and  C_24 
REMARK    6  A    between atoms: N_25  and  N_26 
REMARK       I    between atoms: N_26  and  C_27 
REMARK    7  A    between atoms: C_27  and  C_28 
REMARK    8  A    between atoms: C_32  and  C_33 
ROOT
HETATM    1  C   UNL     1      21.067  50.376  48.138  1.00  0.00     0.076 A 
HETATM    2  C   UNL     1      20.894  48.985  47.986  1.00  0.00     0.002 A 
HETATM    3  C   UNL     1      21.911  48.139  48.446  1.00  0.00     0.024 A 
HETATM    4  C   UNL     1      23.038  48.645  49.106  1.00  0.00    -0.016 A 
HETATM    5  C   UNL     1      23.201  50.016  49.257  1.00  0.00     0.016 A 
HETATM    6  C   UNL     1      22.217  50.880  48.764  1.00  0.00     0.038 A 
ENDROOT
BRANCH   2   7
HETATM    7  C   UNL     1      19.659  48.458  47.286  1.00  0.00     0.276 C 
BRANCH   7   8
HETATM    8  N   UNL     1      18.318  49.089  47.670  1.00  0.00    -0.066 N 
HETATM    9  H   UNL     1      18.586  50.045  47.931  1.00  0.00     0.280 HD
HETATM   10  C   UNL     1      17.323  49.261  46.530  1.00  0.00     0.246 C 
HETATM   11  C   UNL     1      16.313  48.105  46.404  1.00  0.00     0.062 C 
HETATM   12  C   UNL     1      15.618  47.876  47.738  1.00  0.00     0.020 C 
HETATM   13  C   UNL     1      16.975  46.834  45.914  1.00  0.00     0.020 A 
HETATM   14  C   UNL     1      16.679  47.436  48.733  1.00  0.00     0.031 C 
HETATM   15  C   UNL     1      17.278  46.099  48.286  1.00  0.00     0.138 C 
HETATM   16  C   UNL     1      17.722  48.537  48.941  1.00  0.00     0.241 C 
HETATM   17  N   UNL     1      17.494  45.936  46.850  1.00  0.00    -0.317 N 
HETATM   18  C   UNL     1      18.151  44.757  46.467  1.00  0.00     0.247 A 
HETATM   19  O   UNL     1      18.641  43.959  47.261  1.00  0.00    -0.268 OA
HETATM   20  C   UNL     1      18.257  44.502  45.010  1.00  0.00     0.074 A 
HETATM   21  C   UNL     1      17.736  45.372  44.139  1.00  0.00     0.007 A 
HETATM   22  C   UNL     1      17.081  46.568  44.600  1.00  0.00     0.026 A 
ENDBRANCH   7   8
ENDBRANCH   2   7
BRANCH   1  23
HETATM   23  O   UNL     1      20.051  51.141  47.629  1.00  0.00    -0.351 OA
BRANCH  23  24
HETATM   24  C   UNL     1      19.735  52.364  48.299  1.00  0.00     0.171 C 
HETATM   25  C   UNL     1      18.519  52.111  49.172  1.00  0.00     0.034 C 
ENDBRANCH  23  24
ENDBRANCH   1  23
BRANCH   4  26
HETATM   26  C   UNL     1      24.012  47.687  49.672  1.00  0.00     0.150 C 
HETATM   27  N   UNL     1      23.765  46.425  49.550  1.00  0.00    -0.184 NA
BRANCH  27  28
HETATM   28  N   UNL     1      24.653  45.557  50.090  1.00  0.00    -0.242 N 
HETATM   29  C   UNL     1      24.202  44.360  50.629  1.00  0.00     0.292 C 
HETATM   30  O   UNL     1      23.023  44.010  50.661  1.00  0.00    -0.264 OA
HETATM   31  H   UNL     1      25.654  45.745  50.128  1.00  0.00     0.192 HD
BRANCH  29  32
HETATM   32  C   UNL     1      25.294  43.538  51.169  1.00  0.00     0.148 A 
HETATM   33  N   UNL     1      25.485  42.259  50.791  1.00  0.00    -0.169 NA
HETATM   34  N   UNL     1      26.567  41.871  51.493  1.00  0.00    -0.281 N 
HETATM   35  H   UNL     1      26.911  40.925  51.360  1.00  0.00     0.189 HD
HETATM   36  C   UNL     1      27.073  42.839  52.325  1.00  0.00     0.038 A 
HETATM   37  C   UNL     1      26.266  43.938  52.117  1.00  0.00     0.066 A 
BRANCH  36  38
HETATM   38  C   UNL     1      28.290  42.626  53.202  1.00  0.00    -0.007 C 
HETATM   39  C   UNL     1      28.132  43.443  54.496  1.00  0.00     0.021 C 
HETATM   40  C   UNL     1      28.439  41.136  53.572  1.00  0.00     0.021 C 
HETATM   41  C   UNL     1      29.579  43.063  52.478  1.00  0.00     0.021 C 
ENDBRANCH  36  38
ENDBRANCH  29  32
ENDBRANCH  27  28
ENDBRANCH   4  26
TORSDOF 8
ENDMDL
MODEL 6
REMARK VINA RESULT:      -8.8      3.325      4.092
REMARK  8 active torsions:
REMARK  status: ('A' for Active; 'I' for Inactive)
REMARK    1  A    between atoms: C_2  and  O_3 
REMARK    2  A    between atoms: O_3  and  C_4 
REMARK    3  A    between atoms: C_5  and  C_6 
REMARK    4  A    between atoms: C_6  and  N_7 
REMARK    5  A    between atoms: C_23  and  C_24 
REMARK    6  A    between atoms: N_25  and  N_26 
REMARK       I    between atoms: N_26  and  C_27 
REMARK    7  A    between atoms: C_27  and  C_28 
REMARK    8  A    between atoms: C_32  and  C_33 
ROOT
HETATM    1  C   UNL     1      22.658  48.480  49.179  1.00  0.00     0.076 A 
HETATM    2  C   UNL     1      22.105  47.356  48.531  1.00  0.00     0.002 A 
HETATM    3  C   UNL     1      22.824  46.155  48.563  1.00  0.00     0.024 A 
HETATM    4  C   UNL     1      24.024  46.042  49.278  1.00  0.00    -0.016 A 
HETATM    5  C   UNL     1      24.562  47.151  49.918  1.00  0.00     0.016 A 
HETATM    6  C   UNL     1      23.880  48.371  49.859  1.00  0.00     0.038 A 
ENDROOT
BRANCH   2   7
HETATM    7  C   UNL     1      20.797  47.496  47.780  1.00  0.00     0.276 C 
BRANCH   7   8
HETATM    8  N   UNL     1      19.611  46.673  48.288  1.00  0.00    -0.066 N 
HETATM    9  H   UNL     1      20.033  45.753  48.461  1.00  0.00     0.280 HD
HETATM   10  C   UNL     1      19.042  47.100  49.634  1.00  0.00     0.246 C 
HETATM   11  C   UNL     1      17.844  48.062  49.529  1.00  0.00     0.062 C 
HETATM   12  C   UNL     1      16.777  47.463  48.623  1.00  0.00     0.020 C 
HETATM   13  C   UNL     1      18.265  49.430  49.035  1.00  0.00     0.020 A 
HETATM   14  C   UNL     1      17.378  47.342  47.232  1.00  0.00     0.031 C 
HETATM   15  C   UNL     1      17.713  48.737  46.696  1.00  0.00     0.138 C 
HETATM   16  C   UNL     1      18.571  46.382  47.235  1.00  0.00     0.241 C 
HETATM   17  N   UNL     1      18.262  49.687  47.661  1.00  0.00    -0.317 N 
HETATM   18  C   UNL     1      18.674  50.919  47.131  1.00  0.00     0.247 A 
HETATM   19  O   UNL     1      18.707  51.168  45.930  1.00  0.00    -0.268 OA
HETATM   20  C   UNL     1      19.103  51.948  48.109  1.00  0.00     0.074 A 
HETATM   21  C   UNL     1      19.080  51.679  49.418  1.00  0.00     0.007 A 
HETATM   22  C   UNL     1      18.653  50.389  49.894  1.00  0.00     0.026 A 
ENDBRANCH   7   8
ENDBRANCH   2   7
BRANCH   1  23
HETATM   23  O   UNL     1      21.919  49.627  49.072  1.00  0.00    -0.351 OA
BRANCH  23  24
HETATM   24  C   UNL     1      22.592  50.876  49.250  1.00  0.00     0.171 C 
HETATM   25  C   UNL     1      23.264  51.229  47.936  1.00  0.00     0.034 C 
ENDBRANCH  23  24
ENDBRANCH   1  23
BRANCH   4  26
HETATM   26  C   UNL     1      24.666  44.713  49.369  1.00  0.00     0.150 C 
HETATM   27  N   UNL     1      25.930  44.664  49.634  1.00  0.00    -0.184 NA
BRANCH  27  28
HETATM   28  N   UNL     1      26.510  43.443  49.695  1.00  0.00    -0.242 N 
HETATM   29  C   UNL     1      27.111  43.026  50.875  1.00  0.00     0.292 C 
HETATM   30  O   UNL     1      27.165  43.699  51.905  1.00  0.00    -0.264 OA
HETATM   31  H   UNL     1      26.536  42.804  48.901  1.00  0.00     0.192 HD
BRANCH  29  32
HETATM   32  C   UNL     1      27.690  41.680  50.769  1.00  0.00     0.148 A 
HETATM   33  N   UNL     1      28.464  41.152  51.738  1.00  0.00    -0.169 NA
HETATM   34  N   UNL     1      28.779  39.929  51.271  1.00  0.00    -0.281 N 
HETATM   35  H   UNL     1      29.360  39.330  51.850  1.00  0.00     0.189 HD
HETATM   36  C   UNL     1      28.258  39.649  50.032  1.00  0.00     0.038 A 
HETATM   37  C   UNL     1      27.533  40.773  49.694  1.00  0.00     0.066 A 
BRANCH  36  38
HETATM   38  C   UNL     1      28.477  38.331  49.319  1.00  0.00    -0.007 C 
HETATM   39  C   UNL     1      29.785  37.694  49.818  1.00  0.00     0.021 C 
HETATM   40  C   UNL     1      27.314  37.359  49.603  1.00  0.00     0.021 C 
HETATM   41  C   UNL     1      28.560  38.533  47.793  1.00  0.00     0.021 C 
ENDBRANCH  36  38
ENDBRANCH  29  32
ENDBRANCH  27  28
ENDBRANCH   4  26
TORSDOF 8
ENDMDL
MODEL 7
REMARK VINA RESULT:      -8.7      2.728      5.142
REMARK  8 active torsions:
REMARK  status: ('A' for Active; 'I' for Inactive)
REMARK    1  A    between atoms: C_2  and  O_3 
REMARK    2  A    between atoms: O_3  and  C_4 
REMARK    3  A    between atoms: C_5  and  C_6 
REMARK    4  A    between atoms: C_6  and  N_7 
REMARK    5  A    between atoms: C_23  and  C_24 
REMARK    6  A    between atoms: N_25  and  N_26 
REMARK       I    between atoms: N_26  and  C_27 
REMARK    7  A    between atoms: C_27  and  C_28 
REMARK    8  A    between atoms: C_32  and  C_33 
ROOT
HETATM    1  C   UNL     1      16.606  51.956  48.942  1.00  0.00     0.076 A 
HETATM    2  C   UNL     1      16.739  50.576  48.685  1.00  0.00     0.002 A 
HETATM    3  C   UNL     1      17.942  49.952  49.037  1.00  0.00     0.024 A 
HETATM    4  C   UNL     1      18.963  50.652  49.693  1.00  0.00    -0.016 A 
HETATM    5  C   UNL     1      18.825  52.010  49.948  1.00  0.00     0.016 A 
HETATM    6  C   UNL     1      17.647  52.662  49.563  1.00  0.00     0.038 A 
ENDROOT
BRANCH   2   7
HETATM    7  C   UNL     1      15.616  49.835  47.992  1.00  0.00     0.276 C 
BRANCH   7   8
HETATM    8  N   UNL     1      15.338  50.197  46.531  1.00  0.00    -0.066 N 
HETATM    9  H   UNL     1      14.764  51.044  46.614  1.00  0.00     0.280 HD
HETATM   10  C   UNL     1      16.552  50.629  45.719  1.00  0.00     0.246 C 
HETATM   11  C   UNL     1      17.205  49.487  44.917  1.00  0.00     0.062 C 
HETATM   12  C   UNL     1      16.159  48.795  44.055  1.00  0.00     0.020 C 
HETATM   13  C   UNL     1      17.902  48.494  45.823  1.00  0.00     0.020 A 
HETATM   14  C   UNL     1      15.145  48.160  44.993  1.00  0.00     0.031 C 
HETATM   15  C   UNL     1      15.833  47.086  45.840  1.00  0.00     0.138 C 
HETATM   16  C   UNL     1      14.426  49.229  45.821  1.00  0.00     0.241 C 
HETATM   17  N   UNL     1      17.183  47.397  46.307  1.00  0.00    -0.317 N 
HETATM   18  C   UNL     1      17.753  46.456  47.177  1.00  0.00     0.247 A 
HETATM   19  O   UNL     1      17.144  45.497  47.641  1.00  0.00    -0.268 OA
HETATM   20  C   UNL     1      19.171  46.677  47.553  1.00  0.00     0.074 A 
HETATM   21  C   UNL     1      19.837  47.727  47.061  1.00  0.00     0.007 A 
HETATM   22  C   UNL     1      19.188  48.659  46.178  1.00  0.00     0.026 A 
ENDBRANCH   7   8
ENDBRANCH   2   7
BRANCH   1  23
HETATM   23  O   UNL     1      15.419  52.506  48.536  1.00  0.00    -0.351 OA
BRANCH  23  24
HETATM   24  C   UNL     1      14.930  53.643  49.250  1.00  0.00     0.171 C 
HETATM   25  C   UNL     1      14.144  53.135  50.446  1.00  0.00     0.034 C 
ENDBRANCH  23  24
ENDBRANCH   1  23
BRANCH   4  26
HETATM   26  C   UNL     1      20.155  49.901  50.142  1.00  0.00     0.150 C 
HETATM   27  N   UNL     1      21.234  49.993  49.438  1.00  0.00    -0.184 NA
BRANCH  27  28
HETATM   28  N   UNL     1      22.312  49.286  49.848  1.00  0.00    -0.242 N 
HETATM   29  C   UNL     1      23.228  48.826  48.912  1.00  0.00     0.292 C 
HETATM   30  O   UNL     1      23.138  49.011  47.699  1.00  0.00    -0.264 OA
HETATM   31  H   UNL     1      22.486  49.062  50.828  1.00  0.00     0.192 HD
BRANCH  29  32
HETATM   32  C   UNL     1      24.335  48.080  49.525  1.00  0.00     0.148 A 
HETATM   33  N   UNL     1      25.587  48.575  49.590  1.00  0.00    -0.169 NA
HETATM   34  N   UNL     1      26.286  47.610  50.218  1.00  0.00    -0.281 N 
HETATM   35  H   UNL     1      27.274  47.770  50.392  1.00  0.00     0.189 HD
HETATM   36  C   UNL     1      25.545  46.502  50.546  1.00  0.00     0.038 A 
HETATM   37  C   UNL     1      24.267  46.795  50.116  1.00  0.00     0.066 A 
BRANCH  36  38
HETATM   38  C   UNL     1      26.122  45.300  51.264  1.00  0.00    -0.007 C 
HETATM   39  C   UNL     1      25.022  44.240  51.446  1.00  0.00     0.021 C 
HETATM   40  C   UNL     1      27.274  44.680  50.446  1.00  0.00     0.021 C 
HETATM   41  C   UNL     1      26.683  45.694  52.644  1.00  0.00     0.021 C 
ENDBRANCH  36  38
ENDBRANCH  29  32
ENDBRANCH  27  28
ENDBRANCH   4  26
TORSDOF 8
ENDMDL
MODEL 8
REMARK VINA RESULT:      -8.7      1.682      1.930
REMARK  8 active torsions:
REMARK  status: ('A' for Active; 'I' for Inactive)
REMARK    1  A    between atoms: C_2  and  O_3 
REMARK    2  A    between atoms: O_3  and  C_4 
REMARK    3  A    between atoms: C_5  and  C_6 
REMARK    4  A    between atoms: C_6  and  N_7 
REMARK    5  A    between atoms: C_23  and  C_24 
REMARK    6  A    between atoms: N_25  and  N_26 
REMARK       I    between atoms: N_26  and  C_27 
REMARK    7  A    between atoms: C_27  and  C_28 
REMARK    8  A    between atoms: C_32  and  C_33 
ROOT
HETATM    1  C   UNL     1      20.965  50.594  48.106  1.00  0.00     0.076 A 
HETATM    2  C   UNL     1      21.054  49.226  47.780  1.00  0.00     0.002 A 
HETATM    3  C   UNL     1      22.223  48.539  48.129  1.00  0.00     0.024 A 
HETATM    4  C   UNL     1      23.252  49.165  48.845  1.00  0.00    -0.016 A 
HETATM    5  C   UNL     1      23.157  50.513  49.167  1.00  0.00     0.016 A 
HETATM    6  C   UNL     1      22.015  51.227  48.788  1.00  0.00     0.038 A 
ENDROOT
BRANCH   2   7
HETATM    7  C   UNL     1      19.923  48.564  47.022  1.00  0.00     0.276 C 
BRANCH   7   8
HETATM    8  N   UNL     1      19.824  47.039  47.111  1.00  0.00    -0.066 N 
HETATM    9  H   UNL     1      20.765  46.770  47.420  1.00  0.00     0.280 HD
HETATM   10  C   UNL     1      18.891  46.502  48.187  1.00  0.00     0.246 C 
HETATM   11  C   UNL     1      17.470  46.187  47.682  1.00  0.00     0.062 C 
HETATM   12  C   UNL     1      17.542  45.261  46.477  1.00  0.00     0.020 C 
HETATM   13  C   UNL     1      16.702  47.449  47.349  1.00  0.00     0.020 A 
HETATM   14  C   UNL     1      18.255  46.016  45.366  1.00  0.00     0.031 C 
HETATM   15  C   UNL     1      17.426  47.239  44.964  1.00  0.00     0.138 C 
HETATM   16  C   UNL     1      19.691  46.355  45.773  1.00  0.00     0.241 C 
HETATM   17  N   UNL     1      16.771  47.963  46.051  1.00  0.00    -0.317 N 
HETATM   18  C   UNL     1      16.114  49.146  45.681  1.00  0.00     0.247 A 
HETATM   19  O   UNL     1      16.174  49.638  44.558  1.00  0.00    -0.268 OA
HETATM   20  C   UNL     1      15.325  49.823  46.739  1.00  0.00     0.074 A 
HETATM   21  C   UNL     1      15.265  49.299  47.967  1.00  0.00     0.007 A 
HETATM   22  C   UNL     1      15.971  48.085  48.282  1.00  0.00     0.026 A 
ENDBRANCH   7   8
ENDBRANCH   2   7
BRANCH   1  23
HETATM   23  O   UNL     1      19.811  51.209  47.699  1.00  0.00    -0.351 OA
BRANCH  23  24
HETATM   24  C   UNL     1      19.369  52.354  48.432  1.00  0.00     0.171 C 
HETATM   25  C   UNL     1      18.281  51.898  49.389  1.00  0.00     0.034 C 
ENDBRANCH  23  24
ENDBRANCH   1  23
BRANCH   4  26
HETATM   26  C   UNL     1      24.403  48.347  49.284  1.00  0.00     0.150 C 
HETATM   27  N   UNL     1      24.233  47.541  50.279  1.00  0.00    -0.184 NA
BRANCH  27  28
HETATM   28  N   UNL     1      25.298  46.812  50.685  1.00  0.00    -0.242 N 
HETATM   29  C   UNL     1      25.132  45.471  51.005  1.00  0.00     0.292 C 
HETATM   30  O   UNL     1      24.059  44.870  50.951  1.00  0.00    -0.264 OA
HETATM   31  H   UNL     1      26.234  47.207  50.777  1.00  0.00     0.192 HD
BRANCH  29  32
HETATM   32  C   UNL     1      26.386  44.831  51.424  1.00  0.00     0.148 A 
HETATM   33  N   UNL     1      27.366  44.529  50.549  1.00  0.00    -0.169 NA
HETATM   34  N   UNL     1      28.325  43.975  51.315  1.00  0.00    -0.281 N 
HETATM   35  H   UNL     1      29.184  43.673  50.864  1.00  0.00     0.189 HD
HETATM   36  C   UNL     1      28.001  43.889  52.646  1.00  0.00     0.038 A 
HETATM   37  C   UNL     1      26.747  44.455  52.740  1.00  0.00     0.066 A 
BRANCH  36  38
HETATM   38  C   UNL     1      28.933  43.309  53.691  1.00  0.00    -0.007 C 
HETATM   39  C   UNL     1      30.286  42.981  53.038  1.00  0.00     0.021 C 
HETATM   40  C   UNL     1      29.166  44.319  54.832  1.00  0.00     0.021 C 
HETATM   41  C   UNL     1      28.342  42.027  54.310  1.00  0.00     0.021 C 
ENDBRANCH  36  38
ENDBRANCH  29  32
ENDBRANCH  27  28
ENDBRANCH   4  26
TORSDOF 8
ENDMDL
MODEL 9
REMARK VINA RESULT:      -8.6      2.131      4.085
REMARK  8 active torsions:
REMARK  status: ('A' for Active; 'I' for Inactive)
REMARK    1  A    between atoms: C_2  and  O_3 
REMARK    2  A    between atoms: O_3  and  C_4 
REMARK    3  A    between atoms: C_5  and  C_6 
REMARK    4  A    between atoms: C_6  and  N_7 
REMARK    5  A    between atoms: C_23  and  C_24 
REMARK    6  A    between atoms: N_25  and  N_26 
REMARK       I    between atoms: N_26  and  C_27 
REMARK    7  A    between atoms: C_27  and  C_28 
REMARK    8  A    between atoms: C_32  and  C_33 
ROOT
HETATM    1  C   UNL     1      19.934  46.384  45.004  1.00  0.00     0.076 A 
HETATM    2  C   UNL     1      19.813  47.288  46.079  1.00  0.00     0.002 A 
HETATM    3  C   UNL     1      20.484  46.989  47.272  1.00  0.00     0.024 A 
HETATM    4  C   UNL     1      21.314  45.865  47.380  1.00  0.00    -0.016 A 
HETATM    5  C   UNL     1      21.433  44.980  46.316  1.00  0.00     0.016 A 
HETATM    6  C   UNL     1      20.733  45.239  45.132  1.00  0.00     0.038 A 
ENDROOT
BRANCH   2   7
HETATM    7  C   UNL     1      18.926  48.506  45.935  1.00  0.00     0.276 C 
BRANCH   7   8
HETATM    8  N   UNL     1      17.424  48.260  45.777  1.00  0.00    -0.066 N 
HETATM    9  H   UNL     1      17.372  47.742  44.893  1.00  0.00     0.280 HD
HETATM   10  C   UNL     1      16.798  47.332  46.810  1.00  0.00     0.246 C 
HETATM   11  C   UNL     1      16.169  48.066  48.009  1.00  0.00     0.062 C 
HETATM   12  C   UNL     1      15.184  49.116  47.515  1.00  0.00     0.020 C 
HETATM   13  C   UNL     1      17.223  48.690  48.900  1.00  0.00     0.020 A 
HETATM   14  C   UNL     1      15.976  50.146  46.726  1.00  0.00     0.031 C 
HETATM   15  C   UNL     1      16.974  50.844  47.653  1.00  0.00     0.138 C 
HETATM   16  C   UNL     1      16.624  49.507  45.495  1.00  0.00     0.241 C 
HETATM   17  N   UNL     1      17.637  50.000  48.645  1.00  0.00    -0.317 N 
HETATM   18  C   UNL     1      18.633  50.629  49.407  1.00  0.00     0.247 A 
HETATM   19  O   UNL     1      19.038  51.768  49.195  1.00  0.00    -0.268 OA
HETATM   20  C   UNL     1      19.221  49.834  50.512  1.00  0.00     0.074 A 
HETATM   21  C   UNL     1      18.793  48.588  50.741  1.00  0.00     0.007 A 
HETATM   22  C   UNL     1      17.772  48.000  49.915  1.00  0.00     0.026 A 
ENDBRANCH   7   8
ENDBRANCH   2   7
BRANCH   1  23
HETATM   23  O   UNL     1      19.219  46.721  43.886  1.00  0.00    -0.351 OA
BRANCH  23  24
HETATM   24  C   UNL     1      18.381  45.721  43.301  1.00  0.00     0.171 C 
HETATM   25  C   UNL     1      17.180  46.423  42.693  1.00  0.00     0.034 C 
ENDBRANCH  23  24
ENDBRANCH   1  23
BRANCH   4  26
HETATM   26  C   UNL     1      22.086  45.678  48.627  1.00  0.00     0.150 C 
HETATM   27  N   UNL     1      23.161  46.377  48.789  1.00  0.00    -0.184 NA
BRANCH  27  28
HETATM   28  N   UNL     1      23.870  46.183  49.925  1.00  0.00    -0.242 N 
HETATM   29  C   UNL     1      24.623  47.224  50.450  1.00  0.00     0.292 C 
HETATM   30  O   UNL     1      24.706  48.345  49.951  1.00  0.00    -0.264 OA
HETATM   31  H   UNL     1      23.885  45.292  50.421  1.00  0.00     0.192 HD
BRANCH  29  32
HETATM   32  C   UNL     1      25.327  46.845  51.683  1.00  0.00     0.148 A 
HETATM   33  N   UNL     1      25.331  47.629  52.779  1.00  0.00    -0.169 NA
HETATM   34  N   UNL     1      26.064  46.936  53.672  1.00  0.00    -0.281 N 
HETATM   35  H   UNL     1      26.196  47.336  54.596  1.00  0.00     0.189 HD
HETATM   36  C   UNL     1      26.550  45.745  53.194  1.00  0.00     0.038 A 
HETATM   37  C   UNL     1      26.069  45.659  51.904  1.00  0.00     0.066 A 
BRANCH  36  38
HETATM   38  C   UNL     1      27.391  44.799  54.027  1.00  0.00    -0.007 C 
HETATM   39  C   UNL     1      28.249  45.614  55.011  1.00  0.00     0.021 C 
HETATM   40  C   UNL     1      26.493  43.838  54.833  1.00  0.00     0.021 C 
HETATM   41  C   UNL     1      28.314  43.944  53.136  1.00  0.00     0.021 C 
ENDBRANCH  36  38
ENDBRANCH  29  32
ENDBRANCH  27  28
ENDBRANCH   4  26
TORSDOF 8
ENDMDL
MODEL 10
REMARK VINA RESULT:      -8.2      7.544     12.016
REMARK  8 active torsions:
REMARK  status: ('A' for Active; 'I' for Inactive)
REMARK    1  A    between atoms: C_2  and  O_3 
REMARK    2  A    between atoms: O_3  and  C_4 
REMARK    3  A    between atoms: C_5  and  C_6 
REMARK    4  A    between atoms: C_6  and  N_7 
REMARK    5  A    between atoms: C_23  and  C_24 
REMARK    6  A    between atoms: N_25  and  N_26 
REMARK       I    between atoms: N_26  and  C_27 
REMARK    7  A    between atoms: C_27  and  C_28 
REMARK    8  A    between atoms: C_32  and  C_33 
ROOT
HETATM    1  C   UNL     1      14.121  52.186  44.334  1.00  0.00     0.076 A 
HETATM    2  C   UNL     1      15.140  52.119  45.305  1.00  0.00     0.002 A 
HETATM    3  C   UNL     1      15.083  53.010  46.385  1.00  0.00     0.024 A 
HETATM    4  C   UNL     1      14.008  53.896  46.543  1.00  0.00    -0.016 A 
HETATM    5  C   UNL     1      13.004  53.953  45.585  1.00  0.00     0.016 A 
HETATM    6  C   UNL     1      13.069  53.102  44.476  1.00  0.00     0.038 A 
ENDROOT
BRANCH   2   7
HETATM    7  C   UNL     1      16.282  51.142  45.124  1.00  0.00     0.276 C 
BRANCH   7   8
HETATM    8  N   UNL     1      15.980  49.663  45.376  1.00  0.00    -0.066 N 
HETATM    9  H   UNL     1      15.513  49.378  44.507  1.00  0.00     0.280 HD
HETATM   10  C   UNL     1      17.196  48.752  45.481  1.00  0.00     0.246 C 
HETATM   11  C   UNL     1      17.672  48.511  46.926  1.00  0.00     0.062 C 
HETATM   12  C   UNL     1      16.512  48.015  47.777  1.00  0.00     0.020 C 
HETATM   13  C   UNL     1      18.290  49.756  47.527  1.00  0.00     0.020 A 
HETATM   14  C   UNL     1      15.477  49.126  47.827  1.00  0.00     0.031 C 
HETATM   15  C   UNL     1      16.074  50.352  48.524  1.00  0.00     0.138 C 
HETATM   16  C   UNL     1      14.928  49.422  46.429  1.00  0.00     0.241 C 
HETATM   17  N   UNL     1      17.472  50.652  48.220  1.00  0.00    -0.317 N 
HETATM   18  C   UNL     1      17.969  51.842  48.773  1.00  0.00     0.247 A 
HETATM   19  O   UNL     1      17.275  52.663  49.365  1.00  0.00    -0.268 OA
HETATM   20  C   UNL     1      19.419  52.098  48.595  1.00  0.00     0.074 A 
HETATM   21  C   UNL     1      20.179  51.214  47.941  1.00  0.00     0.007 A 
HETATM   22  C   UNL     1      19.602  50.015  47.392  1.00  0.00     0.026 A 
ENDBRANCH   7   8
ENDBRANCH   2   7
BRANCH   1  23
HETATM   23  O   UNL     1      14.265  51.313  43.288  1.00  0.00    -0.351 OA
BRANCH  23  24
HETATM   24  C   UNL     1      14.183  51.839  41.961  1.00  0.00     0.171 C 
HETATM   25  C   UNL     1      15.527  52.460  41.626  1.00  0.00     0.034 C 
ENDBRANCH  23  24
ENDBRANCH   1  23
BRANCH   4  26
HETATM   26  C   UNL     1      13.951  54.720  47.769  1.00  0.00     0.150 C 
HETATM   27  N   UNL     1      14.415  54.216  48.865  1.00  0.00    -0.184 NA
BRANCH  27  28
HETATM   28  N   UNL     1      14.339  54.973  49.984  1.00  0.00    -0.242 N 
HETATM   29  C   UNL     1      13.939  54.392  51.180  1.00  0.00     0.292 C 
HETATM   30  O   UNL     1      13.634  53.207  51.311  1.00  0.00    -0.264 OA
HETATM   31  H   UNL     1      14.558  55.968  49.993  1.00  0.00     0.192 HD
BRANCH  29  32
HETATM   32  C   UNL     1      13.913  55.351  52.292  1.00  0.00     0.148 A 
HETATM   33  N   UNL     1      12.959  55.322  53.244  1.00  0.00    -0.169 NA
HETATM   34  N   UNL     1      13.290  56.337  54.066  1.00  0.00    -0.281 N 
HETATM   35  H   UNL     1      12.706  56.503  54.880  1.00  0.00     0.189 HD
HETATM   36  C   UNL     1      14.407  57.033  53.677  1.00  0.00     0.038 A 
HETATM   37  C   UNL     1      14.837  56.397  52.531  1.00  0.00     0.066 A 
BRANCH  36  38
HETATM   38  C   UNL     1      14.965  58.207  54.455  1.00  0.00    -0.007 C 
HETATM   39  C   UNL     1      14.849  59.483  53.603  1.00  0.00     0.021 C 
HETATM   40  C   UNL     1      14.179  58.414  55.766  1.00  0.00     0.021 C 
HETATM   41  C   UNL     1      16.444  57.975  54.825  1.00  0.00     0.021 C 
ENDBRANCH  36  38
ENDBRANCH  29  32
ENDBRANCH  27  28
ENDBRANCH   4  26
TORSDOF 8
ENDMDL
