MODEL 1
REMARK VINA RESULT:      -8.1      0.000      0.000
REMARK  4 active torsions:
REMARK  status: ('A' for Active; 'I' for Inactive)
REMARK    1  A    between atoms: C_2  and  N_3 
REMARK    2  A    between atoms: C_11  and  C_12 
REMARK    3  A    between atoms: C_12  and  N_13 
REMARK    4  A    between atoms: C_16  and  N_17 
ROOT
HETATM    1  N   UNL     1      27.500  43.932  51.761  1.00  0.00    -0.065 N 
HETATM    2  H   UNL     1      28.090  44.759  51.619  1.00  0.00     0.280 HD
HETATM    3  C   UNL     1      26.650  44.135  53.005  1.00  0.00     0.268 C 
HETATM    4  C   UNL     1      27.423  44.418  54.340  1.00  0.00     0.214 C 
HETATM    5  C   UNL     1      28.213  43.173  54.771  1.00  0.00     0.035 C 
HETATM    6  C   UNL     1      29.571  42.925  54.120  1.00  0.00     0.004 C 
HETATM    7  C   UNL     1      29.676  43.060  52.603  1.00  0.00     0.028 C 
HETATM    8  C   UNL     1      28.426  42.725  51.804  1.00  0.00     0.235 C 
ENDROOT
BRANCH   1   9
HETATM    9  C   UNL     1      26.639  43.937  50.467  1.00  0.00     0.276 C 
BRANCH   9  10
HETATM   10  C   UNL     1      25.968  45.223  50.077  1.00  0.00     0.009 A 
HETATM   11  C   UNL     1      24.576  45.377  50.058  1.00  0.00     0.136 A 
HETATM   12  N   UNL     1      23.896  46.498  49.751  1.00  0.00    -0.216 NA
HETATM   13 CL   UNL     1      23.508  44.068  50.406  1.00  0.00    -0.062 Cl
HETATM   14  C   UNL     1      24.688  47.554  49.485  1.00  0.00     0.159 A 
HETATM   15  N   UNL     1      24.303  48.843  49.202  1.00  0.00    -0.248 N 
HETATM   16  C   UNL     1      26.075  47.559  49.470  1.00  0.00     0.031 A 
HETATM   17  N   UNL     1      25.352  49.661  48.951  1.00  0.00    -0.182 NA
HETATM   18  C   UNL     1      26.420  48.885  49.138  1.00  0.00     0.154 A 
HETATM   19  C   UNL     1      26.742  46.361  49.775  1.00  0.00     0.029 A 
BRANCH  15  20
HETATM   20  C   UNL     1      22.940  49.367  49.194  1.00  0.00     0.104 C 
HETATM   21  C   UNL     1      22.160  48.874  47.977  1.00  0.00     0.034 C 
HETATM   22  C   UNL     1      22.930  50.893  49.281  1.00  0.00     0.034 C 
ENDBRANCH  15  20
ENDBRANCH   9  10
ENDBRANCH   1   9
BRANCH   4  23
HETATM   23  N   UNL     1      28.318  45.675  54.315  1.00  0.00    -0.065 N 
HETATM   24  H   UNL     1      28.994  45.637  53.543  1.00  0.00     0.280 HD
HETATM   25  C   UNL     1      29.173  45.839  55.588  1.00  0.00     0.235 C 
HETATM   26  C   UNL     1      28.286  46.590  56.564  1.00  0.00     0.029 C 
HETATM   27  C   UNL     1      27.218  47.279  55.726  1.00  0.00     0.029 C 
HETATM   28  C   UNL     1      27.605  47.023  54.286  1.00  0.00     0.235 C 
ENDBRANCH   4  23
TORSDOF 4
ENDMDL
MODEL 2
REMARK VINA RESULT:      -8.1      2.217      7.379
REMARK  4 active torsions:
REMARK  status: ('A' for Active; 'I' for Inactive)
REMARK    1  A    between atoms: C_2  and  N_3 
REMARK    2  A    between atoms: C_11  and  C_12 
REMARK    3  A    between atoms: C_12  and  N_13 
REMARK    4  A    between atoms: C_16  and  N_17 
ROOT
HETATM    1  N   UNL     1      25.701  43.479  50.987  1.00  0.00    -0.065 N 
HETATM    2  H   UNL     1      25.462  44.127  51.747  1.00  0.00     0.280 HD
HETATM    3  C   UNL     1      26.232  44.272  49.805  1.00  0.00     0.268 C 
HETATM    4  C   UNL     1      25.282  45.377  49.223  1.00  0.00     0.214 C 
HETATM    5  C   UNL     1      24.053  44.729  48.566  1.00  0.00     0.035 C 
HETATM    6  C   UNL     1      22.896  44.309  49.467  1.00  0.00     0.004 C 
HETATM    7  C   UNL     1      23.223  43.537  50.743  1.00  0.00     0.028 C 
HETATM    8  C   UNL     1      24.458  42.649  50.701  1.00  0.00     0.235 C 
ENDROOT
BRANCH   1   9
HETATM    9  C   UNL     1      26.813  42.619  51.650  1.00  0.00     0.276 C 
BRANCH   9  10
HETATM   10  C   UNL     1      27.551  43.206  52.819  1.00  0.00     0.009 A 
HETATM   11  C   UNL     1      28.681  42.603  53.384  1.00  0.00     0.136 A 
HETATM   12  N   UNL     1      29.417  43.075  54.408  1.00  0.00    -0.216 NA
HETATM   13 CL   UNL     1      29.276  41.081  52.830  1.00  0.00    -0.062 Cl
HETATM   14  C   UNL     1      29.000  44.270  54.867  1.00  0.00     0.159 A 
HETATM   15  N   UNL     1      29.572  45.038  55.853  1.00  0.00    -0.248 N 
HETATM   16  C   UNL     1      27.906  44.991  54.408  1.00  0.00     0.031 A 
HETATM   17  N   UNL     1      28.883  46.178  56.096  1.00  0.00    -0.182 NA
HETATM   18  C   UNL     1      27.892  46.155  55.204  1.00  0.00     0.154 A 
HETATM   19  C   UNL     1      27.155  44.449  53.352  1.00  0.00     0.029 A 
BRANCH  15  20
HETATM   20  C   UNL     1      30.805  44.752  56.579  1.00  0.00     0.104 C 
HETATM   21  C   UNL     1      31.149  43.264  56.533  1.00  0.00     0.034 C 
HETATM   22  C   UNL     1      30.734  45.263  58.019  1.00  0.00     0.034 C 
ENDBRANCH  15  20
ENDBRANCH   9  10
ENDBRANCH   1   9
BRANCH   4  23
HETATM   23  N   UNL     1      24.873  46.473  50.228  1.00  0.00    -0.065 N 
HETATM   24  H   UNL     1      24.157  46.134  50.880  1.00  0.00     0.280 HD
HETATM   25  C   UNL     1      24.248  47.713  49.557  1.00  0.00     0.235 C 
HETATM   26  C   UNL     1      25.426  48.600  49.194  1.00  0.00     0.029 C 
HETATM   27  C   UNL     1      26.581  48.156  50.079  1.00  0.00     0.029 C 
HETATM   28  C   UNL     1      25.998  47.128  51.024  1.00  0.00     0.235 C 
ENDBRANCH   4  23
TORSDOF 4
ENDMDL
MODEL 3
REMARK VINA RESULT:      -8.1      2.167      3.991
REMARK  4 active torsions:
REMARK  status: ('A' for Active; 'I' for Inactive)
REMARK    1  A    between atoms: C_2  and  N_3 
REMARK    2  A    between atoms: C_11  and  C_12 
REMARK    3  A    between atoms: C_12  and  N_13 
REMARK    4  A    between atoms: C_16  and  N_17 
ROOT
HETATM    1  N   UNL     1      26.091  44.605  51.100  1.00  0.00    -0.065 N 
HETATM    2  H   UNL     1      25.551  43.731  51.090  1.00  0.00     0.280 HD
HETATM    3  C   UNL     1      27.563  44.278  51.288  1.00  0.00     0.268 C 
HETATM    4  C   UNL     1      27.937  43.458  52.572  1.00  0.00     0.214 C 
HETATM    5  C   UNL     1      27.700  44.307  53.831  1.00  0.00     0.035 C 
HETATM    6  C   UNL     1      26.280  44.389  54.384  1.00  0.00     0.004 C 
HETATM    7  C   UNL     1      25.142  44.656  53.402  1.00  0.00     0.028 C 
HETATM    8  C   UNL     1      25.484  45.491  52.178  1.00  0.00     0.235 C 
ENDROOT
BRANCH   1   9
HETATM    9  C   UNL     1      25.802  45.165  49.679  1.00  0.00     0.276 C 
BRANCH   9  10
HETATM   10  C   UNL     1      24.813  46.289  49.556  1.00  0.00     0.009 A 
HETATM   11  C   UNL     1      25.161  47.632  49.748  1.00  0.00     0.136 A 
HETATM   12  N   UNL     1      24.348  48.698  49.628  1.00  0.00    -0.216 NA
HETATM   13 CL   UNL     1      26.751  48.102  50.225  1.00  0.00    -0.062 Cl
HETATM   14  C   UNL     1      23.097  48.382  49.242  1.00  0.00     0.159 A 
HETATM   15  N   UNL     1      22.058  49.242  48.973  1.00  0.00    -0.248 N 
HETATM   16  C   UNL     1      22.605  47.106  49.009  1.00  0.00     0.031 A 
HETATM   17  N   UNL     1      20.917  48.596  48.638  1.00  0.00    -0.182 NA
HETATM   18  C   UNL     1      21.261  47.308  48.638  1.00  0.00     0.154 A 
HETATM   19  C   UNL     1      23.485  46.021  49.168  1.00  0.00     0.029 A 
BRANCH  15  20
HETATM   20  C   UNL     1      22.105  50.700  48.983  1.00  0.00     0.104 C 
HETATM   21  C   UNL     1      20.722  51.306  48.756  1.00  0.00     0.034 C 
HETATM   22  C   UNL     1      23.119  51.231  47.969  1.00  0.00     0.034 C 
ENDBRANCH  15  20
ENDBRANCH   9  10
ENDBRANCH   1   9
BRANCH   4  23
HETATM   23  N   UNL     1      27.253  42.080  52.682  1.00  0.00    -0.065 N 
HETATM   24  H   UNL     1      26.369  42.142  53.199  1.00  0.00     0.280 HD
HETATM   25  C   UNL     1      28.095  41.042  53.453  1.00  0.00     0.235 C 
HETATM   26  C   UNL     1      29.002  40.417  52.408  1.00  0.00     0.029 C 
HETATM   27  C   UNL     1      28.347  40.685  51.061  1.00  0.00     0.029 C 
HETATM   28  C   UNL     1      27.014  41.327  51.377  1.00  0.00     0.235 C 
ENDBRANCH   4  23
TORSDOF 4
ENDMDL
MODEL 4
REMARK VINA RESULT:      -7.9     11.648     14.735
REMARK  4 active torsions:
REMARK  status: ('A' for Active; 'I' for Inactive)
REMARK    1  A    between atoms: C_2  and  N_3 
REMARK    2  A    between atoms: C_11  and  C_12 
REMARK    3  A    between atoms: C_12  and  N_13 
REMARK    4  A    between atoms: C_16  and  N_17 
ROOT
HETATM    1  N   UNL     1      30.571  50.749  41.819  1.00  0.00    -0.065 N 
HETATM    2  H   UNL     1      31.001  50.686  40.889  1.00  0.00     0.280 HD
HETATM    3  C   UNL     1      29.268  49.967  41.819  1.00  0.00     0.268 C 
HETATM    4  C   UNL     1      28.197  50.397  40.757  1.00  0.00     0.214 C 
HETATM    5  C   UNL     1      27.656  51.798  41.084  1.00  0.00     0.035 C 
HETATM    6  C   UNL     1      28.477  53.005  40.640  1.00  0.00     0.004 C 
HETATM    7  C   UNL     1      29.978  52.993  40.915  1.00  0.00     0.028 C 
HETATM    8  C   UNL     1      30.435  52.229  42.148  1.00  0.00     0.235 C 
ENDROOT
BRANCH   1   9
HETATM    9  C   UNL     1      31.650  50.070  42.708  1.00  0.00     0.276 C 
BRANCH   9  10
HETATM   10  C   UNL     1      33.035  50.652  42.697  1.00  0.00     0.009 A 
HETATM   11  C   UNL     1      33.488  51.552  43.670  1.00  0.00     0.136 A 
HETATM   12  N   UNL     1      34.717  52.095  43.753  1.00  0.00    -0.216 NA
HETATM   13 CL   UNL     1      32.457  52.134  44.925  1.00  0.00    -0.062 Cl
HETATM   14  C   UNL     1      35.565  51.659  42.801  1.00  0.00     0.159 A 
HETATM   15  N   UNL     1      36.895  51.974  42.653  1.00  0.00    -0.248 N 
HETATM   16  C   UNL     1      35.267  50.769  41.779  1.00  0.00     0.031 A 
HETATM   17  N   UNL     1      37.454  51.388  41.568  1.00  0.00    -0.182 NA
HETATM   18  C   UNL     1      36.472  50.643  41.059  1.00  0.00     0.154 A 
HETATM   19  C   UNL     1      33.965  50.245  41.720  1.00  0.00     0.029 A 
BRANCH  15  20
HETATM   20  C   UNL     1      37.701  52.804  43.541  1.00  0.00     0.104 C 
HETATM   21  C   UNL     1      37.675  54.270  43.113  1.00  0.00     0.034 C 
HETATM   22  C   UNL     1      39.134  52.280  43.644  1.00  0.00     0.034 C 
ENDBRANCH  15  20
ENDBRANCH   9  10
ENDBRANCH   1   9
BRANCH   4  23
HETATM   23  N   UNL     1      28.666  50.300  39.290  1.00  0.00    -0.065 N 
HETATM   24  H   UNL     1      29.289  51.078  39.045  1.00  0.00     0.280 HD
HETATM   25  C   UNL     1      27.508  50.380  38.274  1.00  0.00     0.235 C 
HETATM   26  C   UNL     1      27.016  48.952  38.125  1.00  0.00     0.029 C 
HETATM   27  C   UNL     1      28.155  48.058  38.595  1.00  0.00     0.029 C 
HETATM   28  C   UNL     1      29.317  48.989  38.864  1.00  0.00     0.235 C 
ENDBRANCH   4  23
TORSDOF 4
ENDMDL
MODEL 5
REMARK VINA RESULT:      -7.8      2.616      7.997
REMARK  4 active torsions:
REMARK  status: ('A' for Active; 'I' for Inactive)
REMARK    1  A    between atoms: C_2  and  N_3 
REMARK    2  A    between atoms: C_11  and  C_12 
REMARK    3  A    between atoms: C_12  and  N_13 
REMARK    4  A    between atoms: C_16  and  N_17 
ROOT
HETATM    1  N   UNL     1      22.218  46.399  48.711  1.00  0.00    -0.065 N 
HETATM    2  H   UNL     1      22.103  46.801  49.649  1.00  0.00     0.280 HD
HETATM    3  C   UNL     1      22.202  47.519  47.684  1.00  0.00     0.268 C 
HETATM    4  C   UNL     1      20.928  48.433  47.670  1.00  0.00     0.214 C 
HETATM    5  C   UNL     1      19.705  47.633  47.196  1.00  0.00     0.035 C 
HETATM    6  C   UNL     1      18.980  46.760  48.216  1.00  0.00     0.004 C 
HETATM    7  C   UNL     1      19.821  45.862  49.120  1.00  0.00     0.028 C 
HETATM    8  C   UNL     1      21.129  45.350  48.539  1.00  0.00     0.235 C 
ENDROOT
BRANCH   1   9
HETATM    9  C   UNL     1      23.622  45.741  48.825  1.00  0.00     0.276 C 
BRANCH   9  10
HETATM   10  C   UNL     1      24.391  45.945  50.099  1.00  0.00     0.009 A 
HETATM   11  C   UNL     1      25.098  47.121  50.380  1.00  0.00     0.136 A 
HETATM   12  N   UNL     1      25.785  47.396  51.505  1.00  0.00    -0.216 NA
HETATM   13 CL   UNL     1      25.211  48.411  49.241  1.00  0.00    -0.062 Cl
HETATM   14  C   UNL     1      25.714  46.423  52.433  1.00  0.00     0.159 A 
HETATM   15  N   UNL     1      26.250  46.428  53.699  1.00  0.00    -0.248 N 
HETATM   16  C   UNL     1      25.052  45.210  52.304  1.00  0.00     0.031 A 
HETATM   17  N   UNL     1      26.023  45.274  54.369  1.00  0.00    -0.182 NA
HETATM   18  C   UNL     1      25.278  44.553  53.530  1.00  0.00     0.154 A 
HETATM   19  C   UNL     1      24.366  44.958  51.104  1.00  0.00     0.029 A 
BRANCH  15  20
HETATM   20  C   UNL     1      26.963  47.527  54.342  1.00  0.00     0.104 C 
HETATM   21  C   UNL     1      28.218  47.035  55.060  1.00  0.00     0.034 C 
HETATM   22  C   UNL     1      26.049  48.305  55.289  1.00  0.00     0.034 C 
ENDBRANCH  15  20
ENDBRANCH   9  10
ENDBRANCH   1   9
BRANCH   4  23
HETATM   23  N   UNL     1      20.643  49.167  48.997  1.00  0.00    -0.065 N 
HETATM   24  H   UNL     1      20.244  48.532  49.697  1.00  0.00     0.280 HD
HETATM   25  C   UNL     1      19.611  50.304  48.854  1.00  0.00     0.235 C 
HETATM   26  C   UNL     1      20.421  51.523  48.449  1.00  0.00     0.029 C 
HETATM   27  C   UNL     1      21.857  51.237  48.864  1.00  0.00     0.029 C 
HETATM   28  C   UNL     1      21.807  49.929  49.623  1.00  0.00     0.235 C 
ENDBRANCH   4  23
TORSDOF 4
ENDMDL
MODEL 6
REMARK VINA RESULT:      -7.3     16.978     19.678
REMARK  4 active torsions:
REMARK  status: ('A' for Active; 'I' for Inactive)
REMARK    1  A    between atoms: C_2  and  N_3 
REMARK    2  A    between atoms: C_11  and  C_12 
REMARK    3  A    between atoms: C_12  and  N_13 
REMARK    4  A    between atoms: C_16  and  N_17 
ROOT
HETATM    1  N   UNL     1      37.146  45.304  64.647  1.00  0.00    -0.065 N 
HETATM    2  H   UNL     1      38.035  45.289  65.160  1.00  0.00     0.280 HD
HETATM    3  C   UNL     1      36.893  46.712  64.133  1.00  0.00     0.268 C 
HETATM    4  C   UNL     1      36.854  47.851  65.211  1.00  0.00     0.214 C 
HETATM    5  C   UNL     1      35.625  47.684  66.117  1.00  0.00     0.035 C 
HETATM    6  C   UNL     1      35.715  46.692  67.272  1.00  0.00     0.004 C 
HETATM    7  C   UNL     1      36.295  45.308  66.987  1.00  0.00     0.028 C 
HETATM    8  C   UNL     1      36.080  44.759  65.585  1.00  0.00     0.235 C 
ENDROOT
BRANCH   1   9
HETATM    9  C   UNL     1      37.439  44.312  63.487  1.00  0.00     0.276 C 
BRANCH   9  10
HETATM   10  C   UNL     1      38.341  43.146  63.773  1.00  0.00     0.009 A 
HETATM   11  C   UNL     1      39.734  43.265  63.856  1.00  0.00     0.136 A 
HETATM   12  N   UNL     1      40.610  42.282  64.137  1.00  0.00    -0.216 NA
HETATM   13 CL   UNL     1      40.541  44.761  63.555  1.00  0.00    -0.062 Cl
HETATM   14  C   UNL     1      40.026  41.097  64.395  1.00  0.00     0.159 A 
HETATM   15  N   UNL     1      40.637  39.924  64.772  1.00  0.00    -0.248 N 
HETATM   16  C   UNL     1      38.667  40.824  64.358  1.00  0.00     0.031 A 
HETATM   17  N   UNL     1      39.761  38.902  64.923  1.00  0.00    -0.182 NA
HETATM   18  C   UNL     1      38.571  39.458  64.695  1.00  0.00     0.154 A 
HETATM   19  C   UNL     1      37.791  41.876  64.039  1.00  0.00     0.029 A 
BRANCH  15  20
HETATM   20  C   UNL     1      42.057  39.725  65.040  1.00  0.00     0.104 C 
HETATM   21  C   UNL     1      42.493  38.297  64.716  1.00  0.00     0.034 C 
HETATM   22  C   UNL     1      42.409  40.100  66.480  1.00  0.00     0.034 C 
ENDBRANCH  15  20
ENDBRANCH   9  10
ENDBRANCH   1   9
BRANCH   4  23
HETATM   23  N   UNL     1      38.148  48.005  66.036  1.00  0.00    -0.065 N 
HETATM   24  H   UNL     1      38.181  47.330  66.808  1.00  0.00     0.280 HD
HETATM   25  C   UNL     1      38.282  49.387  66.708  1.00  0.00     0.235 C 
HETATM   26  C   UNL     1      38.941  50.270  65.663  1.00  0.00     0.029 C 
HETATM   27  C   UNL     1      39.626  49.331  64.682  1.00  0.00     0.029 C 
HETATM   28  C   UNL     1      39.464  47.944  65.267  1.00  0.00     0.235 C 
ENDBRANCH   4  23
TORSDOF 4
ENDMDL
MODEL 7
REMARK VINA RESULT:      -7.3      1.998      3.761
REMARK  4 active torsions:
REMARK  status: ('A' for Active; 'I' for Inactive)
REMARK    1  A    between atoms: C_2  and  N_3 
REMARK    2  A    between atoms: C_11  and  C_12 
REMARK    3  A    between atoms: C_12  and  N_13 
REMARK    4  A    between atoms: C_16  and  N_17 
ROOT
HETATM    1  N   UNL     1      26.502  44.993  51.294  1.00  0.00    -0.065 N 
HETATM    2  H   UNL     1      25.877  44.188  51.168  1.00  0.00     0.280 HD
HETATM    3  C   UNL     1      27.915  44.492  51.547  1.00  0.00     0.268 C 
HETATM    4  C   UNL     1      28.104  43.531  52.772  1.00  0.00     0.214 C 
HETATM    5  C   UNL     1      27.863  44.290  54.086  1.00  0.00     0.035 C 
HETATM    6  C   UNL     1      26.422  44.480  54.549  1.00  0.00     0.004 C 
HETATM    7  C   UNL     1      25.394  44.953  53.524  1.00  0.00     0.028 C 
HETATM    8  C   UNL     1      25.912  45.846  52.407  1.00  0.00     0.235 C 
ENDROOT
BRANCH   1   9
HETATM    9  C   UNL     1      26.379  45.700  49.916  1.00  0.00     0.276 C 
BRANCH   9  10
HETATM   10  C   UNL     1      25.061  46.327  49.563  1.00  0.00     0.009 A 
HETATM   11  C   UNL     1      23.929  45.575  49.224  1.00  0.00     0.136 A 
HETATM   12  N   UNL     1      22.706  46.053  48.927  1.00  0.00    -0.216 NA
HETATM   13 CL   UNL     1      23.979  43.855  49.105  1.00  0.00    -0.062 Cl
HETATM   14  C   UNL     1      22.613  47.393  49.021  1.00  0.00     0.159 A 
HETATM   15  N   UNL     1      21.494  48.172  48.843  1.00  0.00    -0.248 N 
HETATM   16  C   UNL     1      23.638  48.269  49.349  1.00  0.00     0.031 A 
HETATM   17  N   UNL     1      21.749  49.495  48.979  1.00  0.00    -0.182 NA
HETATM   18  C   UNL     1      23.040  49.544  49.308  1.00  0.00     0.154 A 
HETATM   19  C   UNL     1      24.903  47.726  49.631  1.00  0.00     0.029 A 
BRANCH  15  20
HETATM   20  C   UNL     1      20.137  47.706  48.575  1.00  0.00     0.104 C 
HETATM   21  C   UNL     1      19.613  48.244  47.245  1.00  0.00     0.034 C 
HETATM   22  C   UNL     1      19.193  48.052  49.726  1.00  0.00     0.034 C 
ENDBRANCH  15  20
ENDBRANCH   9  10
ENDBRANCH   1   9
BRANCH   4  23
HETATM   23  N   UNL     1      27.276  42.231  52.709  1.00  0.00    -0.065 N 
HETATM   24  H   UNL     1      26.361  42.350  53.159  1.00  0.00     0.280 HD
HETATM   25  C   UNL     1      27.936  41.051  53.451  1.00  0.00     0.235 C 
HETATM   26  C   UNL     1      28.861  40.413  52.431  1.00  0.00     0.029 C 
HETATM   27  C   UNL     1      28.357  40.854  51.064  1.00  0.00     0.029 C 
HETATM   28  C   UNL     1      27.074  41.612  51.330  1.00  0.00     0.235 C 
ENDBRANCH   4  23
TORSDOF 4
ENDMDL
MODEL 8
REMARK VINA RESULT:      -7.3      3.106      8.977
REMARK  4 active torsions:
REMARK  status: ('A' for Active; 'I' for Inactive)
REMARK    1  A    between atoms: C_2  and  N_3 
REMARK    2  A    between atoms: C_11  and  C_12 
REMARK    3  A    between atoms: C_12  and  N_13 
REMARK    4  A    between atoms: C_16  and  N_17 
ROOT
HETATM    1  N   UNL     1      21.433  48.773  48.412  1.00  0.00    -0.065 N 
HETATM    2  H   UNL     1      21.059  49.041  47.494  1.00  0.00     0.280 HD
HETATM    3  C   UNL     1      20.356  48.036  49.192  1.00  0.00     0.268 C 
HETATM    4  C   UNL     1      19.009  48.808  49.420  1.00  0.00     0.214 C 
HETATM    5  C   UNL     1      19.234  50.003  50.359  1.00  0.00     0.035 C 
HETATM    6  C   UNL     1      19.788  51.292  49.759  1.00  0.00     0.004 C 
HETATM    7  C   UNL     1      20.985  51.189  48.816  1.00  0.00     0.028 C 
HETATM    8  C   UNL     1      21.952  50.043  49.070  1.00  0.00     0.235 C 
ENDROOT
BRANCH   1   9
HETATM    9  C   UNL     1      22.600  47.829  48.009  1.00  0.00     0.276 C 
BRANCH   9  10
HETATM   10  C   UNL     1      23.330  47.108  49.106  1.00  0.00     0.009 A 
HETATM   11  C   UNL     1      23.161  45.741  49.359  1.00  0.00     0.136 A 
HETATM   12  N   UNL     1      23.796  45.013  50.297  1.00  0.00    -0.216 NA
HETATM   13 CL   UNL     1      22.031  44.782  48.476  1.00  0.00    -0.062 Cl
HETATM   14  C   UNL     1      24.701  45.716  51.005  1.00  0.00     0.159 A 
HETATM   15  N   UNL     1      25.548  45.250  51.982  1.00  0.00    -0.248 N 
HETATM   16  C   UNL     1      24.983  47.067  50.867  1.00  0.00     0.031 A 
HETATM   17  N   UNL     1      26.315  46.228  52.520  1.00  0.00    -0.182 NA
HETATM   18  C   UNL     1      25.986  47.317  51.826  1.00  0.00     0.154 A 
HETATM   19  C   UNL     1      24.281  47.791  49.889  1.00  0.00     0.029 A 
BRANCH  15  20
HETATM   20  C   UNL     1      25.698  43.867  52.424  1.00  0.00     0.104 C 
HETATM   21  C   UNL     1      26.238  43.792  53.851  1.00  0.00     0.034 C 
HETATM   22  C   UNL     1      26.569  43.066  51.456  1.00  0.00     0.034 C 
ENDBRANCH  15  20
ENDBRANCH   9  10
ENDBRANCH   1   9
BRANCH   4  23
HETATM   23  N   UNL     1      18.281  49.232  48.128  1.00  0.00    -0.065 N 
HETATM   24  H   UNL     1      18.706  50.072  47.718  1.00  0.00     0.280 HD
HETATM   25  C   UNL     1      16.802  49.605  48.358  1.00  0.00     0.235 C 
HETATM   26  C   UNL     1      16.045  48.292  48.255  1.00  0.00     0.029 C 
HETATM   27  C   UNL     1      16.948  47.339  47.485  1.00  0.00     0.029 C 
HETATM   28  C   UNL     1      18.133  48.171  47.043  1.00  0.00     0.235 C 
ENDBRANCH   4  23
TORSDOF 4
ENDMDL
MODEL 9
REMARK VINA RESULT:      -7.2     11.348     13.475
REMARK  4 active torsions:
REMARK  status: ('A' for Active; 'I' for Inactive)
REMARK    1  A    between atoms: C_2  and  N_3 
REMARK    2  A    between atoms: C_11  and  C_12 
REMARK    3  A    between atoms: C_12  and  N_13 
REMARK    4  A    between atoms: C_16  and  N_17 
ROOT
HETATM    1  N   UNL     1      29.888  50.625  39.515  1.00  0.00    -0.065 N 
HETATM    2  H   UNL     1      29.818  50.152  40.424  1.00  0.00     0.280 HD
HETATM    3  C   UNL     1      31.350  50.715  39.112  1.00  0.00     0.268 C 
HETATM    4  C   UNL     1      32.307  51.447  40.117  1.00  0.00     0.214 C 
HETATM    5  C   UNL     1      31.966  52.944  40.181  1.00  0.00     0.035 C 
HETATM    6  C   UNL     1      30.810  53.377  41.077  1.00  0.00     0.004 C 
HETATM    7  C   UNL     1      29.504  52.590  40.997  1.00  0.00     0.028 C 
HETATM    8  C   UNL     1      29.173  51.961  39.652  1.00  0.00     0.235 C 
ENDROOT
BRANCH   1   9
HETATM    9  C   UNL     1      29.096  49.653  38.597  1.00  0.00     0.276 C 
BRANCH   9  10
HETATM   10  C   UNL     1      28.840  48.262  39.103  1.00  0.00     0.009 A 
HETATM   11  C   UNL     1      27.947  47.985  40.146  1.00  0.00     0.136 A 
HETATM   12  N   UNL     1      27.637  46.771  40.638  1.00  0.00    -0.216 NA
HETATM   13 CL   UNL     1      27.120  49.239  40.996  1.00  0.00    -0.062 Cl
HETATM   14  C   UNL     1      28.247  45.757  39.996  1.00  0.00     0.159 A 
HETATM   15  N   UNL     1      28.093  44.409  40.217  1.00  0.00    -0.248 N 
HETATM   16  C   UNL     1      29.149  45.870  38.948  1.00  0.00     0.031 A 
HETATM   17  N   UNL     1      28.880  43.653  39.416  1.00  0.00    -0.182 NA
HETATM   18  C   UNL     1      29.497  44.541  38.636  1.00  0.00     0.154 A 
HETATM   19  C   UNL     1      29.458  47.159  38.481  1.00  0.00     0.029 A 
BRANCH  15  20
HETATM   20  C   UNL     1      27.175  43.776  41.160  1.00  0.00     0.104 C 
HETATM   21  C   UNL     1      27.690  42.411  41.611  1.00  0.00     0.034 C 
HETATM   22  C   UNL     1      25.764  43.675  40.580  1.00  0.00     0.034 C 
ENDBRANCH  15  20
ENDBRANCH   9  10
ENDBRANCH   1   9
BRANCH   4  23
HETATM   23  N   UNL     1      32.368  50.819  41.525  1.00  0.00    -0.065 N 
HETATM   24  H   UNL     1      31.552  51.086  42.088  1.00  0.00     0.280 HD
HETATM   25  C   UNL     1      33.589  51.283  42.346  1.00  0.00     0.235 C 
HETATM   26  C   UNL     1      34.705  50.328  41.963  1.00  0.00     0.029 C 
HETATM   27  C   UNL     1      34.030  49.090  41.392  1.00  0.00     0.029 C 
HETATM   28  C   UNL     1      32.546  49.306  41.595  1.00  0.00     0.235 C 
ENDBRANCH   4  23
TORSDOF 4
ENDMDL
MODEL 10
REMARK VINA RESULT:      -7.1      2.719      5.003
REMARK  4 active torsions:
REMARK  status: ('A' for Active; 'I' for Inactive)
REMARK    1  A    between atoms: C_2  and  N_3 
REMARK    2  A    between atoms: C_11  and  C_12 
REMARK    3  A    between atoms: C_12  and  N_13 
REMARK    4  A    between atoms: C_16  and  N_17 
ROOT
HETATM    1  N   UNL     1      26.062  46.017  50.495  1.00  0.00    -0.065 N 
HETATM    2  H   UNL     1      25.136  45.622  50.296  1.00  0.00     0.280 HD
HETATM    3  C   UNL     1      27.129  45.023  50.067  1.00  0.00     0.268 C 
HETATM    4  C   UNL     1      27.057  43.599  50.721  1.00  0.00     0.214 C 
HETATM    5  C   UNL     1      27.374  43.686  52.222  1.00  0.00     0.035 C 
HETATM    6  C   UNL     1      26.252  44.099  53.169  1.00  0.00     0.004 C 
HETATM    7  C   UNL     1      25.397  45.305  52.787  1.00  0.00     0.028 C 
HETATM    8  C   UNL     1      26.082  46.390  51.970  1.00  0.00     0.235 C 
ENDROOT
BRANCH   1   9
HETATM    9  C   UNL     1      26.059  47.283  49.593  1.00  0.00     0.276 C 
BRANCH   9  10
HETATM   10  C   UNL     1      24.731  47.891  49.242  1.00  0.00     0.009 A 
HETATM   11  C   UNL     1      24.602  49.186  48.724  1.00  0.00     0.136 A 
HETATM   12  N   UNL     1      23.459  49.794  48.355  1.00  0.00    -0.216 NA
HETATM   13 CL   UNL     1      25.964  50.227  48.520  1.00  0.00    -0.062 Cl
HETATM   14  C   UNL     1      22.368  49.015  48.483  1.00  0.00     0.159 A 
HETATM   15  N   UNL     1      21.073  49.320  48.136  1.00  0.00    -0.248 N 
HETATM   16  C   UNL     1      22.336  47.718  48.972  1.00  0.00     0.031 A 
HETATM   17  N   UNL     1      20.205  48.322  48.424  1.00  0.00    -0.182 NA
HETATM   18  C   UNL     1      20.977  47.349  48.907  1.00  0.00     0.154 A 
HETATM   19  C   UNL     1      23.551  47.131  49.364  1.00  0.00     0.029 A 
BRANCH  15  20
HETATM   20  C   UNL     1      20.606  50.541  47.487  1.00  0.00     0.104 C 
HETATM   21  C   UNL     1      20.326  51.644  48.506  1.00  0.00     0.034 C 
HETATM   22  C   UNL     1      19.384  50.271  46.608  1.00  0.00     0.034 C 
ENDBRANCH  15  20
ENDBRANCH   9  10
ENDBRANCH   1   9
BRANCH   4  23
HETATM   23  N   UNL     1      25.741  42.835  50.464  1.00  0.00    -0.065 N 
HETATM   24  H   UNL     1      24.986  43.179  51.068  1.00  0.00     0.280 HD
HETATM   25  C   UNL     1      25.843  41.327  50.770  1.00  0.00     0.235 C 
HETATM   26  C   UNL     1      26.361  40.699  49.489  1.00  0.00     0.029 C 
HETATM   27  C   UNL     1      26.055  41.690  48.375  1.00  0.00     0.029 C 
HETATM   28  C   UNL     1      25.244  42.791  49.023  1.00  0.00     0.235 C 
ENDBRANCH   4  23
TORSDOF 4
ENDMDL
