MODEL 1
REMARK VINA RESULT:      -9.2      0.000      0.000
REMARK  7 active torsions:
REMARK  status: ('A' for Active; 'I' for Inactive)
REMARK    1  A    between atoms: C_6  and  C_7 
REMARK    2  A    between atoms: N_13  and  C_15 
REMARK    3  A    between atoms: C_15  and  C_16 
REMARK    4  A    between atoms: C_16  and  N_17 
REMARK       I    between atoms: N_17  and  C_18 
REMARK    5  A    between atoms: C_18  and  C_19 
REMARK    6  A    between atoms: C_19  and  N_20 
REMARK    7  A    between atoms: C_19  and  C_27 
ROOT
HETATM    1  C   UNL     1      25.442  47.519  50.834  1.00  0.00     0.150 C 
ENDROOT
BRANCH   1   2
HETATM    2  C   UNL     1      26.078  46.117  50.978  1.00  0.00     0.255 C 
BRANCH   2   3
HETATM    3  N   UNL     1      25.585  45.352  52.195  1.00  0.00    -0.063 N 
HETATM    4  C   UNL     1      26.611  45.114  53.308  1.00  0.00     0.272 C 
HETATM    5  C   UNL     1      27.774  44.156  52.930  1.00  0.00     0.188 C 
HETATM    6  O   UNL     1      27.268  42.820  52.757  1.00  0.00    -0.339 OA
HETATM    7  C   UNL     1      26.893  42.583  51.465  1.00  0.00     0.077 A 
HETATM    8  C   UNL     1      25.724  43.149  50.949  1.00  0.00     0.001 A 
HETATM    9  C   UNL     1      27.673  41.715  50.706  1.00  0.00     0.037 A 
HETATM   10  C   UNL     1      25.360  42.852  49.628  1.00  0.00     0.012 A 
HETATM   11  C   UNL     1      24.884  44.053  51.799  1.00  0.00     0.276 C 
HETATM   12  C   UNL     1      26.152  42.002  48.853  1.00  0.00     0.001 A 
HETATM   13  C   UNL     1      27.305  41.433  49.392  1.00  0.00     0.003 A 
HETATM   14  H   UNL     1      24.836  45.910  52.626  1.00  0.00     0.280 HD
BRANCH   5  15
HETATM   15  C   UNL     1      28.818  44.174  54.025  1.00  0.00    -0.020 A 
HETATM   16  C   UNL     1      28.921  45.155  54.997  1.00  0.00     0.059 A 
HETATM   17  S   UNL     1      30.191  44.867  56.105  1.00  0.00    -0.113 SA
HETATM   18  C   UNL     1      30.649  43.438  55.292  1.00  0.00     0.050 A 
HETATM   19  C   UNL     1      29.841  43.181  54.207  1.00  0.00     0.017 A 
ENDBRANCH   5  15
ENDBRANCH   2   3
ENDBRANCH   1   2
BRANCH   1  20
HETATM   20  N   UNL     1      24.103  47.518  50.234  1.00  0.00    -0.357 N 
HETATM   21  C   UNL     1      23.692  48.529  49.379  1.00  0.00     0.253 C 
HETATM   22  O   UNL     1      24.378  49.536  49.222  1.00  0.00    -0.271 OA
HETATM   23  H   UNL     1      23.646  46.610  50.161  1.00  0.00     0.162 HD
BRANCH  21  24
HETATM   24  C   UNL     1      22.297  48.339  48.688  1.00  0.00     0.314 C 
BRANCH  24  25
HETATM   25  N   UNL     1      21.648  46.952  48.885  1.00  0.00    -0.050 N 
HETATM   26  H   UNL     1      21.394  46.899  49.880  1.00  0.00     0.281 HD
HETATM   27  C   UNL     1      20.353  46.783  48.091  1.00  0.00     0.262 C 
HETATM   28  C   UNL     1      19.716  45.429  48.420  1.00  0.00     0.195 C 
HETATM   29  O   UNL     1      20.627  44.364  48.138  1.00  0.00    -0.388 OA
HETATM   30  C   UNL     1      21.815  44.452  48.932  1.00  0.00     0.195 C 
HETATM   31  C   UNL     1      22.573  45.754  48.636  1.00  0.00     0.262 C 
ENDBRANCH  24  25
BRANCH  24  32
HETATM   32  C   UNL     1      21.332  49.460  48.990  1.00  0.00    -0.001 A 
HETATM   33  C   UNL     1      20.381  49.363  50.003  1.00  0.00     0.126 A 
HETATM   34  N   UNL     1      19.491  50.331  50.292  1.00  0.00    -0.272 NA
HETATM   35  C   UNL     1      19.520  51.453  49.542  1.00  0.00     0.116 A 
HETATM   36  C   UNL     1      20.414  51.647  48.506  1.00  0.00     0.020 A 
HETATM   37  C   UNL     1      21.331  50.636  48.225  1.00  0.00     0.012 A 
ENDBRANCH  24  32
ENDBRANCH  21  24
ENDBRANCH   1  20
TORSDOF 7
ENDMDL
MODEL 2
REMARK VINA RESULT:      -9.2      1.716      3.494
REMARK  7 active torsions:
REMARK  status: ('A' for Active; 'I' for Inactive)
REMARK    1  A    between atoms: C_6  and  C_7 
REMARK    2  A    between atoms: N_13  and  C_15 
REMARK    3  A    between atoms: C_15  and  C_16 
REMARK    4  A    between atoms: C_16  and  N_17 
REMARK       I    between atoms: N_17  and  C_18 
REMARK    5  A    between atoms: C_18  and  C_19 
REMARK    6  A    between atoms: C_19  and  N_20 
REMARK    7  A    between atoms: C_19  and  C_27 
ROOT
HETATM    1  C   UNL     1      24.589  47.663  49.680  1.00  0.00     0.150 C 
ENDROOT
BRANCH   1   2
HETATM    2  C   UNL     1      25.179  46.274  50.016  1.00  0.00     0.255 C 
BRANCH   2   3
HETATM    3  N   UNL     1      24.564  45.639  51.252  1.00  0.00    -0.063 N 
HETATM    4  C   UNL     1      25.396  45.707  52.536  1.00  0.00     0.272 C 
HETATM    5  C   UNL     1      26.703  44.869  52.512  1.00  0.00     0.188 C 
HETATM    6  O   UNL     1      26.381  43.466  52.490  1.00  0.00    -0.339 OA
HETATM    7  C   UNL     1      26.268  42.992  51.214  1.00  0.00     0.077 A 
HETATM    8  C   UNL     1      25.154  43.314  50.432  1.00  0.00     0.001 A 
HETATM    9  C   UNL     1      27.258  42.133  50.744  1.00  0.00     0.037 A 
HETATM   10  C   UNL     1      25.063  42.779  49.139  1.00  0.00     0.012 A 
HETATM   11  C   UNL     1      24.086  44.214  50.975  1.00  0.00     0.276 C 
HETATM   12  C   UNL     1      26.066  41.937  48.653  1.00  0.00     0.001 A 
HETATM   13  C   UNL     1      27.160  41.613  49.455  1.00  0.00     0.003 A 
HETATM   14  H   UNL     1      23.695  46.150  51.459  1.00  0.00     0.280 HD
BRANCH   5  15
HETATM   15  C   UNL     1      27.529  45.187  53.739  1.00  0.00    -0.020 A 
HETATM   16  C   UNL     1      27.326  46.283  54.561  1.00  0.00     0.059 A 
HETATM   17  S   UNL     1      28.412  46.341  55.880  1.00  0.00    -0.113 SA
HETATM   18  C   UNL     1      29.198  44.916  55.365  1.00  0.00     0.050 A 
HETATM   19  C   UNL     1      28.633  44.402  54.219  1.00  0.00     0.017 A 
ENDBRANCH   5  15
ENDBRANCH   2   3
ENDBRANCH   1   2
BRANCH   1  20
HETATM   20  N   UNL     1      23.134  47.757  49.837  1.00  0.00    -0.357 N 
HETATM   21  C   UNL     1      22.296  47.920  48.743  1.00  0.00     0.253 C 
HETATM   22  O   UNL     1      22.758  48.147  47.627  1.00  0.00    -0.271 OA
HETATM   23  H   UNL     1      22.746  47.339  50.681  1.00  0.00     0.162 HD
BRANCH  21  24
HETATM   24  C   UNL     1      20.754  47.859  49.025  1.00  0.00     0.314 C 
BRANCH  24  25
HETATM   25  N   UNL     1      20.022  49.217  48.973  1.00  0.00    -0.050 N 
HETATM   26  H   UNL     1      19.508  49.226  48.083  1.00  0.00     0.281 HD
HETATM   27  C   UNL     1      18.983  49.374  50.083  1.00  0.00     0.262 C 
HETATM   28  C   UNL     1      18.227  50.695  49.903  1.00  0.00     0.195 C 
HETATM   29  O   UNL     1      19.138  51.797  49.900  1.00  0.00    -0.388 OA
HETATM   30  C   UNL     1      20.071  51.718  48.818  1.00  0.00     0.195 C 
HETATM   31  C   UNL     1      20.931  50.452  48.932  1.00  0.00     0.262 C 
ENDBRANCH  24  25
BRANCH  24  32
HETATM   32  C   UNL     1      20.046  46.806  48.206  1.00  0.00    -0.001 A 
HETATM   33  C   UNL     1      19.919  45.490  48.645  1.00  0.00     0.126 A 
HETATM   34  N   UNL     1      19.312  44.519  47.938  1.00  0.00    -0.272 NA
HETATM   35  C   UNL     1      18.811  44.845  46.727  1.00  0.00     0.116 A 
HETATM   36  C   UNL     1      18.893  46.117  46.192  1.00  0.00     0.020 A 
HETATM   37  C   UNL     1      19.521  47.110  46.941  1.00  0.00     0.012 A 
ENDBRANCH  24  32
ENDBRANCH  21  24
ENDBRANCH   1  20
TORSDOF 7
ENDMDL
MODEL 3
REMARK VINA RESULT:      -9.2      3.327      9.305
REMARK  7 active torsions:
REMARK  status: ('A' for Active; 'I' for Inactive)
REMARK    1  A    between atoms: C_6  and  C_7 
REMARK    2  A    between atoms: N_13  and  C_15 
REMARK    3  A    between atoms: C_15  and  C_16 
REMARK    4  A    between atoms: C_16  and  N_17 
REMARK       I    between atoms: N_17  and  C_18 
REMARK    5  A    between atoms: C_18  and  C_19 
REMARK    6  A    between atoms: C_19  and  N_20 
REMARK    7  A    between atoms: C_19  and  C_27 
ROOT
HETATM    1  C   UNL     1      23.698  48.765  49.215  1.00  0.00     0.150 C 
ENDROOT
BRANCH   1   2
HETATM    2  C   UNL     1      22.289  49.399  49.231  1.00  0.00     0.255 C 
BRANCH   2   3
HETATM    3  N   UNL     1      21.181  48.403  49.529  1.00  0.00    -0.063 N 
HETATM    4  C   UNL     1      20.868  47.385  48.428  1.00  0.00     0.272 C 
HETATM    5  C   UNL     1      20.249  47.989  47.138  1.00  0.00     0.188 C 
HETATM    6  O   UNL     1      18.925  48.480  47.417  1.00  0.00    -0.339 OA
HETATM    7  C   UNL     1      18.941  49.789  47.805  1.00  0.00     0.077 A 
HETATM    8  C   UNL     1      19.399  50.148  49.076  1.00  0.00     0.001 A 
HETATM    9  C   UNL     1      18.430  50.740  46.925  1.00  0.00     0.037 A 
HETATM   10  C   UNL     1      19.367  51.500  49.445  1.00  0.00     0.012 A 
HETATM   11  C   UNL     1      19.911  49.100  50.018  1.00  0.00     0.276 C 
HETATM   12  C   UNL     1      18.880  52.462  48.556  1.00  0.00     0.001 A 
HETATM   13  C   UNL     1      18.410  52.081  47.299  1.00  0.00     0.003 A 
HETATM   14  H   UNL     1      21.479  47.847  50.342  1.00  0.00     0.280 HD
BRANCH   5  15
HETATM   15  C   UNL     1      20.188  46.926  46.063  1.00  0.00    -0.020 A 
HETATM   16  C   UNL     1      20.998  45.804  46.020  1.00  0.00     0.059 A 
HETATM   17  S   UNL     1      20.658  44.784  44.690  1.00  0.00    -0.113 SA
HETATM   18  C   UNL     1      19.438  45.836  44.126  1.00  0.00     0.050 A 
HETATM   19  C   UNL     1      19.286  46.934  44.944  1.00  0.00     0.017 A 
ENDBRANCH   5  15
ENDBRANCH   2   3
ENDBRANCH   1   2
BRANCH   1  20
HETATM   20  N   UNL     1      23.842  47.585  50.074  1.00  0.00    -0.357 N 
HETATM   21  C   UNL     1      25.026  47.317  50.744  1.00  0.00     0.253 C 
HETATM   22  O   UNL     1      26.040  47.973  50.515  1.00  0.00    -0.271 OA
HETATM   23  H   UNL     1      22.978  47.196  50.450  1.00  0.00     0.162 HD
BRANCH  21  24
HETATM   24  C   UNL     1      25.008  46.111  51.746  1.00  0.00     0.314 C 
BRANCH  24  25
HETATM   25  N   UNL     1      25.278  44.728  51.114  1.00  0.00    -0.050 N 
HETATM   26  H   UNL     1      25.791  44.189  51.824  1.00  0.00     0.281 HD
HETATM   27  C   UNL     1      23.997  43.951  50.814  1.00  0.00     0.262 C 
HETATM   28  C   UNL     1      24.348  42.554  50.291  1.00  0.00     0.195 C 
HETATM   29  O   UNL     1      25.170  42.646  49.126  1.00  0.00    -0.388 OA
HETATM   30  C   UNL     1      26.415  43.296  49.400  1.00  0.00     0.195 C 
HETATM   31  C   UNL     1      26.185  44.737  49.877  1.00  0.00     0.262 C 
ENDBRANCH  24  25
BRANCH  24  32
HETATM   32  C   UNL     1      25.860  46.347  52.970  1.00  0.00    -0.001 A 
HETATM   33  C   UNL     1      25.712  47.480  53.766  1.00  0.00     0.126 A 
HETATM   34  N   UNL     1      26.462  47.736  54.853  1.00  0.00    -0.272 NA
HETATM   35  C   UNL     1      27.422  46.844  55.177  1.00  0.00     0.116 A 
HETATM   36  C   UNL     1      27.662  45.694  54.449  1.00  0.00     0.020 A 
HETATM   37  C   UNL     1      26.871  45.443  53.329  1.00  0.00     0.012 A 
ENDBRANCH  24  32
ENDBRANCH  21  24
ENDBRANCH   1  20
TORSDOF 7
ENDMDL
MODEL 4
REMARK VINA RESULT:      -9.0      2.590      4.739
REMARK  7 active torsions:
REMARK  status: ('A' for Active; 'I' for Inactive)
REMARK    1  A    between atoms: C_6  and  C_7 
REMARK    2  A    between atoms: N_13  and  C_15 
REMARK    3  A    between atoms: C_15  and  C_16 
REMARK    4  A    between atoms: C_16  and  N_17 
REMARK       I    between atoms: N_17  and  C_18 
REMARK    5  A    between atoms: C_18  and  C_19 
REMARK    6  A    between atoms: C_19  and  N_20 
REMARK    7  A    between atoms: C_19  and  C_27 
ROOT
HETATM    1  C   UNL     1      22.358  44.315  49.347  1.00  0.00     0.150 C 
ENDROOT
BRANCH   1   2
HETATM    2  C   UNL     1      23.625  43.698  49.983  1.00  0.00     0.255 C 
BRANCH   2   3
HETATM    3  N   UNL     1      24.855  43.796  49.098  1.00  0.00    -0.063 N 
HETATM    4  C   UNL     1      25.695  42.522  48.958  1.00  0.00     0.272 C 
HETATM    5  C   UNL     1      26.420  42.072  50.255  1.00  0.00     0.188 C 
HETATM    6  O   UNL     1      27.449  43.021  50.592  1.00  0.00    -0.339 OA
HETATM    7  C   UNL     1      26.980  44.007  51.412  1.00  0.00     0.077 A 
HETATM    8  C   UNL     1      26.145  45.011  50.911  1.00  0.00     0.001 A 
HETATM    9  C   UNL     1      27.409  44.017  52.736  1.00  0.00     0.037 A 
HETATM   10  C   UNL     1      25.714  46.023  51.781  1.00  0.00     0.012 A 
HETATM   11  C   UNL     1      25.726  44.996  49.472  1.00  0.00     0.276 C 
HETATM   12  C   UNL     1      26.120  46.024  53.117  1.00  0.00     0.001 A 
HETATM   13  C   UNL     1      26.968  45.024  53.593  1.00  0.00     0.003 A 
HETATM   14  H   UNL     1      24.532  44.019  48.147  1.00  0.00     0.280 HD
BRANCH   5  15
HETATM   15  C   UNL     1      27.030  40.704  50.043  1.00  0.00    -0.020 A 
HETATM   16  C   UNL     1      26.438  39.682  49.320  1.00  0.00     0.059 A 
HETATM   17  S   UNL     1      27.400  38.270  49.246  1.00  0.00    -0.113 SA
HETATM   18  C   UNL     1      28.619  38.986  50.203  1.00  0.00     0.050 A 
HETATM   19  C   UNL     1      28.302  40.278  50.560  1.00  0.00     0.017 A 
ENDBRANCH   5  15
ENDBRANCH   2   3
ENDBRANCH   1   2
BRANCH   1  20
HETATM   20  N   UNL     1      22.360  45.781  49.293  1.00  0.00    -0.357 N 
HETATM   21  C   UNL     1      21.709  46.469  48.281  1.00  0.00     0.253 C 
HETATM   22  O   UNL     1      21.245  45.871  47.312  1.00  0.00    -0.271 OA
HETATM   23  H   UNL     1      22.516  46.262  50.178  1.00  0.00     0.162 HD
BRANCH  21  24
HETATM   24  C   UNL     1      21.657  48.031  48.414  1.00  0.00     0.314 C 
BRANCH  24  25
HETATM   25  N   UNL     1      20.729  48.565  49.527  1.00  0.00    -0.050 N 
HETATM   26  H   UNL     1      21.214  48.374  50.413  1.00  0.00     0.281 HD
HETATM   27  C   UNL     1      20.526  50.078  49.455  1.00  0.00     0.262 C 
HETATM   28  C   UNL     1      19.686  50.546  50.648  1.00  0.00     0.195 C 
HETATM   29  O   UNL     1      18.428  49.865  50.674  1.00  0.00    -0.388 OA
HETATM   30  C   UNL     1      18.589  48.451  50.826  1.00  0.00     0.195 C 
HETATM   31  C   UNL     1      19.371  47.862  49.644  1.00  0.00     0.262 C 
ENDBRANCH  24  25
BRANCH  24  32
HETATM   32  C   UNL     1      23.026  48.664  48.471  1.00  0.00    -0.001 A 
HETATM   33  C   UNL     1      24.006  48.229  49.360  1.00  0.00     0.126 A 
HETATM   34  N   UNL     1      25.231  48.777  49.454  1.00  0.00    -0.272 NA
HETATM   35  C   UNL     1      25.515  49.820  48.645  1.00  0.00     0.116 A 
HETATM   36  C   UNL     1      24.612  50.338  47.735  1.00  0.00     0.020 A 
HETATM   37  C   UNL     1      23.351  49.754  47.648  1.00  0.00     0.012 A 
ENDBRANCH  24  32
ENDBRANCH  21  24
ENDBRANCH   1  20
TORSDOF 7
ENDMDL
MODEL 5
REMARK VINA RESULT:      -8.9      3.446      8.287
REMARK  7 active torsions:
REMARK  status: ('A' for Active; 'I' for Inactive)
REMARK    1  A    between atoms: C_6  and  C_7 
REMARK    2  A    between atoms: N_13  and  C_15 
REMARK    3  A    between atoms: C_15  and  C_16 
REMARK    4  A    between atoms: C_16  and  N_17 
REMARK       I    between atoms: N_17  and  C_18 
REMARK    5  A    between atoms: C_18  and  C_19 
REMARK    6  A    between atoms: C_19  and  N_20 
REMARK    7  A    between atoms: C_19  and  C_27 
ROOT
HETATM    1  C   UNL     1      22.643  44.024  49.532  1.00  0.00     0.150 C 
ENDROOT
BRANCH   1   2
HETATM    2  C   UNL     1      21.597  44.556  48.526  1.00  0.00     0.255 C 
BRANCH   2   3
HETATM    3  N   UNL     1      22.176  45.520  47.505  1.00  0.00    -0.063 N 
HETATM    4  C   UNL     1      22.061  47.012  47.838  1.00  0.00     0.272 C 
HETATM    5  C   UNL     1      20.612  47.571  47.840  1.00  0.00     0.188 C 
HETATM    6  O   UNL     1      20.087  47.567  46.499  1.00  0.00    -0.339 OA
HETATM    7  C   UNL     1      19.443  46.398  46.211  1.00  0.00     0.077 A 
HETATM    8  C   UNL     1      20.167  45.223  45.986  1.00  0.00     0.001 A 
HETATM    9  C   UNL     1      18.057  46.428  46.084  1.00  0.00     0.037 A 
HETATM   10  C   UNL     1      19.467  44.054  45.660  1.00  0.00     0.012 A 
HETATM   11  C   UNL     1      21.662  45.226  46.095  1.00  0.00     0.276 C 
HETATM   12  C   UNL     1      18.074  44.072  45.557  1.00  0.00     0.001 A 
HETATM   13  C   UNL     1      17.370  45.258  45.767  1.00  0.00     0.003 A 
HETATM   14  H   UNL     1      23.184  45.330  47.440  1.00  0.00     0.280 HD
BRANCH   5  15
HETATM   15  C   UNL     1      20.616  48.981  48.387  1.00  0.00    -0.020 A 
HETATM   16  C   UNL     1      19.831  49.418  49.440  1.00  0.00     0.059 A 
HETATM   17  S   UNL     1      20.093  51.062  49.833  1.00  0.00    -0.113 SA
HETATM   18  C   UNL     1      21.244  51.233  48.584  1.00  0.00     0.050 A 
HETATM   19  C   UNL     1      21.432  50.057  47.892  1.00  0.00     0.017 A 
ENDBRANCH   5  15
ENDBRANCH   2   3
ENDBRANCH   1   2
BRANCH   1  20
HETATM   20  N   UNL     1      23.324  45.066  50.306  1.00  0.00    -0.357 N 
HETATM   21  C   UNL     1      24.558  45.567  49.918  1.00  0.00     0.253 C 
HETATM   22  O   UNL     1      25.189  45.042  49.003  1.00  0.00    -0.271 OA
HETATM   23  H   UNL     1      22.729  45.653  50.889  1.00  0.00     0.162 HD
BRANCH  21  24
HETATM   24  C   UNL     1      25.114  46.780  50.742  1.00  0.00     0.314 C 
BRANCH  24  25
HETATM   25  N   UNL     1      26.103  46.411  51.869  1.00  0.00    -0.050 N 
HETATM   26  H   UNL     1      27.022  46.751  51.560  1.00  0.00     0.281 HD
HETATM   27  C   UNL     1      25.793  47.120  53.187  1.00  0.00     0.262 C 
HETATM   28  C   UNL     1      26.874  46.788  54.221  1.00  0.00     0.195 C 
HETATM   29  O   UNL     1      26.966  45.375  54.415  1.00  0.00    -0.388 OA
HETATM   30  C   UNL     1      27.338  44.693  53.213  1.00  0.00     0.195 C 
HETATM   31  C   UNL     1      26.285  44.908  52.117  1.00  0.00     0.262 C 
ENDBRANCH  24  25
BRANCH  24  32
HETATM   32  C   UNL     1      25.644  47.893  49.871  1.00  0.00    -0.001 A 
HETATM   33  C   UNL     1      27.008  48.134  49.730  1.00  0.00     0.126 A 
HETATM   34  N   UNL     1      27.521  49.126  48.978  1.00  0.00    -0.272 NA
HETATM   35  C   UNL     1      26.654  49.938  48.336  1.00  0.00     0.116 A 
HETATM   36  C   UNL     1      25.281  49.794  48.417  1.00  0.00     0.020 A 
HETATM   37  C   UNL     1      24.770  48.759  49.196  1.00  0.00     0.012 A 
ENDBRANCH  24  32
ENDBRANCH  21  24
ENDBRANCH   1  20
TORSDOF 7
ENDMDL
MODEL 6
REMARK VINA RESULT:      -8.8      4.613     10.243
REMARK  7 active torsions:
REMARK  status: ('A' for Active; 'I' for Inactive)
REMARK    1  A    between atoms: C_6  and  C_7 
REMARK    2  A    between atoms: N_13  and  C_15 
REMARK    3  A    between atoms: C_15  and  C_16 
REMARK    4  A    between atoms: C_16  and  N_17 
REMARK       I    between atoms: N_17  and  C_18 
REMARK    5  A    between atoms: C_18  and  C_19 
REMARK    6  A    between atoms: C_19  and  N_20 
REMARK    7  A    between atoms: C_19  and  C_27 
ROOT
HETATM    1  C   UNL     1      20.506  45.919  48.302  1.00  0.00     0.150 C 
ENDROOT
BRANCH   1   2
HETATM    2  C   UNL     1      19.502  46.970  47.777  1.00  0.00     0.255 C 
BRANCH   2   3
HETATM    3  N   UNL     1      18.299  47.163  48.685  1.00  0.00    -0.063 N 
HETATM    4  C   UNL     1      16.979  47.522  47.996  1.00  0.00     0.272 C 
HETATM    5  C   UNL     1      16.951  48.924  47.328  1.00  0.00     0.188 C 
HETATM    6  O   UNL     1      16.997  49.947  48.340  1.00  0.00    -0.339 OA
HETATM    7  C   UNL     1      18.280  50.312  48.633  1.00  0.00     0.077 A 
HETATM    8  C   UNL     1      19.108  49.465  49.377  1.00  0.00     0.001 A 
HETATM    9  C   UNL     1      18.712  51.571  48.227  1.00  0.00     0.037 A 
HETATM   10  C   UNL     1      20.407  49.894  49.683  1.00  0.00     0.012 A 
HETATM   11  C   UNL     1      18.607  48.127  49.831  1.00  0.00     0.276 C 
HETATM   12  C   UNL     1      20.855  51.146  49.256  1.00  0.00     0.001 A 
HETATM   13  C   UNL     1      20.008  51.984  48.531  1.00  0.00     0.003 A 
HETATM   14  H   UNL     1      18.127  46.268  49.161  1.00  0.00     0.280 HD
BRANCH   5  15
HETATM   15  C   UNL     1      15.686  49.068  46.509  1.00  0.00    -0.020 A 
HETATM   16  C   UNL     1      14.835  48.024  46.189  1.00  0.00     0.059 A 
HETATM   17  S   UNL     1      13.479  48.523  45.275  1.00  0.00    -0.113 SA
HETATM   18  C   UNL     1      14.016  50.144  45.263  1.00  0.00     0.050 A 
HETATM   19  C   UNL     1      15.197  50.300  45.954  1.00  0.00     0.017 A 
ENDBRANCH   5  15
ENDBRANCH   2   3
ENDBRANCH   1   2
BRANCH   1  20
HETATM   20  N   UNL     1      21.536  46.458  49.196  1.00  0.00    -0.357 N 
HETATM   21  C   UNL     1      22.885  46.357  48.892  1.00  0.00     0.253 C 
HETATM   22  O   UNL     1      23.265  45.675  47.943  1.00  0.00    -0.271 OA
HETATM   23  H   UNL     1      21.239  47.206  49.823  1.00  0.00     0.162 HD
BRANCH  21  24
HETATM   24  C   UNL     1      23.879  47.101  49.850  1.00  0.00     0.314 C 
BRANCH  24  25
HETATM   25  N   UNL     1      24.804  46.184  50.679  1.00  0.00    -0.050 N 
HETATM   26  H   UNL     1      25.663  46.076  50.125  1.00  0.00     0.281 HD
HETATM   27  C   UNL     1      25.216  46.804  52.013  1.00  0.00     0.262 C 
HETATM   28  C   UNL     1      26.214  45.886  52.727  1.00  0.00     0.195 C 
HETATM   29  O   UNL     1      25.648  44.588  52.924  1.00  0.00    -0.388 OA
HETATM   30  C   UNL     1      25.331  43.949  51.683  1.00  0.00     0.195 C 
HETATM   31  C   UNL     1      24.284  44.759  50.905  1.00  0.00     0.262 C 
ENDBRANCH  24  25
BRANCH  24  32
HETATM   32  C   UNL     1      24.648  48.203  49.163  1.00  0.00    -0.001 A 
HETATM   33  C   UNL     1      24.027  49.124  48.322  1.00  0.00     0.126 A 
HETATM   34  N   UNL     1      24.679  50.109  47.677  1.00  0.00    -0.272 NA
HETATM   35  C   UNL     1      26.015  50.195  47.850  1.00  0.00     0.116 A 
HETATM   36  C   UNL     1      26.731  49.326  48.653  1.00  0.00     0.020 A 
HETATM   37  C   UNL     1      26.038  48.316  49.316  1.00  0.00     0.012 A 
ENDBRANCH  24  32
ENDBRANCH  21  24
ENDBRANCH   1  20
TORSDOF 7
ENDMDL
MODEL 7
REMARK VINA RESULT:      -8.8      4.671     10.429
REMARK  7 active torsions:
REMARK  status: ('A' for Active; 'I' for Inactive)
REMARK    1  A    between atoms: C_6  and  C_7 
REMARK    2  A    between atoms: N_13  and  C_15 
REMARK    3  A    between atoms: C_15  and  C_16 
REMARK    4  A    between atoms: C_16  and  N_17 
REMARK       I    between atoms: N_17  and  C_18 
REMARK    5  A    between atoms: C_18  and  C_19 
REMARK    6  A    between atoms: C_19  and  N_20 
REMARK    7  A    between atoms: C_19  and  C_27 
ROOT
HETATM    1  C   UNL     1      21.219  50.455  49.818  1.00  0.00     0.150 C 
ENDROOT
BRANCH   1   2
HETATM    2  C   UNL     1      19.708  50.777  49.872  1.00  0.00     0.255 C 
BRANCH   2   3
HETATM    3  N   UNL     1      19.252  51.730  48.780  1.00  0.00    -0.063 N 
HETATM    4  C   UNL     1      18.104  52.678  49.141  1.00  0.00     0.272 C 
HETATM    5  C   UNL     1      16.736  51.983  49.382  1.00  0.00     0.188 C 
HETATM    6  O   UNL     1      16.241  51.441  48.144  1.00  0.00    -0.339 OA
HETATM    7  C   UNL     1      16.656  50.154  47.952  1.00  0.00     0.077 A 
HETATM    8  C   UNL     1      17.981  49.879  47.603  1.00  0.00     0.001 A 
HETATM    9  C   UNL     1      15.708  49.138  48.051  1.00  0.00     0.037 A 
HETATM   10  C   UNL     1      18.356  48.546  47.384  1.00  0.00     0.012 A 
HETATM   11  C   UNL     1      18.974  50.994  47.469  1.00  0.00     0.276 C 
HETATM   12  C   UNL     1      17.416  47.520  47.507  1.00  0.00     0.001 A 
HETATM   13  C   UNL     1      16.094  47.817  47.838  1.00  0.00     0.003 A 
HETATM   14  H   UNL     1      20.050  52.338  48.551  1.00  0.00     0.280 HD
BRANCH   5  15
HETATM   15  C   UNL     1      15.750  52.990  49.934  1.00  0.00    -0.020 A 
HETATM   16  C   UNL     1      14.462  52.685  50.343  1.00  0.00     0.059 A 
HETATM   17  S   UNL     1      13.613  54.043  50.943  1.00  0.00    -0.113 SA
HETATM   18  C   UNL     1      14.941  55.073  50.643  1.00  0.00     0.050 A 
HETATM   19  C   UNL     1      16.011  54.392  50.108  1.00  0.00     0.017 A 
ENDBRANCH   5  15
ENDBRANCH   2   3
ENDBRANCH   1   2
BRANCH   1  20
HETATM   20  N   UNL     1      21.529  49.050  49.537  1.00  0.00    -0.357 N 
HETATM   21  C   UNL     1      22.225  48.676  48.397  1.00  0.00     0.253 C 
HETATM   22  O   UNL     1      22.464  49.493  47.511  1.00  0.00    -0.271 OA
HETATM   23  H   UNL     1      21.558  48.427  50.343  1.00  0.00     0.162 HD
BRANCH  21  24
HETATM   24  C   UNL     1      22.624  47.163  48.283  1.00  0.00     0.314 C 
BRANCH  24  25
HETATM   25  N   UNL     1      23.326  46.573  49.526  1.00  0.00    -0.050 N 
HETATM   26  H   UNL     1      22.611  46.540  50.263  1.00  0.00     0.281 HD
HETATM   27  C   UNL     1      23.805  45.138  49.312  1.00  0.00     0.262 C 
HETATM   28  C   UNL     1      24.391  44.587  50.616  1.00  0.00     0.195 C 
HETATM   29  O   UNL     1      25.462  45.416  51.074  1.00  0.00    -0.388 OA
HETATM   30  C   UNL     1      25.022  46.747  51.363  1.00  0.00     0.195 C 
HETATM   31  C   UNL     1      24.466  47.423  50.101  1.00  0.00     0.262 C 
ENDBRANCH  24  25
BRANCH  24  32
HETATM   32  C   UNL     1      21.490  46.287  47.808  1.00  0.00    -0.001 A 
HETATM   33  C   UNL     1      20.641  45.632  48.697  1.00  0.00     0.126 A 
HETATM   34  N   UNL     1      19.631  44.828  48.315  1.00  0.00    -0.272 NA
HETATM   35  C   UNL     1      19.444  44.642  46.991  1.00  0.00     0.116 A 
HETATM   36  C   UNL     1      20.236  45.235  46.025  1.00  0.00     0.020 A 
HETATM   37  C   UNL     1      21.274  46.067  46.440  1.00  0.00     0.012 A 
ENDBRANCH  24  32
ENDBRANCH  21  24
ENDBRANCH   1  20
TORSDOF 7
ENDMDL
MODEL 8
REMARK VINA RESULT:      -8.8      3.798      8.009
REMARK  7 active torsions:
REMARK  status: ('A' for Active; 'I' for Inactive)
REMARK    1  A    between atoms: C_6  and  C_7 
REMARK    2  A    between atoms: N_13  and  C_15 
REMARK    3  A    between atoms: C_15  and  C_16 
REMARK    4  A    between atoms: C_16  and  N_17 
REMARK       I    between atoms: N_17  and  C_18 
REMARK    5  A    between atoms: C_18  and  C_19 
REMARK    6  A    between atoms: C_19  and  N_20 
REMARK    7  A    between atoms: C_19  and  C_27 
ROOT
HETATM    1  C   UNL     1      27.809  42.471  51.010  1.00  0.00     0.150 C 
ENDROOT
BRANCH   1   2
HETATM    2  C   UNL     1      27.566  43.986  51.202  1.00  0.00     0.255 C 
BRANCH   2   3
HETATM    3  N   UNL     1      26.095  44.367  51.201  1.00  0.00    -0.063 N 
HETATM    4  C   UNL     1      25.712  45.591  50.362  1.00  0.00     0.272 C 
HETATM    5  C   UNL     1      26.267  46.943  50.888  1.00  0.00     0.188 C 
HETATM    6  O   UNL     1      25.631  47.278  52.135  1.00  0.00    -0.339 OA
HETATM    7  C   UNL     1      26.322  46.785  53.205  1.00  0.00     0.077 A 
HETATM    8  C   UNL     1      26.297  45.418  53.499  1.00  0.00     0.001 A 
HETATM    9  C   UNL     1      26.994  47.689  54.024  1.00  0.00     0.037 A 
HETATM   10  C   UNL     1      26.994  44.960  54.627  1.00  0.00     0.012 A 
HETATM   11  C   UNL     1      25.537  44.471  52.620  1.00  0.00     0.276 C 
HETATM   12  C   UNL     1      27.691  45.859  55.437  1.00  0.00     0.001 A 
HETATM   13  C   UNL     1      27.689  47.221  55.137  1.00  0.00     0.003 A 
HETATM   14  H   UNL     1      25.574  43.579  50.793  1.00  0.00     0.280 HD
BRANCH   5  15
HETATM   15  C   UNL     1      26.002  48.028  49.867  1.00  0.00    -0.020 A 
HETATM   16  C   UNL     1      24.743  48.411  49.437  1.00  0.00     0.059 A 
HETATM   17  S   UNL     1      24.786  49.686  48.297  1.00  0.00    -0.113 SA
HETATM   18  C   UNL     1      26.492  49.733  48.334  1.00  0.00     0.050 A 
HETATM   19  C   UNL     1      27.015  48.805  49.206  1.00  0.00     0.017 A 
ENDBRANCH   5  15
ENDBRANCH   2   3
ENDBRANCH   1   2
BRANCH   1  20
HETATM   20  N   UNL     1      27.144  41.895  49.836  1.00  0.00    -0.357 N 
HETATM   21  C   UNL     1      26.204  40.883  49.960  1.00  0.00     0.253 C 
HETATM   22  O   UNL     1      26.016  40.331  51.042  1.00  0.00    -0.271 OA
HETATM   23  H   UNL     1      27.107  42.486  49.006  1.00  0.00     0.162 HD
BRANCH  21  24
HETATM   24  C   UNL     1      25.457  40.454  48.650  1.00  0.00     0.314 C 
BRANCH  24  25
HETATM   25  N   UNL     1      24.403  41.458  48.135  1.00  0.00    -0.050 N 
HETATM   26  H   UNL     1      24.905  42.093  47.502  1.00  0.00     0.281 HD
HETATM   27  C   UNL     1      23.302  40.793  47.310  1.00  0.00     0.262 C 
HETATM   28  C   UNL     1      22.358  41.861  46.748  1.00  0.00     0.195 C 
HETATM   29  O   UNL     1      21.797  42.643  47.806  1.00  0.00    -0.388 OA
HETATM   30  C   UNL     1      22.803  43.344  48.544  1.00  0.00     0.195 C 
HETATM   31  C   UNL     1      23.778  42.361  49.207  1.00  0.00     0.262 C 
ENDBRANCH  24  25
BRANCH  24  32
HETATM   32  C   UNL     1      26.396  40.013  47.553  1.00  0.00    -0.001 A 
HETATM   33  C   UNL     1      26.753  40.855  46.503  1.00  0.00     0.126 A 
HETATM   34  N   UNL     1      27.572  40.494  45.497  1.00  0.00    -0.272 NA
HETATM   35  C   UNL     1      28.060  39.236  45.507  1.00  0.00     0.116 A 
HETATM   36  C   UNL     1      27.760  38.316  46.494  1.00  0.00     0.020 A 
HETATM   37  C   UNL     1      26.915  38.709  47.530  1.00  0.00     0.012 A 
ENDBRANCH  24  32
ENDBRANCH  21  24
ENDBRANCH   1  20
TORSDOF 7
ENDMDL
MODEL 9
REMARK VINA RESULT:      -8.7      3.544      9.731
REMARK  7 active torsions:
REMARK  status: ('A' for Active; 'I' for Inactive)
REMARK    1  A    between atoms: C_6  and  C_7 
REMARK    2  A    between atoms: N_13  and  C_15 
REMARK    3  A    between atoms: C_15  and  C_16 
REMARK    4  A    between atoms: C_16  and  N_17 
REMARK       I    between atoms: N_17  and  C_18 
REMARK    5  A    between atoms: C_18  and  C_19 
REMARK    6  A    between atoms: C_19  and  N_20 
REMARK    7  A    between atoms: C_19  and  C_27 
ROOT
HETATM    1  C   UNL     1      23.101  48.860  49.579  1.00  0.00     0.150 C 
ENDROOT
BRANCH   1   2
HETATM    2  C   UNL     1      21.804  48.821  48.738  1.00  0.00     0.255 C 
BRANCH   2   3
HETATM    3  N   UNL     1      20.640  48.157  49.452  1.00  0.00    -0.063 N 
HETATM    4  C   UNL     1      19.848  47.123  48.644  1.00  0.00     0.272 C 
HETATM    5  C   UNL     1      19.042  47.705  47.451  1.00  0.00     0.188 C 
HETATM    6  O   UNL     1      17.966  48.525  47.944  1.00  0.00    -0.339 OA
HETATM    7  C   UNL     1      18.346  49.828  48.089  1.00  0.00     0.077 A 
HETATM    8  C   UNL     1      19.188  50.211  49.138  1.00  0.00     0.001 A 
HETATM    9  C   UNL     1      17.821  50.766  47.204  1.00  0.00     0.037 A 
HETATM   10  C   UNL     1      19.526  51.565  49.268  1.00  0.00     0.012 A 
HETATM   11  C   UNL     1      19.712  49.186  50.098  1.00  0.00     0.276 C 
HETATM   12  C   UNL     1      19.023  52.507  48.367  1.00  0.00     0.001 A 
HETATM   13  C   UNL     1      18.171  52.108  47.338  1.00  0.00     0.003 A 
HETATM   14  H   UNL     1      21.025  47.642  50.255  1.00  0.00     0.280 HD
BRANCH   5  15
HETATM   15  C   UNL     1      18.487  46.572  46.617  1.00  0.00    -0.020 A 
HETATM   16  C   UNL     1      19.091  45.335  46.470  1.00  0.00     0.059 A 
HETATM   17  S   UNL     1      18.193  44.265  45.483  1.00  0.00    -0.113 SA
HETATM   18  C   UNL     1      16.989  45.444  45.208  1.00  0.00     0.050 A 
HETATM   19  C   UNL     1      17.262  46.622  45.866  1.00  0.00     0.017 A 
ENDBRANCH   5  15
ENDBRANCH   2   3
ENDBRANCH   1   2
BRANCH   1  20
HETATM   20  N   UNL     1      23.626  47.541  49.946  1.00  0.00    -0.357 N 
HETATM   21  C   UNL     1      24.985  47.268  49.917  1.00  0.00     0.253 C 
HETATM   22  O   UNL     1      25.777  48.074  49.434  1.00  0.00    -0.271 OA
HETATM   23  H   UNL     1      23.035  46.977  50.556  1.00  0.00     0.162 HD
BRANCH  21  24
HETATM   24  C   UNL     1      25.433  45.872  50.472  1.00  0.00     0.314 C 
BRANCH  24  25
HETATM   25  N   UNL     1      25.681  45.817  51.995  1.00  0.00    -0.050 N 
HETATM   26  H   UNL     1      24.826  45.421  52.405  1.00  0.00     0.281 HD
HETATM   27  C   UNL     1      26.827  44.881  52.377  1.00  0.00     0.262 C 
HETATM   28  C   UNL     1      26.941  44.798  53.903  1.00  0.00     0.195 C 
HETATM   29  O   UNL     1      27.140  46.098  54.463  1.00  0.00    -0.388 OA
HETATM   30  C   UNL     1      26.040  46.972  54.190  1.00  0.00     0.195 C 
HETATM   31  C   UNL     1      25.869  47.178  52.678  1.00  0.00     0.262 C 
ENDBRANCH  24  25
BRANCH  24  32
HETATM   32  C   UNL     1      24.549  44.740  50.005  1.00  0.00    -0.001 A 
HETATM   33  C   UNL     1      23.685  44.072  50.869  1.00  0.00     0.126 A 
HETATM   34  N   UNL     1      22.895  43.048  50.497  1.00  0.00    -0.272 NA
HETATM   35  C   UNL     1      22.959  42.642  49.212  1.00  0.00     0.116 A 
HETATM   36  C   UNL     1      23.790  43.227  48.274  1.00  0.00     0.020 A 
HETATM   37  C   UNL     1      24.597  44.289  48.677  1.00  0.00     0.012 A 
ENDBRANCH  24  32
ENDBRANCH  21  24
ENDBRANCH   1  20
TORSDOF 7
ENDMDL
MODEL 10
REMARK VINA RESULT:      -8.7      4.888      8.771
REMARK  7 active torsions:
REMARK  status: ('A' for Active; 'I' for Inactive)
REMARK    1  A    between atoms: C_6  and  C_7 
REMARK    2  A    between atoms: N_13  and  C_15 
REMARK    3  A    between atoms: C_15  and  C_16 
REMARK    4  A    between atoms: C_16  and  N_17 
REMARK       I    between atoms: N_17  and  C_18 
REMARK    5  A    between atoms: C_18  and  C_19 
REMARK    6  A    between atoms: C_19  and  N_20 
REMARK    7  A    between atoms: C_19  and  C_27 
ROOT
HETATM    1  C   UNL     1      28.954  40.284  51.468  1.00  0.00     0.150 C 
ENDROOT
BRANCH   1   2
HETATM    2  C   UNL     1      28.082  39.902  50.251  1.00  0.00     0.255 C 
BRANCH   2   3
HETATM    3  N   UNL     1      28.123  40.929  49.131  1.00  0.00    -0.063 N 
HETATM    4  C   UNL     1      26.911  41.860  49.020  1.00  0.00     0.272 C 
HETATM    5  C   UNL     1      25.588  41.162  48.601  1.00  0.00     0.188 C 
HETATM    6  O   UNL     1      25.688  40.707  47.239  1.00  0.00    -0.339 OA
HETATM    7  C   UNL     1      26.172  39.432  47.164  1.00  0.00     0.077 A 
HETATM    8  C   UNL     1      27.524  39.170  47.406  1.00  0.00     0.001 A 
HETATM    9  C   UNL     1      25.297  38.420  46.780  1.00  0.00     0.037 A 
HETATM   10  C   UNL     1      27.985  37.851  47.286  1.00  0.00     0.012 A 
HETATM   11  C   UNL     1      28.453  40.284  47.785  1.00  0.00     0.276 C 
HETATM   12  C   UNL     1      27.105  36.828  46.926  1.00  0.00     0.001 A 
HETATM   13  C   UNL     1      25.764  37.112  46.671  1.00  0.00     0.003 A 
HETATM   14  H   UNL     1      28.928  41.544  49.309  1.00  0.00     0.280 HD
BRANCH   5  15
HETATM   15  C   UNL     1      24.439  42.138  48.735  1.00  0.00    -0.020 A 
HETATM   16  C   UNL     1      23.739  42.679  47.669  1.00  0.00     0.059 A 
HETATM   17  S   UNL     1      22.480  43.727  48.160  1.00  0.00    -0.113 SA
HETATM   18  C   UNL     1      22.862  43.502  49.808  1.00  0.00     0.050 A 
HETATM   19  C   UNL     1      23.919  42.635  49.979  1.00  0.00     0.017 A 
ENDBRANCH   5  15
ENDBRANCH   2   3
ENDBRANCH   1   2
BRANCH   1  20
HETATM   20  N   UNL     1      28.884  41.700  51.844  1.00  0.00    -0.357 N 
HETATM   21  C   UNL     1      28.678  42.092  53.158  1.00  0.00     0.253 C 
HETATM   22  O   UNL     1      28.391  41.266  54.021  1.00  0.00    -0.271 OA
HETATM   23  H   UNL     1      29.348  42.354  51.214  1.00  0.00     0.162 HD
BRANCH  21  24
HETATM   24  C   UNL     1      28.771  43.629  53.455  1.00  0.00     0.314 C 
BRANCH  24  25
HETATM   25  N   UNL     1      27.431  44.393  53.391  1.00  0.00    -0.050 N 
HETATM   26  H   UNL     1      27.635  45.348  53.713  1.00  0.00     0.281 HD
HETATM   27  C   UNL     1      26.884  44.516  51.969  1.00  0.00     0.262 C 
HETATM   28  C   UNL     1      25.614  45.374  51.974  1.00  0.00     0.195 C 
HETATM   29  O   UNL     1      24.632  44.812  52.848  1.00  0.00    -0.388 OA
HETATM   30  C   UNL     1      25.089  44.764  54.204  1.00  0.00     0.195 C 
HETATM   31  C   UNL     1      26.333  43.873  54.329  1.00  0.00     0.262 C 
ENDBRANCH  24  25
BRANCH  24  32
HETATM   32  C   UNL     1      29.537  43.940  54.719  1.00  0.00    -0.001 A 
HETATM   33  C   UNL     1      29.320  45.110  55.444  1.00  0.00     0.126 A 
HETATM   34  N   UNL     1      29.994  45.433  56.564  1.00  0.00    -0.272 NA
HETATM   35  C   UNL     1      30.942  44.575  56.995  1.00  0.00     0.116 A 
HETATM   36  C   UNL     1      31.244  43.393  56.344  1.00  0.00     0.020 A 
HETATM   37  C   UNL     1      30.534  43.073  55.190  1.00  0.00     0.012 A 
ENDBRANCH  24  32
ENDBRANCH  21  24
ENDBRANCH   1  20
TORSDOF 7
ENDMDL
