MODEL 1
REMARK VINA RESULT:      -9.1      0.000      0.000
REMARK  6 active torsions:
REMARK  status: ('A' for Active; 'I' for Inactive)
REMARK    1  A    between atoms: C_2  and  N_3 
REMARK    2  A    between atoms: C_2  and  C_25 
REMARK       I    between atoms: N_3  and  C_4 
REMARK    3  A    between atoms: C_4  and  C_5 
REMARK    4  A    between atoms: C_5  and  N_6 
REMARK    5  A    between atoms: C_10  and  N_11 
REMARK       I    between atoms: N_11  and  C_12 
REMARK       I    between atoms: C_12  and  N_13 
REMARK    6  A    between atoms: N_13  and  C_14 
ROOT
HETATM    1  N   UNL     1      25.839  46.996  50.195  1.00  0.00    -0.063 N 
HETATM    2  H   UNL     1      24.906  47.055  49.762  1.00  0.00     0.280 HD
HETATM    3  C   UNL     1      26.469  45.726  49.669  1.00  0.00     0.237 C 
HETATM    4  C   UNL     1      25.952  44.494  50.381  1.00  0.00     0.053 C 
HETATM    5  C   UNL     1      26.043  44.583  51.900  1.00  0.00     0.089 C 
HETATM    6  C   UNL     1      25.336  45.837  52.400  1.00  0.00     0.053 C 
HETATM    7  C   UNL     1      25.702  47.129  51.690  1.00  0.00     0.237 C 
ENDROOT
BRANCH   1   8
HETATM    8  C   UNL     1      26.609  48.225  49.666  1.00  0.00     0.337 C 
BRANCH   8   9
HETATM    9  C   UNL     1      25.784  49.074  48.698  1.00  0.00     0.244 C 
HETATM   10  N   UNL     1      24.427  49.002  48.880  1.00  0.00    -0.351 N 
HETATM   11  H   UNL     1      24.026  48.433  49.618  1.00  0.00     0.163 HD
HETATM   12  O   UNL     1      26.339  49.809  47.887  1.00  0.00    -0.272 OA
BRANCH  10  13
HETATM   13  C   UNL     1      23.478  49.792  48.107  1.00  0.00     0.120 C 
HETATM   14  C   UNL     1      23.199  51.147  48.758  1.00  0.00     0.038 C 
BRANCH  13  15
HETATM   15  C   UNL     1      22.219  48.975  47.948  1.00  0.00     0.005 A 
HETATM   16  S   UNL     1      22.238  47.260  48.100  1.00  0.00    -0.104 SA
HETATM   17  C   UNL     1      20.562  47.144  47.800  1.00  0.00     0.050 A 
HETATM   18  C   UNL     1      19.990  48.377  47.584  1.00  0.00     0.008 A 
HETATM   19  C   UNL     1      20.944  49.432  47.668  1.00  0.00     0.017 A 
ENDBRANCH  13  15
ENDBRANCH  10  13
ENDBRANCH   8   9
ENDBRANCH   1   8
BRANCH   5  20
HETATM   20  N   UNL     1      27.393  44.341  52.416  1.00  0.00    -0.338 N 
HETATM   21  C   UNL     1      27.774  44.270  53.735  1.00  0.00     0.321 C 
HETATM   22  N   UNL     1      29.137  44.354  53.881  1.00  0.00    -0.309 N 
HETATM   23  O   UNL     1      26.958  44.233  54.645  1.00  0.00    -0.247 OA
HETATM   24  H   UNL     1      29.656  44.670  53.074  1.00  0.00     0.170 HD
HETATM   25  H   UNL     1      28.093  44.058  51.740  1.00  0.00     0.164 HD
BRANCH  22  26
HETATM   26  C   UNL     1      29.833  44.379  55.111  1.00  0.00     0.036 A 
HETATM   27  C   UNL     1      30.642  43.329  55.560  1.00  0.00     0.032 A 
HETATM   28  C   UNL     1      31.269  43.400  56.807  1.00  0.00     0.044 A 
HETATM   29  C   UNL     1      31.089  44.523  57.602  1.00  0.00     0.116 A 
HETATM   30  F   UNL     1      31.677  44.583  58.803  1.00  0.00    -0.206 F 
HETATM   31  C   UNL     1      30.308  45.586  57.166  1.00  0.00     0.044 A 
HETATM   32  C   UNL     1      29.688  45.519  55.915  1.00  0.00     0.032 A 
ENDBRANCH  22  26
ENDBRANCH   5  20
TORSDOF 6
ENDMDL
MODEL 2
REMARK VINA RESULT:      -9.0      1.772      2.201
REMARK  6 active torsions:
REMARK  status: ('A' for Active; 'I' for Inactive)
REMARK    1  A    between atoms: C_2  and  N_3 
REMARK    2  A    between atoms: C_2  and  C_25 
REMARK       I    between atoms: N_3  and  C_4 
REMARK    3  A    between atoms: C_4  and  C_5 
REMARK    4  A    between atoms: C_5  and  N_6 
REMARK    5  A    between atoms: C_10  and  N_11 
REMARK       I    between atoms: N_11  and  C_12 
REMARK       I    between atoms: C_12  and  N_13 
REMARK    6  A    between atoms: N_13  and  C_14 
ROOT
HETATM    1  N   UNL     1      24.729  45.448  50.443  1.00  0.00    -0.063 N 
HETATM    2  H   UNL     1      23.940  45.067  49.902  1.00  0.00     0.280 HD
HETATM    3  C   UNL     1      25.983  45.040  49.704  1.00  0.00     0.237 C 
HETATM    4  C   UNL     1      26.364  43.600  49.976  1.00  0.00     0.053 C 
HETATM    5  C   UNL     1      26.446  43.260  51.459  1.00  0.00     0.089 C 
HETATM    6  C   UNL     1      25.139  43.618  52.157  1.00  0.00     0.053 C 
HETATM    7  C   UNL     1      24.604  45.012  51.880  1.00  0.00     0.237 C 
ENDROOT
BRANCH   1   8
HETATM    8  C   UNL     1      24.557  46.981  50.383  1.00  0.00     0.337 C 
BRANCH   8   9
HETATM    9  C   UNL     1      23.532  47.426  49.340  1.00  0.00     0.244 C 
HETATM   10  N   UNL     1      23.290  48.775  49.308  1.00  0.00    -0.351 N 
HETATM   11  H   UNL     1      23.778  49.410  49.931  1.00  0.00     0.163 HD
HETATM   12  O   UNL     1      23.046  46.614  48.559  1.00  0.00    -0.272 OA
BRANCH  10  13
HETATM   13  C   UNL     1      22.403  49.401  48.338  1.00  0.00     0.120 C 
HETATM   14  C   UNL     1      23.079  50.563  47.610  1.00  0.00     0.038 C 
BRANCH  13  15
HETATM   15  C   UNL     1      21.158  49.845  49.068  1.00  0.00     0.005 A 
HETATM   16  S   UNL     1      19.925  48.722  49.498  1.00  0.00    -0.104 SA
HETATM   17  C   UNL     1      18.970  49.941  50.219  1.00  0.00     0.050 A 
HETATM   18  C   UNL     1      19.566  51.179  50.136  1.00  0.00     0.008 A 
HETATM   19  C   UNL     1      20.825  51.124  49.473  1.00  0.00     0.017 A 
ENDBRANCH  13  15
ENDBRANCH  10  13
ENDBRANCH   8   9
ENDBRANCH   1   8
BRANCH   5  20
HETATM   20  N   UNL     1      27.680  43.729  52.096  1.00  0.00    -0.338 N 
HETATM   21  C   UNL     1      28.046  43.565  53.411  1.00  0.00     0.321 C 
HETATM   22  N   UNL     1      29.090  44.386  53.759  1.00  0.00    -0.309 N 
HETATM   23  O   UNL     1      27.427  42.835  54.171  1.00  0.00    -0.247 OA
HETATM   24  H   UNL     1      29.306  45.135  53.116  1.00  0.00     0.170 HD
HETATM   25  H   UNL     1      28.401  44.085  51.480  1.00  0.00     0.164 HD
BRANCH  22  26
HETATM   26  C   UNL     1      29.650  44.503  55.051  1.00  0.00     0.036 A 
HETATM   27  C   UNL     1      29.323  45.530  55.945  1.00  0.00     0.032 A 
HETATM   28  C   UNL     1      29.946  45.609  57.193  1.00  0.00     0.044 A 
HETATM   29  C   UNL     1      30.894  44.660  57.548  1.00  0.00     0.116 A 
HETATM   30  F   UNL     1      31.501  44.747  58.737  1.00  0.00    -0.206 F 
HETATM   31  C   UNL     1      31.217  43.620  56.686  1.00  0.00     0.044 A 
HETATM   32  C   UNL     1      30.587  43.534  55.441  1.00  0.00     0.032 A 
ENDBRANCH  22  26
ENDBRANCH   5  20
TORSDOF 6
ENDMDL
MODEL 3
REMARK VINA RESULT:      -8.8      4.884     10.997
REMARK  6 active torsions:
REMARK  status: ('A' for Active; 'I' for Inactive)
REMARK    1  A    between atoms: C_2  and  N_3 
REMARK    2  A    between atoms: C_2  and  C_25 
REMARK       I    between atoms: N_3  and  C_4 
REMARK    3  A    between atoms: C_4  and  C_5 
REMARK    4  A    between atoms: C_5  and  N_6 
REMARK    5  A    between atoms: C_10  and  N_11 
REMARK       I    between atoms: N_11  and  C_12 
REMARK       I    between atoms: C_12  and  N_13 
REMARK    6  A    between atoms: N_13  and  C_14 
ROOT
HETATM    1  N   UNL     1      25.648  46.038  50.561  1.00  0.00    -0.063 N 
HETATM    2  H   UNL     1      26.309  45.509  49.975  1.00  0.00     0.280 HD
HETATM    3  C   UNL     1      24.264  45.594  50.143  1.00  0.00     0.237 C 
HETATM    4  C   UNL     1      23.813  46.261  48.861  1.00  0.00     0.053 C 
HETATM    5  C   UNL     1      23.936  47.780  48.886  1.00  0.00     0.089 C 
HETATM    6  C   UNL     1      25.361  48.190  49.240  1.00  0.00     0.053 C 
HETATM    7  C   UNL     1      25.960  47.509  50.459  1.00  0.00     0.237 C 
ENDROOT
BRANCH   1   8
HETATM    8  C   UNL     1      25.934  45.580  52.008  1.00  0.00     0.337 C 
BRANCH   8   9
HETATM    9  C   UNL     1      27.122  44.623  52.106  1.00  0.00     0.244 C 
HETATM   10  N   UNL     1      27.528  44.337  53.384  1.00  0.00    -0.351 N 
HETATM   11  H   UNL     1      27.050  44.732  54.187  1.00  0.00     0.163 HD
HETATM   12  O   UNL     1      27.595  44.112  51.095  1.00  0.00    -0.272 OA
BRANCH  10  13
HETATM   13  C   UNL     1      28.593  43.391  53.687  1.00  0.00     0.120 C 
HETATM   14  C   UNL     1      28.047  42.006  54.035  1.00  0.00     0.038 C 
BRANCH  13  15
HETATM   15  C   UNL     1      29.418  43.969  54.812  1.00  0.00     0.005 A 
HETATM   16  S   UNL     1      29.019  45.484  55.528  1.00  0.00    -0.104 SA
HETATM   17  C   UNL     1      30.336  45.397  56.611  1.00  0.00     0.050 A 
HETATM   18  C   UNL     1      31.071  44.247  56.439  1.00  0.00     0.008 A 
HETATM   19  C   UNL     1      30.543  43.424  55.402  1.00  0.00     0.017 A 
ENDBRANCH  13  15
ENDBRANCH  10  13
ENDBRANCH   8   9
ENDBRANCH   1   8
BRANCH   5  20
HETATM   20  N   UNL     1      22.860  48.439  49.632  1.00  0.00    -0.338 N 
HETATM   21  C   UNL     1      21.716  48.996  49.113  1.00  0.00     0.321 C 
HETATM   22  N   UNL     1      21.080  49.803  50.024  1.00  0.00    -0.309 N 
HETATM   23  O   UNL     1      21.390  48.842  47.945  1.00  0.00    -0.247 OA
HETATM   24  H   UNL     1      21.613  50.063  50.842  1.00  0.00     0.170 HD
HETATM   25  H   UNL     1      22.889  48.352  50.641  1.00  0.00     0.164 HD
BRANCH  22  26
HETATM   26  C   UNL     1      19.919  50.570  49.775  1.00  0.00     0.036 A 
HETATM   27  C   UNL     1      18.656  50.246  50.287  1.00  0.00     0.032 A 
HETATM   28  C   UNL     1      17.541  51.024  49.968  1.00  0.00     0.044 A 
HETATM   29  C   UNL     1      17.689  52.127  49.139  1.00  0.00     0.116 A 
HETATM   30  F   UNL     1      16.617  52.862  48.821  1.00  0.00    -0.206 F 
HETATM   31  C   UNL     1      18.936  52.480  48.640  1.00  0.00     0.044 A 
HETATM   32  C   UNL     1      20.054  51.707  48.966  1.00  0.00     0.032 A 
ENDBRANCH  22  26
ENDBRANCH   5  20
TORSDOF 6
ENDMDL
MODEL 4
REMARK VINA RESULT:      -8.8      4.485     10.602
REMARK  6 active torsions:
REMARK  status: ('A' for Active; 'I' for Inactive)
REMARK    1  A    between atoms: C_2  and  N_3 
REMARK    2  A    between atoms: C_2  and  C_25 
REMARK       I    between atoms: N_3  and  C_4 
REMARK    3  A    between atoms: C_4  and  C_5 
REMARK    4  A    between atoms: C_5  and  N_6 
REMARK    5  A    between atoms: C_10  and  N_11 
REMARK       I    between atoms: N_11  and  C_12 
REMARK       I    between atoms: C_12  and  N_13 
REMARK    6  A    between atoms: N_13  and  C_14 
ROOT
HETATM    1  N   UNL     1      26.397  44.979  50.967  1.00  0.00    -0.063 N 
HETATM    2  H   UNL     1      27.384  45.025  51.260  1.00  0.00     0.280 HD
HETATM    3  C   UNL     1      26.319  45.688  49.634  1.00  0.00     0.237 C 
HETATM    4  C   UNL     1      26.305  47.194  49.787  1.00  0.00     0.053 C 
HETATM    5  C   UNL     1      25.245  47.699  50.759  1.00  0.00     0.089 C 
HETATM    6  C   UNL     1      25.400  47.015  52.113  1.00  0.00     0.053 C 
HETATM    7  C   UNL     1      25.524  45.502  52.078  1.00  0.00     0.237 C 
ENDROOT
BRANCH   1   8
HETATM    8  C   UNL     1      26.101  43.475  50.782  1.00  0.00     0.337 C 
BRANCH   8   9
HETATM    9  C   UNL     1      27.226  42.578  51.295  1.00  0.00     0.244 C 
HETATM   10  N   UNL     1      27.852  43.028  52.430  1.00  0.00    -0.351 N 
HETATM   11  H   UNL     1      27.560  43.887  52.883  1.00  0.00     0.163 HD
HETATM   12  O   UNL     1      27.468  41.506  50.748  1.00  0.00    -0.272 OA
BRANCH  10  13
HETATM   13  C   UNL     1      28.897  42.279  53.113  1.00  0.00     0.120 C 
HETATM   14  C   UNL     1      28.379  40.955  53.675  1.00  0.00     0.038 C 
BRANCH  13  15
HETATM   15  C   UNL     1      29.469  43.163  54.194  1.00  0.00     0.005 A 
HETATM   16  S   UNL     1      28.711  44.647  54.631  1.00  0.00    -0.104 SA
HETATM   17  C   UNL     1      29.896  44.984  55.814  1.00  0.00     0.050 A 
HETATM   18  C   UNL     1      30.853  43.998  55.881  1.00  0.00     0.008 A 
HETATM   19  C   UNL     1      30.608  42.949  54.948  1.00  0.00     0.017 A 
ENDBRANCH  13  15
ENDBRANCH  10  13
ENDBRANCH   8   9
ENDBRANCH   1   8
BRANCH   5  20
HETATM   20  N   UNL     1      23.896  47.724  50.188  1.00  0.00    -0.338 N 
HETATM   21  C   UNL     1      23.274  48.789  49.582  1.00  0.00     0.321 C 
HETATM   22  N   UNL     1      21.922  48.585  49.447  1.00  0.00    -0.309 N 
HETATM   23  O   UNL     1      23.873  49.816  49.299  1.00  0.00    -0.247 OA
HETATM   24  H   UNL     1      21.528  47.825  49.983  1.00  0.00     0.170 HD
HETATM   25  H   UNL     1      23.423  46.831  50.101  1.00  0.00     0.164 HD
BRANCH  22  26
HETATM   26  C   UNL     1      20.997  49.518  48.927  1.00  0.00     0.036 A 
HETATM   27  C   UNL     1      20.521  49.480  47.610  1.00  0.00     0.032 A 
HETATM   28  C   UNL     1      19.638  50.459  47.147  1.00  0.00     0.044 A 
HETATM   29  C   UNL     1      19.230  51.474  48.001  1.00  0.00     0.116 A 
HETATM   30  F   UNL     1      18.397  52.420  47.551  1.00  0.00    -0.206 F 
HETATM   31  C   UNL     1      19.671  51.517  49.317  1.00  0.00     0.044 A 
HETATM   32  C   UNL     1      20.547  50.533  49.784  1.00  0.00     0.032 A 
ENDBRANCH  22  26
ENDBRANCH   5  20
TORSDOF 6
ENDMDL
MODEL 5
REMARK VINA RESULT:      -8.7      4.645     10.517
REMARK  6 active torsions:
REMARK  status: ('A' for Active; 'I' for Inactive)
REMARK    1  A    between atoms: C_2  and  N_3 
REMARK    2  A    between atoms: C_2  and  C_25 
REMARK       I    between atoms: N_3  and  C_4 
REMARK    3  A    between atoms: C_4  and  C_5 
REMARK    4  A    between atoms: C_5  and  N_6 
REMARK    5  A    between atoms: C_10  and  N_11 
REMARK       I    between atoms: N_11  and  C_12 
REMARK       I    between atoms: C_12  and  N_13 
REMARK    6  A    between atoms: N_13  and  C_14 
ROOT
HETATM    1  N   UNL     1      25.743  45.647  52.115  1.00  0.00    -0.063 N 
HETATM    2  H   UNL     1      26.641  45.186  51.912  1.00  0.00     0.280 HD
HETATM    3  C   UNL     1      24.695  44.897  51.326  1.00  0.00     0.237 C 
HETATM    4  C   UNL     1      24.682  45.298  49.866  1.00  0.00     0.053 C 
HETATM    5  C   UNL     1      24.585  46.803  49.647  1.00  0.00     0.089 C 
HETATM    6  C   UNL     1      25.700  47.520  50.399  1.00  0.00     0.053 C 
HETATM    7  C   UNL     1      25.874  47.126  51.855  1.00  0.00     0.237 C 
ENDROOT
BRANCH   1   8
HETATM    8  C   UNL     1      25.515  45.438  53.628  1.00  0.00     0.337 C 
BRANCH   8   9
HETATM    9  C   UNL     1      26.135  44.143  54.151  1.00  0.00     0.244 C 
HETATM   10  N   UNL     1      27.246  43.718  53.469  1.00  0.00    -0.351 N 
HETATM   11  H   UNL     1      27.617  44.250  52.689  1.00  0.00     0.163 HD
HETATM   12  O   UNL     1      25.687  43.599  55.156  1.00  0.00    -0.272 OA
BRANCH  10  13
HETATM   13  C   UNL     1      28.021  42.548  53.859  1.00  0.00     0.120 C 
HETATM   14  C   UNL     1      29.389  42.930  54.424  1.00  0.00     0.038 C 
BRANCH  13  15
HETATM   15  C   UNL     1      28.142  41.650  52.652  1.00  0.00     0.005 A 
HETATM   16  S   UNL     1      27.226  41.943  51.223  1.00  0.00    -0.104 SA
HETATM   17  C   UNL     1      27.900  40.588  50.431  1.00  0.00     0.050 A 
HETATM   18  C   UNL     1      28.800  39.919  51.228  1.00  0.00     0.008 A 
HETATM   19  C   UNL     1      28.940  40.530  52.508  1.00  0.00     0.017 A 
ENDBRANCH  13  15
ENDBRANCH  10  13
ENDBRANCH   8   9
ENDBRANCH   1   8
BRANCH   5  20
HETATM   20  N   UNL     1      23.229  47.330  49.825  1.00  0.00    -0.338 N 
HETATM   21  C   UNL     1      22.530  48.127  48.950  1.00  0.00     0.321 C 
HETATM   22  N   UNL     1      21.435  48.704  49.544  1.00  0.00    -0.309 N 
HETATM   23  O   UNL     1      22.924  48.345  47.814  1.00  0.00    -0.247 OA
HETATM   24  H   UNL     1      21.399  48.664  50.553  1.00  0.00     0.170 HD
HETATM   25  H   UNL     1      22.697  46.959  50.604  1.00  0.00     0.164 HD
BRANCH  22  26
HETATM   26  C   UNL     1      20.555  49.625  48.931  1.00  0.00     0.036 A 
HETATM   27  C   UNL     1      19.514  49.244  48.076  1.00  0.00     0.032 A 
HETATM   28  C   UNL     1      18.706  50.210  47.470  1.00  0.00     0.044 A 
HETATM   29  C   UNL     1      18.939  51.555  47.721  1.00  0.00     0.116 A 
HETATM   30  F   UNL     1      18.175  52.479  47.127  1.00  0.00    -0.206 F 
HETATM   31  C   UNL     1      19.951  51.953  48.584  1.00  0.00     0.044 A 
HETATM   32  C   UNL     1      20.754  50.987  49.198  1.00  0.00     0.032 A 
ENDBRANCH  22  26
ENDBRANCH   5  20
TORSDOF 6
ENDMDL
MODEL 6
REMARK VINA RESULT:      -8.1      5.531     10.391
REMARK  6 active torsions:
REMARK  status: ('A' for Active; 'I' for Inactive)
REMARK    1  A    between atoms: C_2  and  N_3 
REMARK    2  A    between atoms: C_2  and  C_25 
REMARK       I    between atoms: N_3  and  C_4 
REMARK    3  A    between atoms: C_4  and  C_5 
REMARK    4  A    between atoms: C_5  and  N_6 
REMARK    5  A    between atoms: C_10  and  N_11 
REMARK       I    between atoms: N_11  and  C_12 
REMARK       I    between atoms: C_12  and  N_13 
REMARK    6  A    between atoms: N_13  and  C_14 
ROOT
HETATM    1  N   UNL     1      26.258  44.515  50.880  1.00  0.00    -0.063 N 
HETATM    2  H   UNL     1      27.247  44.480  51.165  1.00  0.00     0.280 HD
HETATM    3  C   UNL     1      26.222  45.269  49.570  1.00  0.00     0.237 C 
HETATM    4  C   UNL     1      26.320  46.766  49.769  1.00  0.00     0.053 C 
HETATM    5  C   UNL     1      25.307  47.317  50.766  1.00  0.00     0.089 C 
HETATM    6  C   UNL     1      25.421  46.583  52.097  1.00  0.00     0.053 C 
HETATM    7  C   UNL     1      25.433  45.066  52.015  1.00  0.00     0.237 C 
ENDROOT
BRANCH   1   8
HETATM    8  C   UNL     1      25.849  43.043  50.653  1.00  0.00     0.337 C 
BRANCH   8   9
HETATM    9  C   UNL     1      27.036  42.141  50.317  1.00  0.00     0.244 C 
HETATM   10  N   UNL     1      26.999  41.582  49.065  1.00  0.00    -0.351 N 
HETATM   11  H   UNL     1      26.237  41.781  48.424  1.00  0.00     0.163 HD
HETATM   12  O   UNL     1      27.967  42.015  51.106  1.00  0.00    -0.272 OA
BRANCH  10  13
HETATM   13  C   UNL     1      28.071  40.753  48.532  1.00  0.00     0.120 C 
HETATM   14  C   UNL     1      28.159  40.842  47.008  1.00  0.00     0.038 C 
BRANCH  13  15
HETATM   15  C   UNL     1      27.836  39.337  48.999  1.00  0.00     0.005 A 
HETATM   16  S   UNL     1      29.100  38.406  49.709  1.00  0.00    -0.104 SA
HETATM   17  C   UNL     1      28.078  37.055  49.923  1.00  0.00     0.050 A 
HETATM   18  C   UNL     1      26.803  37.294  49.466  1.00  0.00     0.008 A 
HETATM   19  C   UNL     1      26.663  38.608  48.932  1.00  0.00     0.017 A 
ENDBRANCH  13  15
ENDBRANCH  10  13
ENDBRANCH   8   9
ENDBRANCH   1   8
BRANCH   5  20
HETATM   20  N   UNL     1      23.960  47.459  50.208  1.00  0.00    -0.338 N 
HETATM   21  C   UNL     1      23.410  48.588  49.651  1.00  0.00     0.321 C 
HETATM   22  N   UNL     1      22.046  48.485  49.521  1.00  0.00    -0.309 N 
HETATM   23  O   UNL     1      24.077  49.582  49.404  1.00  0.00    -0.247 OA
HETATM   24  H   UNL     1      21.603  47.732  50.030  1.00  0.00     0.170 HD
HETATM   25  H   UNL     1      23.426  46.605  50.091  1.00  0.00     0.164 HD
BRANCH  22  26
HETATM   26  C   UNL     1      21.185  49.500  49.047  1.00  0.00     0.036 A 
HETATM   27  C   UNL     1      20.791  49.614  47.708  1.00  0.00     0.032 A 
HETATM   28  C   UNL     1      19.970  50.667  47.298  1.00  0.00     0.044 A 
HETATM   29  C   UNL     1      19.541  51.605  48.228  1.00  0.00     0.116 A 
HETATM   30  F   UNL     1      18.768  52.622  47.830  1.00  0.00    -0.206 F 
HETATM   31  C   UNL     1      19.902  51.497  49.564  1.00  0.00     0.044 A 
HETATM   32  C   UNL     1      20.715  50.439  49.977  1.00  0.00     0.032 A 
ENDBRANCH  22  26
ENDBRANCH   5  20
TORSDOF 6
ENDMDL
MODEL 7
REMARK VINA RESULT:      -7.7      3.845      5.576
REMARK  6 active torsions:
REMARK  status: ('A' for Active; 'I' for Inactive)
REMARK    1  A    between atoms: C_2  and  N_3 
REMARK    2  A    between atoms: C_2  and  C_25 
REMARK       I    between atoms: N_3  and  C_4 
REMARK    3  A    between atoms: C_4  and  C_5 
REMARK    4  A    between atoms: C_5  and  N_6 
REMARK    5  A    between atoms: C_10  and  N_11 
REMARK       I    between atoms: N_11  and  C_12 
REMARK       I    between atoms: C_12  and  N_13 
REMARK    6  A    between atoms: N_13  and  C_14 
ROOT
HETATM    1  N   UNL     1      20.927  47.433  48.630  1.00  0.00    -0.063 N 
HETATM    2  H   UNL     1      20.783  47.643  47.632  1.00  0.00     0.280 HD
HETATM    3  C   UNL     1      21.703  48.599  49.199  1.00  0.00     0.237 C 
HETATM    4  C   UNL     1      23.178  48.519  48.869  1.00  0.00     0.053 C 
HETATM    5  C   UNL     1      23.815  47.183  49.235  1.00  0.00     0.089 C 
HETATM    6  C   UNL     1      23.049  46.036  48.586  1.00  0.00     0.053 C 
HETATM    7  C   UNL     1      21.541  46.064  48.767  1.00  0.00     0.237 C 
ENDROOT
BRANCH   1   8
HETATM    8  C   UNL     1      19.510  47.394  49.243  1.00  0.00     0.337 C 
BRANCH   8   9
HETATM    9  C   UNL     1      18.461  48.074  48.365  1.00  0.00     0.244 C 
HETATM   10  N   UNL     1      18.517  49.444  48.354  1.00  0.00    -0.351 N 
HETATM   11  H   UNL     1      19.222  49.944  48.886  1.00  0.00     0.163 HD
HETATM   12  O   UNL     1      17.696  47.404  47.677  1.00  0.00    -0.272 OA
BRANCH  10  13
HETATM   13  C   UNL     1      17.651  50.269  47.523  1.00  0.00     0.120 C 
HETATM   14  C   UNL     1      18.428  50.974  46.411  1.00  0.00     0.038 C 
BRANCH  13  15
HETATM   15  C   UNL     1      16.946  51.253  48.425  1.00  0.00     0.005 A 
HETATM   16  S   UNL     1      17.822  52.246  49.527  1.00  0.00    -0.104 SA
HETATM   17  C   UNL     1      16.395  52.985  50.103  1.00  0.00     0.050 A 
HETATM   18  C   UNL     1      15.270  52.492  49.481  1.00  0.00     0.008 A 
HETATM   19  C   UNL     1      15.587  51.494  48.515  1.00  0.00     0.017 A 
ENDBRANCH  13  15
ENDBRANCH  10  13
ENDBRANCH   8   9
ENDBRANCH   1   8
BRANCH   5  20
HETATM   20  N   UNL     1      24.106  47.051  50.666  1.00  0.00    -0.338 N 
HETATM   21  C   UNL     1      25.346  47.032  51.258  1.00  0.00     0.321 C 
HETATM   22  N   UNL     1      25.289  46.578  52.553  1.00  0.00    -0.309 N 
HETATM   23  O   UNL     1      26.366  47.303  50.641  1.00  0.00    -0.247 OA
HETATM   24  H   UNL     1      24.432  46.120  52.830  1.00  0.00     0.170 HD
HETATM   25  H   UNL     1      23.317  47.122  51.298  1.00  0.00     0.164 HD
BRANCH  22  26
HETATM   26  C   UNL     1      26.398  46.379  53.406  1.00  0.00     0.036 A 
HETATM   27  C   UNL     1      26.932  47.381  54.225  1.00  0.00     0.032 A 
HETATM   28  C   UNL     1      28.057  47.129  55.013  1.00  0.00     0.044 A 
HETATM   29  C   UNL     1      28.647  45.873  54.984  1.00  0.00     0.116 A 
HETATM   30  F   UNL     1      29.735  45.637  55.727  1.00  0.00    -0.206 F 
HETATM   31  C   UNL     1      28.121  44.857  54.196  1.00  0.00     0.044 A 
HETATM   32  C   UNL     1      26.989  45.107  53.414  1.00  0.00     0.032 A 
ENDBRANCH  22  26
ENDBRANCH   5  20
TORSDOF 6
ENDMDL
MODEL 8
REMARK VINA RESULT:      -7.7      5.067     10.925
REMARK  6 active torsions:
REMARK  status: ('A' for Active; 'I' for Inactive)
REMARK    1  A    between atoms: C_2  and  N_3 
REMARK    2  A    between atoms: C_2  and  C_25 
REMARK       I    between atoms: N_3  and  C_4 
REMARK    3  A    between atoms: C_4  and  C_5 
REMARK    4  A    between atoms: C_5  and  N_6 
REMARK    5  A    between atoms: C_10  and  N_11 
REMARK       I    between atoms: N_11  and  C_12 
REMARK       I    between atoms: C_12  and  N_13 
REMARK    6  A    between atoms: N_13  and  C_14 
ROOT
HETATM    1  N   UNL     1      25.184  44.366  50.666  1.00  0.00    -0.063 N 
HETATM    2  H   UNL     1      26.155  44.324  50.326  1.00  0.00     0.280 HD
HETATM    3  C   UNL     1      24.328  43.768  49.574  1.00  0.00     0.237 C 
HETATM    4  C   UNL     1      24.079  44.743  48.443  1.00  0.00     0.053 C 
HETATM    5  C   UNL     1      23.542  46.092  48.906  1.00  0.00     0.089 C 
HETATM    6  C   UNL     1      24.468  46.698  49.955  1.00  0.00     0.053 C 
HETATM    7  C   UNL     1      24.868  45.777  51.093  1.00  0.00     0.237 C 
ENDROOT
BRANCH   1   8
HETATM    8  C   UNL     1      25.152  43.461  51.916  1.00  0.00     0.337 C 
BRANCH   8   9
HETATM    9  C   UNL     1      25.465  44.218  53.207  1.00  0.00     0.244 C 
HETATM   10  N   UNL     1      26.791  44.512  53.398  1.00  0.00    -0.351 N 
HETATM   11  H   UNL     1      27.490  44.249  52.711  1.00  0.00     0.163 HD
HETATM   12  O   UNL     1      24.558  44.583  53.951  1.00  0.00    -0.272 OA
BRANCH  10  13
HETATM   13  C   UNL     1      27.279  45.289  54.529  1.00  0.00     0.120 C 
HETATM   14  C   UNL     1      27.342  46.783  54.211  1.00  0.00     0.038 C 
BRANCH  13  15
HETATM   15  C   UNL     1      28.630  44.739  54.918  1.00  0.00     0.005 A 
HETATM   16  S   UNL     1      29.640  45.562  56.045  1.00  0.00    -0.104 SA
HETATM   17  C   UNL     1      30.861  44.374  55.923  1.00  0.00     0.050 A 
HETATM   18  C   UNL     1      30.519  43.371  55.046  1.00  0.00     0.008 A 
HETATM   19  C   UNL     1      29.234  43.581  54.466  1.00  0.00     0.017 A 
ENDBRANCH  13  15
ENDBRANCH  10  13
ENDBRANCH   8   9
ENDBRANCH   1   8
BRANCH   5  20
HETATM   20  N   UNL     1      22.112  46.069  49.229  1.00  0.00    -0.338 N 
HETATM   21  C   UNL     1      21.108  46.753  48.586  1.00  0.00     0.321 C 
HETATM   22  N   UNL     1      19.948  46.771  49.320  1.00  0.00    -0.309 N 
HETATM   23  O   UNL     1      21.296  47.342  47.532  1.00  0.00    -0.247 OA
HETATM   24  H   UNL     1      20.026  46.496  50.289  1.00  0.00     0.170 HD
HETATM   25  H   UNL     1      21.810  45.373  49.901  1.00  0.00     0.164 HD
BRANCH  22  26
HETATM   26  C   UNL     1      18.759  47.447  48.964  1.00  0.00     0.036 A 
HETATM   27  C   UNL     1      18.544  48.809  49.209  1.00  0.00     0.032 A 
HETATM   28  C   UNL     1      17.327  49.407  48.869  1.00  0.00     0.044 A 
HETATM   29  C   UNL     1      16.328  48.643  48.282  1.00  0.00     0.116 A 
HETATM   30  F   UNL     1      15.158  49.213  47.972  1.00  0.00    -0.206 F 
HETATM   31  C   UNL     1      16.529  47.296  48.010  1.00  0.00     0.044 A 
HETATM   32  C   UNL     1      17.749  46.699  48.341  1.00  0.00     0.032 A 
ENDBRANCH  22  26
ENDBRANCH   5  20
TORSDOF 6
ENDMDL
MODEL 9
REMARK VINA RESULT:      -7.7      4.043      6.620
REMARK  6 active torsions:
REMARK  status: ('A' for Active; 'I' for Inactive)
REMARK    1  A    between atoms: C_2  and  N_3 
REMARK    2  A    between atoms: C_2  and  C_25 
REMARK       I    between atoms: N_3  and  C_4 
REMARK    3  A    between atoms: C_4  and  C_5 
REMARK    4  A    between atoms: C_5  and  N_6 
REMARK    5  A    between atoms: C_10  and  N_11 
REMARK       I    between atoms: N_11  and  C_12 
REMARK       I    between atoms: C_12  and  N_13 
REMARK    6  A    between atoms: N_13  and  C_14 
ROOT
HETATM    1  N   UNL     1      24.730  44.101  49.695  1.00  0.00    -0.063 N 
HETATM    2  H   UNL     1      23.867  44.574  49.391  1.00  0.00     0.280 HD
HETATM    3  C   UNL     1      24.495  43.669  51.124  1.00  0.00     0.237 C 
HETATM    4  C   UNL     1      24.661  44.813  52.102  1.00  0.00     0.053 C 
HETATM    5  C   UNL     1      25.980  45.562  51.947  1.00  0.00     0.089 C 
HETATM    6  C   UNL     1      26.149  46.045  50.511  1.00  0.00     0.053 C 
HETATM    7  C   UNL     1      25.909  45.003  49.433  1.00  0.00     0.237 C 
ENDROOT
BRANCH   1   8
HETATM    8  C   UNL     1      24.855  42.861  48.783  1.00  0.00     0.337 C 
BRANCH   8   9
HETATM    9  C   UNL     1      26.245  42.228  48.825  1.00  0.00     0.244 C 
HETATM   10  N   UNL     1      26.590  41.518  47.703  1.00  0.00    -0.351 N 
HETATM   11  H   UNL     1      25.957  41.447  46.913  1.00  0.00     0.163 HD
HETATM   12  O   UNL     1      26.993  42.429  49.777  1.00  0.00    -0.272 OA
BRANCH  10  13
HETATM   13  C   UNL     1      27.898  40.903  47.521  1.00  0.00     0.120 C 
HETATM   14  C   UNL     1      28.326  40.893  46.054  1.00  0.00     0.038 C 
BRANCH  13  15
HETATM   15  C   UNL     1      27.837  39.510  48.099  1.00  0.00     0.005 A 
HETATM   16  S   UNL     1      28.599  39.126  49.595  1.00  0.00    -0.104 SA
HETATM   17  C   UNL     1      28.093  37.497  49.515  1.00  0.00     0.050 A 
HETATM   18  C   UNL     1      27.363  37.239  48.377  1.00  0.00     0.008 A 
HETATM   19  C   UNL     1      27.216  38.398  47.561  1.00  0.00     0.017 A 
ENDBRANCH  13  15
ENDBRANCH  10  13
ENDBRANCH   8   9
ENDBRANCH   1   8
BRANCH   5  20
HETATM   20  N   UNL     1      27.120  44.861  52.542  1.00  0.00    -0.338 N 
HETATM   21  C   UNL     1      27.576  44.970  53.834  1.00  0.00     0.321 C 
HETATM   22  N   UNL     1      28.834  44.439  53.981  1.00  0.00    -0.309 N 
HETATM   23  O   UNL     1      26.946  45.563  54.698  1.00  0.00    -0.247 OA
HETATM   24  H   UNL     1      29.343  44.249  53.129  1.00  0.00     0.170 HD
HETATM   25  H   UNL     1      27.531  44.114  51.993  1.00  0.00     0.164 HD
BRANCH  22  26
HETATM   26  C   UNL     1      29.602  44.458  55.168  1.00  0.00     0.036 A 
HETATM   27  C   UNL     1      29.567  45.508  56.093  1.00  0.00     0.032 A 
HETATM   28  C   UNL     1      30.384  45.482  57.226  1.00  0.00     0.044 A 
HETATM   29  C   UNL     1      31.233  44.404  57.435  1.00  0.00     0.116 A 
HETATM   30  F   UNL     1      32.027  44.389  58.512  1.00  0.00    -0.206 F 
HETATM   31  C   UNL     1      31.266  43.341  56.542  1.00  0.00     0.044 A 
HETATM   32  C   UNL     1      30.443  43.362  55.413  1.00  0.00     0.032 A 
ENDBRANCH  22  26
ENDBRANCH   5  20
TORSDOF 6
ENDMDL
MODEL 10
REMARK VINA RESULT:      -7.6     12.504     14.537
REMARK  6 active torsions:
REMARK  status: ('A' for Active; 'I' for Inactive)
REMARK    1  A    between atoms: C_2  and  N_3 
REMARK    2  A    between atoms: C_2  and  C_25 
REMARK       I    between atoms: N_3  and  C_4 
REMARK    3  A    between atoms: C_4  and  C_5 
REMARK    4  A    between atoms: C_5  and  N_6 
REMARK    5  A    between atoms: C_10  and  N_11 
REMARK       I    between atoms: N_11  and  C_12 
REMARK       I    between atoms: C_12  and  N_13 
REMARK    6  A    between atoms: N_13  and  C_14 
ROOT
HETATM    1  N   UNL     1      27.185  46.451  38.274  1.00  0.00    -0.063 N 
HETATM    2  H   UNL     1      26.867  45.487  38.098  1.00  0.00     0.280 HD
HETATM    3  C   UNL     1      27.129  46.646  39.772  1.00  0.00     0.237 C 
HETATM    4  C   UNL     1      25.722  46.915  40.262  1.00  0.00     0.053 C 
HETATM    5  C   UNL     1      25.023  48.047  39.519  1.00  0.00     0.089 C 
HETATM    6  C   UNL     1      25.035  47.781  38.018  1.00  0.00     0.053 C 
HETATM    7  C   UNL     1      26.381  47.402  37.425  1.00  0.00     0.237 C 
ENDROOT
BRANCH   1   8
HETATM    8  C   UNL     1      28.651  46.488  37.791  1.00  0.00     0.337 C 
BRANCH   8   9
HETATM    9  C   UNL     1      29.648  46.708  38.929  1.00  0.00     0.244 C 
HETATM   10  N   UNL     1      29.959  48.020  39.179  1.00  0.00    -0.351 N 
HETATM   11  H   UNL     1      29.534  48.770  38.643  1.00  0.00     0.163 HD
HETATM   12  O   UNL     1      30.054  45.759  39.593  1.00  0.00    -0.272 OA
BRANCH  10  13
HETATM   13  C   UNL     1      30.832  48.437  40.267  1.00  0.00     0.120 C 
HETATM   14  C   UNL     1      30.047  48.743  41.543  1.00  0.00     0.038 C 
BRANCH  13  15
HETATM   15  C   UNL     1      31.622  49.633  39.794  1.00  0.00     0.005 A 
HETATM   16  S   UNL     1      32.867  50.324  40.762  1.00  0.00    -0.104 SA
HETATM   17  C   UNL     1      33.210  51.519  39.592  1.00  0.00     0.050 A 
HETATM   18  C   UNL     1      32.399  51.406  38.486  1.00  0.00     0.008 A 
HETATM   19  C   UNL     1      31.484  50.320  38.602  1.00  0.00     0.017 A 
ENDBRANCH  13  15
ENDBRANCH  10  13
ENDBRANCH   8   9
ENDBRANCH   1   8
BRANCH   5  20
HETATM   20  N   UNL     1      25.451  49.380  39.952  1.00  0.00    -0.338 N 
HETATM   21  C   UNL     1      26.677  49.963  39.742  1.00  0.00     0.321 C 
HETATM   22  N   UNL     1      26.865  51.066  40.539  1.00  0.00    -0.309 N 
HETATM   23  O   UNL     1      27.511  49.472  38.994  1.00  0.00    -0.247 OA
HETATM   24  H   UNL     1      26.217  51.180  41.305  1.00  0.00     0.170 HD
HETATM   25  H   UNL     1      24.730  49.990  40.320  1.00  0.00     0.164 HD
BRANCH  22  26
HETATM   26  C   UNL     1      28.044  51.842  40.606  1.00  0.00     0.036 A 
HETATM   27  C   UNL     1      28.868  51.897  41.737  1.00  0.00     0.032 A 
HETATM   28  C   UNL     1      29.998  52.718  41.752  1.00  0.00     0.044 A 
HETATM   29  C   UNL     1      30.305  53.482  40.634  1.00  0.00     0.116 A 
HETATM   30  F   UNL     1      31.379  54.280  40.656  1.00  0.00    -0.206 F 
HETATM   31  C   UNL     1      29.515  53.424  39.494  1.00  0.00     0.044 A 
HETATM   32  C   UNL     1      28.389  52.596  39.475  1.00  0.00     0.032 A 
ENDBRANCH  22  26
ENDBRANCH   5  20
TORSDOF 6
ENDMDL
