MODEL 1
REMARK VINA RESULT:      -8.0      0.000      0.000
REMARK  7 active torsions:
REMARK  status: ('A' for Active; 'I' for Inactive)
REMARK    1  A    between atoms: C_2  and  C_3 
REMARK    2  A    between atoms: C_3  and  N_4 
REMARK    3  A    between atoms: N_4  and  C_5 
REMARK    4  A    between atoms: C_7  and  N_8 
REMARK    5  A    between atoms: N_8  and  C_9 
REMARK    6  A    between atoms: C_9  and  C_10 
REMARK    7  A    between atoms: C_13  and  O_14 
ROOT
HETATM    1  C   UNL     1      28.731  45.576  55.351  1.00  0.00     0.119 A 
HETATM    2  N   UNL     1      28.393  45.030  54.167  1.00  0.00    -0.207 NA
HETATM    3  C   UNL     1      29.085  43.963  53.747  1.00  0.00     0.181 A 
HETATM    4  N   UNL     1      30.096  43.439  54.433  1.00  0.00    -0.330 N 
HETATM    5  H   UNL     1      30.625  42.691  54.002  1.00  0.00     0.168 HD
HETATM    6  C   UNL     1      30.437  43.909  55.637  1.00  0.00     0.048 A 
HETATM    7  C   UNL     1      29.742  45.018  56.161  1.00  0.00     0.031 A 
HETATM    8  C   UNL     1      31.473  43.301  56.361  1.00  0.00     0.030 A 
HETATM    9  C   UNL     1      31.820  43.781  57.623  1.00  0.00     0.002 A 
HETATM   10  C   UNL     1      31.138  44.866  58.166  1.00  0.00     0.001 A 
HETATM   11  C   UNL     1      30.110  45.481  57.446  1.00  0.00     0.017 A 
ENDROOT
BRANCH   3  12
HETATM   12  N   UNL     1      28.758  43.468  52.495  1.00  0.00    -0.258 NA
HETATM   13  H   UNL     1      28.868  44.262  51.859  1.00  0.00     0.130 HD
BRANCH  12  14
HETATM   14  C   UNL     1      27.447  42.846  52.326  1.00  0.00     0.134 C 
BRANCH  14  15
HETATM   15  C   UNL     1      26.534  43.755  51.537  1.00  0.00    -0.045 A 
HETATM   16  C   UNL     1      27.049  44.635  50.578  1.00  0.00     0.011 A 
HETATM   17  C   UNL     1      26.195  45.510  49.901  1.00  0.00     0.037 A 
HETATM   18  C   UNL     1      24.820  45.509  50.152  1.00  0.00     0.068 A 
HETATM   19  C   UNL     1      24.300  44.620  51.090  1.00  0.00     0.037 A 
HETATM   20  C   UNL     1      25.150  43.746  51.772  1.00  0.00     0.011 A 
BRANCH  18  21
HETATM   21  O   UNL     1      24.105  46.421  49.431  1.00  0.00    -0.356 OA
HETATM   22  C   UNL     1      24.361  47.798  49.696  1.00  0.00     0.210 C 
ENDBRANCH  18  21
ENDBRANCH  14  15
ENDBRANCH  12  14
ENDBRANCH   3  12
BRANCH   1  23
HETATM   23  N   UNL     1      28.022  46.700  55.804  1.00  0.00    -0.277 NA
HETATM   24  H   UNL     1      28.467  47.090  56.634  1.00  0.00     0.129 HD
BRANCH  23  25
HETATM   25  C   UNL     1      27.759  47.743  54.810  1.00  0.00     0.093 C 
BRANCH  25  26
HETATM   26  C   UNL     1      26.249  47.896  54.627  1.00  0.00     0.010 C 
HETATM   27  C   UNL     1      25.771  47.222  53.352  1.00  0.00     0.006 C 
ENDBRANCH  25  26
ENDBRANCH  23  25
ENDBRANCH   1  23
TORSDOF 7
ENDMDL
MODEL 2
REMARK VINA RESULT:      -7.9      1.186      1.391
REMARK  7 active torsions:
REMARK  status: ('A' for Active; 'I' for Inactive)
REMARK    1  A    between atoms: C_2  and  C_3 
REMARK    2  A    between atoms: C_3  and  N_4 
REMARK    3  A    between atoms: N_4  and  C_5 
REMARK    4  A    between atoms: C_7  and  N_8 
REMARK    5  A    between atoms: N_8  and  C_9 
REMARK    6  A    between atoms: C_9  and  C_10 
REMARK    7  A    between atoms: C_13  and  O_14 
ROOT
HETATM    1  C   UNL     1      28.786  45.638  55.321  1.00  0.00     0.119 A 
HETATM    2  N   UNL     1      28.316  45.130  54.166  1.00  0.00    -0.207 NA
HETATM    3  C   UNL     1      28.865  43.996  53.709  1.00  0.00     0.181 A 
HETATM    4  N   UNL     1      29.858  43.369  54.332  1.00  0.00    -0.330 N 
HETATM    5  H   UNL     1      30.277  42.570  53.873  1.00  0.00     0.168 HD
HETATM    6  C   UNL     1      30.325  43.802  55.508  1.00  0.00     0.048 A 
HETATM    7  C   UNL     1      29.785  44.978  56.068  1.00  0.00     0.031 A 
HETATM    8  C   UNL     1      31.337  43.090  56.167  1.00  0.00     0.030 A 
HETATM    9  C   UNL     1      31.814  43.532  57.401  1.00  0.00     0.002 A 
HETATM   10  C   UNL     1      31.286  44.683  57.978  1.00  0.00     0.001 A 
HETATM   11  C   UNL     1      30.282  45.401  57.322  1.00  0.00     0.017 A 
ENDROOT
BRANCH   3  12
HETATM   12  N   UNL     1      28.407  43.537  52.485  1.00  0.00    -0.258 NA
HETATM   13  H   UNL     1      28.908  44.094  51.789  1.00  0.00     0.130 HD
BRANCH  12  14
HETATM   14  C   UNL     1      26.967  43.571  52.236  1.00  0.00     0.134 C 
BRANCH  14  15
HETATM   15  C   UNL     1      26.593  44.837  51.501  1.00  0.00    -0.045 A 
HETATM   16  C   UNL     1      27.137  45.128  50.245  1.00  0.00     0.011 A 
HETATM   17  C   UNL     1      26.823  46.331  49.609  1.00  0.00     0.037 A 
HETATM   18  C   UNL     1      25.953  47.251  50.200  1.00  0.00     0.068 A 
HETATM   19  C   UNL     1      25.392  46.957  51.441  1.00  0.00     0.037 A 
HETATM   20  C   UNL     1      25.705  45.757  52.083  1.00  0.00     0.011 A 
BRANCH  18  21
HETATM   21  O   UNL     1      25.744  48.389  49.476  1.00  0.00    -0.356 OA
HETATM   22  C   UNL     1      26.890  49.004  48.894  1.00  0.00     0.210 C 
ENDBRANCH  18  21
ENDBRANCH  14  15
ENDBRANCH  12  14
ENDBRANCH   3  12
BRANCH   1  23
HETATM   23  N   UNL     1      28.230  46.830  55.811  1.00  0.00    -0.277 NA
HETATM   24  H   UNL     1      28.858  47.265  56.486  1.00  0.00     0.129 HD
BRANCH  23  25
HETATM   25  C   UNL     1      27.787  47.799  54.806  1.00  0.00     0.093 C 
BRANCH  25  26
HETATM   26  C   UNL     1      26.301  48.094  55.009  1.00  0.00     0.010 C 
HETATM   27  C   UNL     1      26.059  48.895  56.277  1.00  0.00     0.006 C 
ENDBRANCH  25  26
ENDBRANCH  23  25
ENDBRANCH   1  23
TORSDOF 7
ENDMDL
MODEL 3
REMARK VINA RESULT:      -7.7      1.195      3.317
REMARK  7 active torsions:
REMARK  status: ('A' for Active; 'I' for Inactive)
REMARK    1  A    between atoms: C_2  and  C_3 
REMARK    2  A    between atoms: C_3  and  N_4 
REMARK    3  A    between atoms: N_4  and  C_5 
REMARK    4  A    between atoms: C_7  and  N_8 
REMARK    5  A    between atoms: N_8  and  C_9 
REMARK    6  A    between atoms: C_9  and  C_10 
REMARK    7  A    between atoms: C_13  and  O_14 
ROOT
HETATM    1  C   UNL     1      29.472  43.907  54.440  1.00  0.00     0.119 A 
HETATM    2  N   UNL     1      28.561  44.801  54.010  1.00  0.00    -0.207 NA
HETATM    3  C   UNL     1      28.302  45.859  54.790  1.00  0.00     0.181 A 
HETATM    4  N   UNL     1      28.887  46.051  55.969  1.00  0.00    -0.330 N 
HETATM    5  H   UNL     1      28.567  46.826  56.537  1.00  0.00     0.168 HD
HETATM    6  C   UNL     1      29.835  45.222  56.418  1.00  0.00     0.048 A 
HETATM    7  C   UNL     1      30.182  44.096  55.645  1.00  0.00     0.031 A 
HETATM    8  C   UNL     1      30.471  45.480  57.641  1.00  0.00     0.030 A 
HETATM    9  C   UNL     1      31.472  44.626  58.102  1.00  0.00     0.002 A 
HETATM   10  C   UNL     1      31.839  43.515  57.350  1.00  0.00     0.001 A 
HETATM   11  C   UNL     1      31.203  43.248  56.134  1.00  0.00     0.017 A 
ENDROOT
BRANCH   3  12
HETATM   12  N   UNL     1      27.311  46.722  54.352  1.00  0.00    -0.258 NA
HETATM   13  H   UNL     1      27.399  47.550  54.946  1.00  0.00     0.130 HD
BRANCH  12  14
HETATM   14  C   UNL     1      25.933  46.235  54.341  1.00  0.00     0.134 C 
BRANCH  14  15
HETATM   15  C   UNL     1      25.465  46.021  52.921  1.00  0.00    -0.045 A 
HETATM   16  C   UNL     1      25.450  47.076  52.002  1.00  0.00     0.011 A 
HETATM   17  C   UNL     1      24.958  46.871  50.710  1.00  0.00     0.037 A 
HETATM   18  C   UNL     1      24.494  45.616  50.309  1.00  0.00     0.068 A 
HETATM   19  C   UNL     1      24.527  44.556  51.213  1.00  0.00     0.037 A 
HETATM   20  C   UNL     1      25.015  44.757  52.507  1.00  0.00     0.011 A 
BRANCH  18  21
HETATM   21  O   UNL     1      24.031  45.559  49.026  1.00  0.00    -0.356 OA
HETATM   22  C   UNL     1      23.985  44.274  48.413  1.00  0.00     0.210 C 
ENDBRANCH  18  21
ENDBRANCH  14  15
ENDBRANCH  12  14
ENDBRANCH   3  12
BRANCH   1  23
HETATM   23  N   UNL     1      29.750  42.787  53.641  1.00  0.00    -0.277 NA
HETATM   24  H   UNL     1      30.667  42.406  53.869  1.00  0.00     0.129 HD
BRANCH  23  25
HETATM   25  C   UNL     1      28.732  41.734  53.626  1.00  0.00     0.093 C 
BRANCH  25  26
HETATM   26  C   UNL     1      28.471  41.304  52.182  1.00  0.00     0.010 C 
HETATM   27  C   UNL     1      27.718  42.373  51.409  1.00  0.00     0.006 C 
ENDBRANCH  25  26
ENDBRANCH  23  25
ENDBRANCH   1  23
TORSDOF 7
ENDMDL
MODEL 4
REMARK VINA RESULT:      -7.6      3.866      7.460
REMARK  7 active torsions:
REMARK  status: ('A' for Active; 'I' for Inactive)
REMARK    1  A    between atoms: C_2  and  C_3 
REMARK    2  A    between atoms: C_3  and  N_4 
REMARK    3  A    between atoms: N_4  and  C_5 
REMARK    4  A    between atoms: C_7  and  N_8 
REMARK    5  A    between atoms: N_8  and  C_9 
REMARK    6  A    between atoms: C_9  and  C_10 
REMARK    7  A    between atoms: C_13  and  O_14 
ROOT
HETATM    1  C   UNL     1      27.567  41.598  49.581  1.00  0.00     0.119 A 
HETATM    2  N   UNL     1      27.799  41.846  50.884  1.00  0.00    -0.207 NA
HETATM    3  C   UNL     1      28.397  40.891  51.608  1.00  0.00     0.181 A 
HETATM    4  N   UNL     1      28.749  39.712  51.104  1.00  0.00    -0.330 N 
HETATM    5  H   UNL     1      29.111  39.013  51.740  1.00  0.00     0.168 HD
HETATM    6  C   UNL     1      28.588  39.436  49.806  1.00  0.00     0.048 A 
HETATM    7  C   UNL     1      27.986  40.397  48.970  1.00  0.00     0.031 A 
HETATM    8  C   UNL     1      29.017  38.203  49.292  1.00  0.00     0.030 A 
HETATM    9  C   UNL     1      28.865  37.920  47.936  1.00  0.00     0.002 A 
HETATM   10  C   UNL     1      28.285  38.860  47.090  1.00  0.00     0.001 A 
HETATM   11  C   UNL     1      27.848  40.087  47.597  1.00  0.00     0.017 A 
ENDROOT
BRANCH   3  12
HETATM   12  N   UNL     1      28.559  41.150  52.959  1.00  0.00    -0.258 NA
HETATM   13  H   UNL     1      28.485  40.238  53.415  1.00  0.00     0.130 HD
BRANCH  12  14
HETATM   14  C   UNL     1      27.658  42.117  53.584  1.00  0.00     0.134 C 
BRANCH  14  15
HETATM   15  C   UNL     1      28.451  43.158  54.340  1.00  0.00    -0.045 A 
HETATM   16  C   UNL     1      29.767  42.907  54.744  1.00  0.00     0.011 A 
HETATM   17  C   UNL     1      30.463  43.860  55.493  1.00  0.00     0.037 A 
HETATM   18  C   UNL     1      29.870  45.078  55.834  1.00  0.00     0.068 A 
HETATM   19  C   UNL     1      28.567  45.341  55.417  1.00  0.00     0.037 A 
HETATM   20  C   UNL     1      27.866  44.391  54.670  1.00  0.00     0.011 A 
BRANCH  18  21
HETATM   21  O   UNL     1      30.656  45.910  56.578  1.00  0.00    -0.356 OA
HETATM   22  C   UNL     1      30.397  45.963  57.977  1.00  0.00     0.210 C 
ENDBRANCH  18  21
ENDBRANCH  14  15
ENDBRANCH  12  14
ENDBRANCH   3  12
BRANCH   1  23
HETATM   23  N   UNL     1      26.932  42.584  48.808  1.00  0.00    -0.277 NA
HETATM   24  H   UNL     1      26.489  42.165  47.992  1.00  0.00     0.129 HD
BRANCH  23  25
HETATM   25  C   UNL     1      26.001  43.463  49.517  1.00  0.00     0.093 C 
BRANCH  25  26
HETATM   26  C   UNL     1      26.684  44.804  49.794  1.00  0.00     0.010 C 
HETATM   27  C   UNL     1      26.354  45.321  51.184  1.00  0.00     0.006 C 
ENDBRANCH  25  26
ENDBRANCH  23  25
ENDBRANCH   1  23
TORSDOF 7
ENDMDL
MODEL 5
REMARK VINA RESULT:      -7.6      1.880      4.058
REMARK  7 active torsions:
REMARK  status: ('A' for Active; 'I' for Inactive)
REMARK    1  A    between atoms: C_2  and  C_3 
REMARK    2  A    between atoms: C_3  and  N_4 
REMARK    3  A    between atoms: N_4  and  C_5 
REMARK    4  A    between atoms: C_7  and  N_8 
REMARK    5  A    between atoms: N_8  and  C_9 
REMARK    6  A    between atoms: C_9  and  C_10 
REMARK    7  A    between atoms: C_13  and  O_14 
ROOT
HETATM    1  C   UNL     1      28.952  43.257  53.023  1.00  0.00     0.119 A 
HETATM    2  N   UNL     1      27.928  43.852  52.383  1.00  0.00    -0.207 NA
HETATM    3  C   UNL     1      27.378  44.935  52.949  1.00  0.00     0.181 A 
HETATM    4  N   UNL     1      27.784  45.428  54.115  1.00  0.00    -0.330 N 
HETATM    5  H   UNL     1      27.255  46.192  54.517  1.00  0.00     0.168 HD
HETATM    6  C   UNL     1      28.829  44.907  54.765  1.00  0.00     0.048 A 
HETATM    7  C   UNL     1      29.478  43.779  54.224  1.00  0.00     0.031 A 
HETATM    8  C   UNL     1      29.267  45.482  55.966  1.00  0.00     0.030 A 
HETATM    9  C   UNL     1      30.367  44.948  56.637  1.00  0.00     0.002 A 
HETATM   10  C   UNL     1      31.031  43.843  56.114  1.00  0.00     0.001 A 
HETATM   11  C   UNL     1      30.594  43.261  54.921  1.00  0.00     0.017 A 
ENDROOT
BRANCH   3  12
HETATM   12  N   UNL     1      26.283  45.482  52.300  1.00  0.00    -0.258 NA
HETATM   13  H   UNL     1      25.468  45.088  52.777  1.00  0.00     0.130 HD
BRANCH  12  14
HETATM   14  C   UNL     1      26.180  45.295  50.854  1.00  0.00     0.134 C 
BRANCH  14  15
HETATM   15  C   UNL     1      25.701  46.568  50.196  1.00  0.00    -0.045 A 
HETATM   16  C   UNL     1      26.611  47.528  49.737  1.00  0.00     0.011 A 
HETATM   17  C   UNL     1      26.146  48.724  49.184  1.00  0.00     0.037 A 
HETATM   18  C   UNL     1      24.777  48.975  49.062  1.00  0.00     0.068 A 
HETATM   19  C   UNL     1      23.867  48.014  49.497  1.00  0.00     0.037 A 
HETATM   20  C   UNL     1      24.326  46.817  50.054  1.00  0.00     0.011 A 
BRANCH  18  21
HETATM   21  O   UNL     1      24.463  50.186  48.516  1.00  0.00    -0.356 OA
HETATM   22  C   UNL     1      23.235  50.780  48.928  1.00  0.00     0.210 C 
ENDBRANCH  18  21
ENDBRANCH  14  15
ENDBRANCH  12  14
ENDBRANCH   3  12
BRANCH   1  23
HETATM   23  N   UNL     1      29.536  42.116  52.450  1.00  0.00    -0.277 NA
HETATM   24  H   UNL     1      30.468  41.963  52.832  1.00  0.00     0.129 HD
BRANCH  23  25
HETATM   25  C   UNL     1      28.740  40.887  52.500  1.00  0.00     0.093 C 
BRANCH  25  26
HETATM   26  C   UNL     1      28.281  40.525  51.087  1.00  0.00     0.010 C 
HETATM   27  C   UNL     1      26.785  40.725  50.918  1.00  0.00     0.006 C 
ENDBRANCH  25  26
ENDBRANCH  23  25
ENDBRANCH   1  23
TORSDOF 7
ENDMDL
MODEL 6
REMARK VINA RESULT:      -7.5      2.535      3.249
REMARK  7 active torsions:
REMARK  status: ('A' for Active; 'I' for Inactive)
REMARK    1  A    between atoms: C_2  and  C_3 
REMARK    2  A    between atoms: C_3  and  N_4 
REMARK    3  A    between atoms: N_4  and  C_5 
REMARK    4  A    between atoms: C_7  and  N_8 
REMARK    5  A    between atoms: N_8  and  C_9 
REMARK    6  A    between atoms: C_9  and  C_10 
REMARK    7  A    between atoms: C_13  and  O_14 
ROOT
HETATM    1  C   UNL     1      28.823  45.095  54.756  1.00  0.00     0.119 A 
HETATM    2  N   UNL     1      28.842  44.201  53.749  1.00  0.00    -0.207 NA
HETATM    3  C   UNL     1      29.724  43.195  53.819  1.00  0.00     0.181 A 
HETATM    4  N   UNL     1      30.587  43.057  54.820  1.00  0.00    -0.330 N 
HETATM    5  H   UNL     1      31.282  42.323  54.750  1.00  0.00     0.168 HD
HETATM    6  C   UNL     1      30.576  43.886  55.868  1.00  0.00     0.048 A 
HETATM    7  C   UNL     1      29.662  44.958  55.883  1.00  0.00     0.031 A 
HETATM    8  C   UNL     1      31.464  43.683  56.934  1.00  0.00     0.030 A 
HETATM    9  C   UNL     1      31.443  44.538  58.036  1.00  0.00     0.002 A 
HETATM   10  C   UNL     1      30.539  45.595  58.077  1.00  0.00     0.001 A 
HETATM   11  C   UNL     1      29.657  45.807  57.014  1.00  0.00     0.017 A 
ENDROOT
BRANCH   3  12
HETATM   12  N   UNL     1      29.763  42.332  52.736  1.00  0.00    -0.258 NA
HETATM   13  H   UNL     1      29.757  42.940  51.913  1.00  0.00     0.130 HD
BRANCH  12  14
HETATM   14  C   UNL     1      28.723  41.311  52.635  1.00  0.00     0.134 C 
BRANCH  14  15
HETATM   15  C   UNL     1      28.198  41.236  51.221  1.00  0.00    -0.045 A 
HETATM   16  C   UNL     1      28.491  40.140  50.401  1.00  0.00     0.011 A 
HETATM   17  C   UNL     1      28.045  40.118  49.077  1.00  0.00     0.037 A 
HETATM   18  C   UNL     1      27.289  41.172  48.556  1.00  0.00     0.068 A 
HETATM   19  C   UNL     1      26.977  42.256  49.374  1.00  0.00     0.037 A 
HETATM   20  C   UNL     1      27.423  42.284  50.697  1.00  0.00     0.011 A 
BRANCH  18  21
HETATM   21  O   UNL     1      26.930  41.027  47.247  1.00  0.00    -0.356 OA
HETATM   22  C   UNL     1      27.986  40.918  46.296  1.00  0.00     0.210 C 
ENDBRANCH  18  21
ENDBRANCH  14  15
ENDBRANCH  12  14
ENDBRANCH   3  12
BRANCH   1  23
HETATM   23  N   UNL     1      27.912  46.162  54.697  1.00  0.00    -0.277 NA
HETATM   24  H   UNL     1      28.304  46.936  54.163  1.00  0.00     0.129 HD
BRANCH  23  25
HETATM   25  C   UNL     1      26.562  45.834  54.233  1.00  0.00     0.093 C 
BRANCH  25  26
HETATM   26  C   UNL     1      25.937  47.070  53.584  1.00  0.00     0.010 C 
HETATM   27  C   UNL     1      25.960  46.974  52.067  1.00  0.00     0.006 C 
ENDBRANCH  25  26
ENDBRANCH  23  25
ENDBRANCH   1  23
TORSDOF 7
ENDMDL
MODEL 7
REMARK VINA RESULT:      -7.5      3.298      5.596
REMARK  7 active torsions:
REMARK  status: ('A' for Active; 'I' for Inactive)
REMARK    1  A    between atoms: C_2  and  C_3 
REMARK    2  A    between atoms: C_3  and  N_4 
REMARK    3  A    between atoms: N_4  and  C_5 
REMARK    4  A    between atoms: C_7  and  N_8 
REMARK    5  A    between atoms: N_8  and  C_9 
REMARK    6  A    between atoms: C_9  and  C_10 
REMARK    7  A    between atoms: C_13  and  O_14 
ROOT
HETATM    1  C   UNL     1      29.117  44.385  54.941  1.00  0.00     0.119 A 
HETATM    2  N   UNL     1      28.917  43.167  54.403  1.00  0.00    -0.207 NA
HETATM    3  C   UNL     1      27.778  42.957  53.729  1.00  0.00     0.181 A 
HETATM    4  N   UNL     1      26.838  43.886  53.589  1.00  0.00    -0.330 N 
HETATM    5  H   UNL     1      25.968  43.618  53.145  1.00  0.00     0.168 HD
HETATM    6  C   UNL     1      27.010  45.126  54.057  1.00  0.00     0.048 A 
HETATM    7  C   UNL     1      28.192  45.435  54.760  1.00  0.00     0.031 A 
HETATM    8  C   UNL     1      26.023  46.100  53.847  1.00  0.00     0.030 A 
HETATM    9  C   UNL     1      26.208  47.398  54.322  1.00  0.00     0.002 A 
HETATM   10  C   UNL     1      27.373  47.728  55.007  1.00  0.00     0.001 A 
HETATM   11  C   UNL     1      28.357  46.760  55.226  1.00  0.00     0.017 A 
ENDROOT
BRANCH   3  12
HETATM   12  N   UNL     1      27.572  41.675  53.248  1.00  0.00    -0.258 NA
HETATM   13  H   UNL     1      27.038  41.199  53.980  1.00  0.00     0.130 HD
BRANCH  12  14
HETATM   14  C   UNL     1      28.745  40.889  52.868  1.00  0.00     0.134 C 
BRANCH  14  15
HETATM   15  C   UNL     1      28.600  40.386  51.450  1.00  0.00    -0.045 A 
HETATM   16  C   UNL     1      29.143  39.156  51.064  1.00  0.00     0.011 A 
HETATM   17  C   UNL     1      29.049  38.737  49.734  1.00  0.00     0.037 A 
HETATM   18  C   UNL     1      28.400  39.522  48.778  1.00  0.00     0.068 A 
HETATM   19  C   UNL     1      27.839  40.738  49.162  1.00  0.00     0.037 A 
HETATM   20  C   UNL     1      27.933  41.164  50.489  1.00  0.00     0.011 A 
BRANCH  18  21
HETATM   21  O   UNL     1      28.392  38.999  47.516  1.00  0.00    -0.356 OA
HETATM   22  C   UNL     1      28.724  37.619  47.387  1.00  0.00     0.210 C 
ENDBRANCH  18  21
ENDBRANCH  14  15
ENDBRANCH  12  14
ENDBRANCH   3  12
BRANCH   1  23
HETATM   23  N   UNL     1      30.301  44.621  55.658  1.00  0.00    -0.277 NA
HETATM   24  H   UNL     1      30.129  45.270  56.425  1.00  0.00     0.129 HD
BRANCH  23  25
HETATM   25  C   UNL     1      31.022  43.435  56.126  1.00  0.00     0.093 C 
BRANCH  25  26
HETATM   26  C   UNL     1      31.718  43.756  57.449  1.00  0.00     0.010 C 
HETATM   27  C   UNL     1      31.017  44.883  58.189  1.00  0.00     0.006 C 
ENDBRANCH  25  26
ENDBRANCH  23  25
ENDBRANCH   1  23
TORSDOF 7
ENDMDL
MODEL 8
REMARK VINA RESULT:      -7.4      3.160      7.701
REMARK  7 active torsions:
REMARK  status: ('A' for Active; 'I' for Inactive)
REMARK    1  A    between atoms: C_2  and  C_3 
REMARK    2  A    between atoms: C_3  and  N_4 
REMARK    3  A    between atoms: N_4  and  C_5 
REMARK    4  A    between atoms: C_7  and  N_8 
REMARK    5  A    between atoms: N_8  and  C_9 
REMARK    6  A    between atoms: C_9  and  C_10 
REMARK    7  A    between atoms: C_13  and  O_14 
ROOT
HETATM    1  C   UNL     1      25.146  46.684  50.706  1.00  0.00     0.119 A 
HETATM    2  N   UNL     1      25.877  46.117  51.686  1.00  0.00    -0.207 NA
HETATM    3  C   UNL     1      25.578  44.862  52.045  1.00  0.00     0.181 A 
HETATM    4  N   UNL     1      24.588  44.167  51.496  1.00  0.00    -0.330 N 
HETATM    5  H   UNL     1      24.369  43.259  51.889  1.00  0.00     0.168 HD
HETATM    6  C   UNL     1      23.867  44.663  50.485  1.00  0.00     0.048 A 
HETATM    7  C   UNL     1      24.133  45.970  50.032  1.00  0.00     0.031 A 
HETATM    8  C   UNL     1      22.863  43.885  49.890  1.00  0.00     0.030 A 
HETATM    9  C   UNL     1      22.121  44.396  48.826  1.00  0.00     0.002 A 
HETATM   10  C   UNL     1      22.376  45.680  48.353  1.00  0.00     0.001 A 
HETATM   11  C   UNL     1      23.370  46.462  48.947  1.00  0.00     0.017 A 
ENDROOT
BRANCH   3  12
HETATM   12  N   UNL     1      26.303  44.333  53.101  1.00  0.00    -0.258 NA
HETATM   13  H   UNL     1      26.527  45.134  53.696  1.00  0.00     0.130 HD
BRANCH  12  14
HETATM   14  C   UNL     1      27.507  43.565  52.789  1.00  0.00     0.134 C 
BRANCH  14  15
HETATM   15  C   UNL     1      28.574  43.823  53.827  1.00  0.00    -0.045 A 
HETATM   16  C   UNL     1      29.624  42.918  54.020  1.00  0.00     0.011 A 
HETATM   17  C   UNL     1      30.568  43.147  55.024  1.00  0.00     0.037 A 
HETATM   18  C   UNL     1      30.495  44.282  55.835  1.00  0.00     0.068 A 
HETATM   19  C   UNL     1      29.463  45.197  55.633  1.00  0.00     0.037 A 
HETATM   20  C   UNL     1      28.515  44.972  54.632  1.00  0.00     0.011 A 
BRANCH  18  21
HETATM   21  O   UNL     1      31.472  44.374  56.783  1.00  0.00    -0.356 OA
HETATM   22  C   UNL     1      31.058  44.686  58.110  1.00  0.00     0.210 C 
ENDBRANCH  18  21
ENDBRANCH  14  15
ENDBRANCH  12  14
ENDBRANCH   3  12
BRANCH   1  23
HETATM   23  N   UNL     1      25.438  48.002  50.321  1.00  0.00    -0.277 NA
HETATM   24  H   UNL     1      25.353  48.632  51.117  1.00  0.00     0.129 HD
BRANCH  23  25
HETATM   25  C   UNL     1      26.710  48.206  49.624  1.00  0.00     0.093 C 
BRANCH  25  26
HETATM   26  C   UNL     1      26.570  49.378  48.651  1.00  0.00     0.010 C 
HETATM   27  C   UNL     1      25.117  49.783  48.471  1.00  0.00     0.006 C 
ENDBRANCH  25  26
ENDBRANCH  23  25
ENDBRANCH   1  23
TORSDOF 7
ENDMDL
MODEL 9
REMARK VINA RESULT:      -7.3      2.363      4.685
REMARK  7 active torsions:
REMARK  status: ('A' for Active; 'I' for Inactive)
REMARK    1  A    between atoms: C_2  and  C_3 
REMARK    2  A    between atoms: C_3  and  N_4 
REMARK    3  A    between atoms: N_4  and  C_5 
REMARK    4  A    between atoms: C_7  and  N_8 
REMARK    5  A    between atoms: N_8  and  C_9 
REMARK    6  A    between atoms: C_9  and  C_10 
REMARK    7  A    between atoms: C_13  and  O_14 
ROOT
HETATM    1  C   UNL     1      28.167  42.024  52.067  1.00  0.00     0.119 A 
HETATM    2  N   UNL     1      26.915  42.300  51.655  1.00  0.00    -0.207 NA
HETATM    3  C   UNL     1      26.230  43.243  52.315  1.00  0.00     0.181 A 
HETATM    4  N   UNL     1      26.722  43.896  53.364  1.00  0.00    -0.330 N 
HETATM    5  H   UNL     1      26.106  44.526  53.863  1.00  0.00     0.168 HD
HETATM    6  C   UNL     1      27.976  43.697  53.781  1.00  0.00     0.048 A 
HETATM    7  C   UNL     1      28.772  42.736  53.125  1.00  0.00     0.031 A 
HETATM    8  C   UNL     1      28.485  44.438  54.857  1.00  0.00     0.030 A 
HETATM    9  C   UNL     1      29.798  44.243  55.283  1.00  0.00     0.002 A 
HETATM   10  C   UNL     1      30.606  43.309  54.641  1.00  0.00     0.001 A 
HETATM   11  C   UNL     1      30.102  42.562  53.573  1.00  0.00     0.017 A 
ENDROOT
BRANCH   3  12
HETATM   12  N   UNL     1      24.923  43.455  51.910  1.00  0.00    -0.258 NA
HETATM   13  H   UNL     1      24.414  42.619  52.206  1.00  0.00     0.130 HD
BRANCH  12  14
HETATM   14  C   UNL     1      24.681  43.735  50.496  1.00  0.00     0.134 C 
BRANCH  14  15
HETATM   15  C   UNL     1      25.111  45.145  50.161  1.00  0.00    -0.045 A 
HETATM   16  C   UNL     1      26.424  45.422  49.766  1.00  0.00     0.011 A 
HETATM   17  C   UNL     1      26.816  46.740  49.518  1.00  0.00     0.037 A 
HETATM   18  C   UNL     1      25.908  47.795  49.640  1.00  0.00     0.068 A 
HETATM   19  C   UNL     1      24.593  47.522  50.012  1.00  0.00     0.037 A 
HETATM   20  C   UNL     1      24.197  46.206  50.265  1.00  0.00     0.011 A 
BRANCH  18  21
HETATM   21  O   UNL     1      26.427  49.031  49.380  1.00  0.00    -0.356 OA
HETATM   22  C   UNL     1      27.824  49.101  49.109  1.00  0.00     0.210 C 
ENDBRANCH  18  21
ENDBRANCH  14  15
ENDBRANCH  12  14
ENDBRANCH   3  12
BRANCH   1  23
HETATM   23  N   UNL     1      28.898  41.033  51.393  1.00  0.00    -0.277 NA
HETATM   24  H   UNL     1      29.511  40.541  52.041  1.00  0.00     0.129 HD
BRANCH  23  25
HETATM   25  C   UNL     1      28.119  40.089  50.588  1.00  0.00     0.093 C 
BRANCH  25  26
HETATM   26  C   UNL     1      28.552  40.195  49.126  1.00  0.00     0.010 C 
HETATM   27  C   UNL     1      27.641  41.123  48.340  1.00  0.00     0.006 C 
ENDBRANCH  25  26
ENDBRANCH  23  25
ENDBRANCH   1  23
TORSDOF 7
ENDMDL
MODEL 10
REMARK VINA RESULT:      -7.3      1.635      2.817
REMARK  7 active torsions:
REMARK  status: ('A' for Active; 'I' for Inactive)
REMARK    1  A    between atoms: C_2  and  C_3 
REMARK    2  A    between atoms: C_3  and  N_4 
REMARK    3  A    between atoms: N_4  and  C_5 
REMARK    4  A    between atoms: C_7  and  N_8 
REMARK    5  A    between atoms: N_8  and  C_9 
REMARK    6  A    between atoms: C_9  and  C_10 
REMARK    7  A    between atoms: C_13  and  O_14 
ROOT
HETATM    1  C   UNL     1      27.036  45.133  53.866  1.00  0.00     0.119 A 
HETATM    2  N   UNL     1      26.352  44.749  52.771  1.00  0.00    -0.207 NA
HETATM    3  C   UNL     1      26.896  43.807  51.990  1.00  0.00     0.181 A 
HETATM    4  N   UNL     1      28.080  43.255  52.236  1.00  0.00    -0.330 N 
HETATM    5  H   UNL     1      28.460  42.619  51.547  1.00  0.00     0.168 HD
HETATM    6  C   UNL     1      28.775  43.562  53.336  1.00  0.00     0.048 A 
HETATM    7  C   UNL     1      28.261  44.530  54.223  1.00  0.00     0.031 A 
HETATM    8  C   UNL     1      29.997  42.925  53.596  1.00  0.00     0.030 A 
HETATM    9  C   UNL     1      30.715  43.233  54.751  1.00  0.00     0.002 A 
HETATM   10  C   UNL     1      30.219  44.175  55.647  1.00  0.00     0.001 A 
HETATM   11  C   UNL     1      29.006  44.819  55.390  1.00  0.00     0.017 A 
ENDROOT
BRANCH   3  12
HETATM   12  N   UNL     1      26.200  43.484  50.836  1.00  0.00    -0.258 NA
HETATM   13  H   UNL     1      26.366  42.484  50.697  1.00  0.00     0.130 HD
BRANCH  12  14
HETATM   14  C   UNL     1      26.506  44.234  49.619  1.00  0.00     0.134 C 
BRANCH  14  15
HETATM   15  C   UNL     1      25.813  45.577  49.646  1.00  0.00    -0.045 A 
HETATM   16  C   UNL     1      24.418  45.669  49.565  1.00  0.00     0.011 A 
HETATM   17  C   UNL     1      23.801  46.922  49.532  1.00  0.00     0.037 A 
HETATM   18  C   UNL     1      24.555  48.096  49.597  1.00  0.00     0.068 A 
HETATM   19  C   UNL     1      25.942  48.010  49.698  1.00  0.00     0.037 A 
HETATM   20  C   UNL     1      26.565  46.760  49.729  1.00  0.00     0.011 A 
BRANCH  18  21
HETATM   21  O   UNL     1      23.827  49.249  49.542  1.00  0.00    -0.356 OA
HETATM   22  C   UNL     1      22.477  49.140  49.098  1.00  0.00     0.210 C 
ENDBRANCH  18  21
ENDBRANCH  14  15
ENDBRANCH  12  14
ENDBRANCH   3  12
BRANCH   1  23
HETATM   23  N   UNL     1      26.486  46.126  54.693  1.00  0.00    -0.277 NA
HETATM   24  H   UNL     1      26.967  46.147  55.591  1.00  0.00     0.129 HD
BRANCH  23  25
HETATM   25  C   UNL     1      26.392  47.468  54.116  1.00  0.00     0.093 C 
BRANCH  25  26
HETATM   26  C   UNL     1      27.030  48.476  55.074  1.00  0.00     0.010 C 
HETATM   27  C   UNL     1      26.170  48.693  56.308  1.00  0.00     0.006 C 
ENDBRANCH  25  26
ENDBRANCH  23  25
ENDBRANCH   1  23
TORSDOF 7
ENDMDL
