MODEL 1
REMARK VINA RESULT:      -9.8      0.000      0.000
REMARK  8 active torsions:
REMARK  status: ('A' for Active; 'I' for Inactive)
REMARK    1  A    between atoms: C_4  and  C_5 
REMARK    2  A    between atoms: C_9  and  C_10 
REMARK       I    between atoms: C_10  and  N_11 
REMARK    3  A    between atoms: N_11  and  C_12 
REMARK    4  A    between atoms: C_12  and  C_13 
REMARK    5  A    between atoms: C_13  and  C_14 
REMARK    6  A    between atoms: C_14  and  C_15 
REMARK    7  A    between atoms: C_15  and  O_16 
REMARK    8  A    between atoms: O_16  and  C_17 
ROOT
HETATM    1  C   UNL     1      22.837  48.903  48.894  1.00  0.00     0.270 C 
HETATM    2  N   UNL     1      23.426  48.160  49.884  1.00  0.00    -0.345 N 
HETATM    3  O   UNL     1      23.444  49.271  47.895  1.00  0.00    -0.266 OA
HETATM    4  H   UNL     1      22.865  47.785  50.633  1.00  0.00     0.163 HD
ENDROOT
BRANCH   2   5
HETATM    5  C   UNL     1      24.793  47.724  49.775  1.00  0.00     0.217 C 
BRANCH   5   6
HETATM    6  C   UNL     1      25.180  47.016  51.064  1.00  0.00    -0.085 C 
BRANCH   6   7
HETATM    7  C   UNL     1      25.512  46.407  52.168  1.00  0.00    -0.078 C 
BRANCH   7   8
HETATM    8  C   UNL     1      25.897  45.698  53.455  1.00  0.00     0.269 C 
BRANCH   8   9
HETATM    9  O   UNL     1      26.948  46.432  54.078  1.00  0.00    -0.339 OA
BRANCH   9  10
HETATM   10  C   UNL     1      27.964  45.706  54.637  1.00  0.00     0.072 A 
HETATM   11  C   UNL     1      28.607  45.984  55.845  1.00  0.00     0.069 A 
HETATM   12  C   UNL     1      29.638  45.183  56.325  1.00  0.00     0.069 A 
HETATM   13  C   UNL     1      30.033  44.064  55.564  1.00  0.00    -0.007 A 
HETATM   14  N   UNL     1      30.224  45.500  57.493  1.00  0.00    -0.260 NA
HETATM   15  C   UNL     1      29.390  43.774  54.351  1.00  0.00     0.016 A 
HETATM   16  C   UNL     1      31.073  43.266  56.056  1.00  0.00     0.015 A 
HETATM   17  C   UNL     1      28.361  44.595  53.894  1.00  0.00     0.038 A 
HETATM   18  C   UNL     1      31.682  43.591  57.262  1.00  0.00     0.020 A 
HETATM   19  C   UNL     1      31.225  44.707  57.936  1.00  0.00     0.117 A 
ENDBRANCH   9  10
ENDBRANCH   8   9
ENDBRANCH   7   8
ENDBRANCH   6   7
ENDBRANCH   5   6
ENDBRANCH   2   5
BRANCH   1  20
HETATM   20  C   UNL     1      21.447  49.202  49.106  1.00  0.00     0.120 A 
HETATM   21  N   UNL     1      20.598  48.307  49.693  1.00  0.00    -0.272 N 
HETATM   22  N   UNL     1      19.343  48.755  49.846  1.00  0.00    -0.174 NA
HETATM   23  H   UNL     1      20.832  47.375  50.025  1.00  0.00     0.189 HD
HETATM   24  C   UNL     1      19.352  49.982  49.301  1.00  0.00     0.089 A 
HETATM   25  C   UNL     1      20.656  50.299  48.826  1.00  0.00     0.071 A 
BRANCH  24  26
HETATM   26  C   UNL     1      18.150  50.820  49.255  1.00  0.00    -0.006 A 
HETATM   27  C   UNL     1      18.159  52.104  49.817  1.00  0.00     0.014 A 
HETATM   28  C   UNL     1      17.023  52.917  49.761  1.00  0.00     0.001 A 
HETATM   29  C   UNL     1      15.863  52.452  49.145  1.00  0.00     0.000 A 
HETATM   30  C   UNL     1      15.837  51.175  48.590  1.00  0.00     0.001 A 
HETATM   31  C   UNL     1      16.973  50.363  48.643  1.00  0.00     0.014 A 
ENDBRANCH  24  26
ENDBRANCH   1  20
TORSDOF 8
ENDMDL
MODEL 2
REMARK VINA RESULT:      -9.6      1.893      2.485
REMARK  8 active torsions:
REMARK  status: ('A' for Active; 'I' for Inactive)
REMARK    1  A    between atoms: C_4  and  C_5 
REMARK    2  A    between atoms: C_9  and  C_10 
REMARK       I    between atoms: C_10  and  N_11 
REMARK    3  A    between atoms: N_11  and  C_12 
REMARK    4  A    between atoms: C_12  and  C_13 
REMARK    5  A    between atoms: C_13  and  C_14 
REMARK    6  A    between atoms: C_14  and  C_15 
REMARK    7  A    between atoms: C_15  and  O_16 
REMARK    8  A    between atoms: O_16  and  C_17 
ROOT
HETATM    1  C   UNL     1      24.776  49.186  48.849  1.00  0.00     0.270 C 
HETATM    2  N   UNL     1      25.292  48.189  49.636  1.00  0.00    -0.345 N 
HETATM    3  O   UNL     1      25.465  49.833  48.067  1.00  0.00    -0.266 OA
HETATM    4  H   UNL     1      24.674  47.609  50.182  1.00  0.00     0.163 HD
ENDROOT
BRANCH   2   5
HETATM    5  C   UNL     1      26.677  47.810  49.546  1.00  0.00     0.217 C 
BRANCH   5   6
HETATM    6  C   UNL     1      26.779  46.302  49.711  1.00  0.00    -0.085 C 
BRANCH   6   7
HETATM    7  C   UNL     1      26.866  45.010  49.852  1.00  0.00    -0.078 C 
BRANCH   7   8
HETATM    8  C   UNL     1      26.967  43.502  50.017  1.00  0.00     0.269 C 
BRANCH   8   9
HETATM    9  O   UNL     1      26.614  43.169  51.357  1.00  0.00    -0.339 OA
BRANCH   9  10
HETATM   10  C   UNL     1      27.593  43.292  52.304  1.00  0.00     0.072 A 
HETATM   11  C   UNL     1      27.651  44.261  53.308  1.00  0.00     0.069 A 
HETATM   12  C   UNL     1      28.698  44.303  54.223  1.00  0.00     0.069 A 
HETATM   13  C   UNL     1      29.720  43.336  54.124  1.00  0.00    -0.007 A 
HETATM   14  N   UNL     1      28.705  45.260  55.167  1.00  0.00    -0.260 NA
HETATM   15  C   UNL     1      29.667  42.356  53.122  1.00  0.00     0.016 A 
HETATM   16  C   UNL     1      30.770  43.389  55.049  1.00  0.00     0.015 A 
HETATM   17  C   UNL     1      28.607  42.339  52.218  1.00  0.00     0.038 A 
HETATM   18  C   UNL     1      30.780  44.378  56.025  1.00  0.00     0.020 A 
HETATM   19  C   UNL     1      29.734  45.281  56.042  1.00  0.00     0.117 A 
ENDBRANCH   9  10
ENDBRANCH   8   9
ENDBRANCH   7   8
ENDBRANCH   6   7
ENDBRANCH   5   6
ENDBRANCH   2   5
BRANCH   1  20
HETATM   20  C   UNL     1      23.363  49.404  48.995  1.00  0.00     0.120 A 
HETATM   21  N   UNL     1      22.514  48.401  49.366  1.00  0.00    -0.272 N 
HETATM   22  N   UNL     1      21.232  48.779  49.488  1.00  0.00    -0.174 NA
HETATM   23  H   UNL     1      22.762  47.436  49.565  1.00  0.00     0.189 HD
HETATM   24  C   UNL     1      21.228  50.077  49.143  1.00  0.00     0.089 A 
HETATM   25  C   UNL     1      22.547  50.506  48.828  1.00  0.00     0.071 A 
BRANCH  24  26
HETATM   26  C   UNL     1      19.997  50.873  49.134  1.00  0.00    -0.006 A 
HETATM   27  C   UNL     1      18.905  50.500  49.929  1.00  0.00     0.014 A 
HETATM   28  C   UNL     1      17.734  51.264  49.941  1.00  0.00     0.001 A 
HETATM   29  C   UNL     1      17.642  52.409  49.153  1.00  0.00     0.000 A 
HETATM   30  C   UNL     1      18.715  52.787  48.350  1.00  0.00     0.001 A 
HETATM   31  C   UNL     1      19.887  52.025  48.340  1.00  0.00     0.014 A 
ENDBRANCH  24  26
ENDBRANCH   1  20
TORSDOF 8
ENDMDL
MODEL 3
REMARK VINA RESULT:      -9.4      1.798     12.161
REMARK  8 active torsions:
REMARK  status: ('A' for Active; 'I' for Inactive)
REMARK    1  A    between atoms: C_4  and  C_5 
REMARK    2  A    between atoms: C_9  and  C_10 
REMARK       I    between atoms: C_10  and  N_11 
REMARK    3  A    between atoms: N_11  and  C_12 
REMARK    4  A    between atoms: C_12  and  C_13 
REMARK    5  A    between atoms: C_13  and  C_14 
REMARK    6  A    between atoms: C_14  and  C_15 
REMARK    7  A    between atoms: C_15  and  O_16 
REMARK    8  A    between atoms: O_16  and  C_17 
ROOT
HETATM    1  C   UNL     1      25.669  45.553  52.722  1.00  0.00     0.270 C 
HETATM    2  N   UNL     1      25.624  46.526  51.757  1.00  0.00    -0.345 N 
HETATM    3  O   UNL     1      24.867  44.627  52.763  1.00  0.00    -0.266 OA
HETATM    4  H   UNL     1      26.367  47.206  51.693  1.00  0.00     0.163 HD
ENDROOT
BRANCH   2   5
HETATM    5  C   UNL     1      24.651  46.481  50.698  1.00  0.00     0.217 C 
BRANCH   5   6
HETATM    6  C   UNL     1      24.853  47.693  49.803  1.00  0.00    -0.085 C 
BRANCH   6   7
HETATM    7  C   UNL     1      25.026  48.732  49.034  1.00  0.00    -0.078 C 
BRANCH   7   8
HETATM    8  C   UNL     1      25.228  49.942  48.138  1.00  0.00     0.269 C 
BRANCH   8   9
HETATM    9  O   UNL     1      24.074  50.092  47.315  1.00  0.00    -0.339 OA
BRANCH   9  10
HETATM   10  C   UNL     1      22.871  50.218  47.952  1.00  0.00     0.072 A 
HETATM   11  C   UNL     1      21.657  49.667  47.536  1.00  0.00     0.069 A 
HETATM   12  C   UNL     1      20.483  49.860  48.256  1.00  0.00     0.069 A 
HETATM   13  C   UNL     1      20.533  50.632  49.436  1.00  0.00    -0.007 A 
HETATM   14  N   UNL     1      19.341  49.308  47.808  1.00  0.00    -0.260 NA
HETATM   15  C   UNL     1      21.749  51.186  49.863  1.00  0.00     0.016 A 
HETATM   16  C   UNL     1      19.344  50.821  50.152  1.00  0.00     0.015 A 
HETATM   17  C   UNL     1      22.910  50.977  49.121  1.00  0.00     0.038 A 
HETATM   18  C   UNL     1      18.163  50.253  49.690  1.00  0.00     0.020 A 
HETATM   19  C   UNL     1      18.214  49.512  48.525  1.00  0.00     0.117 A 
ENDBRANCH   9  10
ENDBRANCH   8   9
ENDBRANCH   7   8
ENDBRANCH   6   7
ENDBRANCH   5   6
ENDBRANCH   2   5
BRANCH   1  20
HETATM   20  C   UNL     1      26.740  45.689  53.671  1.00  0.00     0.120 A 
HETATM   21  N   UNL     1      27.089  46.901  54.195  1.00  0.00    -0.272 N 
HETATM   22  N   UNL     1      28.086  46.849  55.092  1.00  0.00    -0.174 NA
HETATM   23  H   UNL     1      26.663  47.800  53.985  1.00  0.00     0.189 HD
HETATM   24  C   UNL     1      28.438  45.554  55.131  1.00  0.00     0.089 A 
HETATM   25  C   UNL     1      27.615  44.794  54.254  1.00  0.00     0.071 A 
BRANCH  24  26
HETATM   26  C   UNL     1      29.519  45.070  55.996  1.00  0.00    -0.006 A 
HETATM   27  C   UNL     1      29.752  45.668  57.242  1.00  0.00     0.014 A 
HETATM   28  C   UNL     1      30.767  45.200  58.081  1.00  0.00     0.001 A 
HETATM   29  C   UNL     1      31.565  44.131  57.680  1.00  0.00     0.000 A 
HETATM   30  C   UNL     1      31.351  43.532  56.440  1.00  0.00     0.001 A 
HETATM   31  C   UNL     1      30.334  43.998  55.603  1.00  0.00     0.014 A 
ENDBRANCH  24  26
ENDBRANCH   1  20
TORSDOF 8
ENDMDL
MODEL 4
REMARK VINA RESULT:      -9.0      2.178      2.849
REMARK  8 active torsions:
REMARK  status: ('A' for Active; 'I' for Inactive)
REMARK    1  A    between atoms: C_4  and  C_5 
REMARK    2  A    between atoms: C_9  and  C_10 
REMARK       I    between atoms: C_10  and  N_11 
REMARK    3  A    between atoms: N_11  and  C_12 
REMARK    4  A    between atoms: C_12  and  C_13 
REMARK    5  A    between atoms: C_13  and  C_14 
REMARK    6  A    between atoms: C_14  and  C_15 
REMARK    7  A    between atoms: C_15  and  O_16 
REMARK    8  A    between atoms: O_16  and  C_17 
ROOT
HETATM    1  C   UNL     1      22.697  45.477  48.644  1.00  0.00     0.270 C 
HETATM    2  N   UNL     1      22.813  44.762  49.808  1.00  0.00    -0.345 N 
HETATM    3  O   UNL     1      22.888  44.978  47.541  1.00  0.00    -0.266 OA
HETATM    4  H   UNL     1      22.540  45.180  50.684  1.00  0.00     0.163 HD
ENDROOT
BRANCH   2   5
HETATM    5  C   UNL     1      23.119  43.356  49.791  1.00  0.00     0.217 C 
BRANCH   5   6
HETATM    6  C   UNL     1      24.477  43.148  50.441  1.00  0.00    -0.085 C 
BRANCH   6   7
HETATM    7  C   UNL     1      25.642  42.970  50.998  1.00  0.00    -0.078 C 
BRANCH   7   8
HETATM    8  C   UNL     1      27.002  42.764  51.646  1.00  0.00     0.269 C 
BRANCH   8   9
HETATM    9  O   UNL     1      27.490  44.029  52.085  1.00  0.00    -0.339 OA
BRANCH   9  10
HETATM   10  C   UNL     1      28.337  44.027  53.158  1.00  0.00     0.072 A 
HETATM   11  C   UNL     1      28.289  44.902  54.246  1.00  0.00     0.069 A 
HETATM   12  C   UNL     1      29.205  44.821  55.289  1.00  0.00     0.069 A 
HETATM   13  C   UNL     1      30.201  43.824  55.237  1.00  0.00    -0.007 A 
HETATM   14  N   UNL     1      29.114  45.691  56.311  1.00  0.00    -0.260 NA
HETATM   15  C   UNL     1      30.254  42.938  54.150  1.00  0.00     0.016 A 
HETATM   16  C   UNL     1      31.119  43.753  56.292  1.00  0.00     0.015 A 
HETATM   17  C   UNL     1      29.324  43.044  53.118  1.00  0.00     0.038 A 
HETATM   18  C   UNL     1      31.029  44.651  57.348  1.00  0.00     0.020 A 
HETATM   19  C   UNL     1      30.017  45.592  57.311  1.00  0.00     0.117 A 
ENDBRANCH   9  10
ENDBRANCH   8   9
ENDBRANCH   7   8
ENDBRANCH   6   7
ENDBRANCH   5   6
ENDBRANCH   2   5
BRANCH   1  20
HETATM   20  C   UNL     1      22.315  46.853  48.813  1.00  0.00     0.120 A 
HETATM   21  N   UNL     1      23.239  47.837  49.019  1.00  0.00    -0.272 N 
HETATM   22  N   UNL     1      22.719  49.070  49.124  1.00  0.00    -0.174 NA
HETATM   23  H   UNL     1      24.247  47.722  49.082  1.00  0.00     0.189 HD
HETATM   24  C   UNL     1      21.393  48.887  49.022  1.00  0.00     0.089 A 
HETATM   25  C   UNL     1      21.100  47.509  48.825  1.00  0.00     0.071 A 
BRANCH  24  26
HETATM   26  C   UNL     1      20.448  50.006  49.099  1.00  0.00    -0.006 A 
HETATM   27  C   UNL     1      19.339  49.940  49.954  1.00  0.00     0.014 A 
HETATM   28  C   UNL     1      18.444  51.009  50.047  1.00  0.00     0.001 A 
HETATM   29  C   UNL     1      18.645  52.155  49.281  1.00  0.00     0.000 A 
HETATM   30  C   UNL     1      19.736  52.231  48.419  1.00  0.00     0.001 A 
HETATM   31  C   UNL     1      20.634  51.163  48.328  1.00  0.00     0.014 A 
ENDBRANCH  24  26
ENDBRANCH   1  20
TORSDOF 8
ENDMDL
MODEL 5
REMARK VINA RESULT:      -9.0      2.595     12.357
REMARK  8 active torsions:
REMARK  status: ('A' for Active; 'I' for Inactive)
REMARK    1  A    between atoms: C_4  and  C_5 
REMARK    2  A    between atoms: C_9  and  C_10 
REMARK       I    between atoms: C_10  and  N_11 
REMARK    3  A    between atoms: N_11  and  C_12 
REMARK    4  A    between atoms: C_12  and  C_13 
REMARK    5  A    between atoms: C_13  and  C_14 
REMARK    6  A    between atoms: C_14  and  C_15 
REMARK    7  A    between atoms: C_15  and  O_16 
REMARK    8  A    between atoms: O_16  and  C_17 
ROOT
HETATM    1  C   UNL     1      24.939  43.832  51.413  1.00  0.00     0.270 C 
HETATM    2  N   UNL     1      25.091  44.838  50.494  1.00  0.00    -0.345 N 
HETATM    3  O   UNL     1      23.906  43.179  51.513  1.00  0.00    -0.266 OA
HETATM    4  H   UNL     1      25.992  45.275  50.371  1.00  0.00     0.163 HD
ENDROOT
BRANCH   2   5
HETATM    5  C   UNL     1      24.050  45.149  49.551  1.00  0.00     0.217 C 
BRANCH   5   6
HETATM    6  C   UNL     1      23.991  46.658  49.375  1.00  0.00    -0.085 C 
BRANCH   6   7
HETATM    7  C   UNL     1      23.940  47.952  49.224  1.00  0.00    -0.078 C 
BRANCH   7   8
HETATM    8  C   UNL     1      23.880  49.460  49.047  1.00  0.00     0.269 C 
BRANCH   8   9
HETATM    9  O   UNL     1      22.923  49.985  49.964  1.00  0.00    -0.339 OA
BRANCH   9  10
HETATM   10  C   UNL     1      21.737  50.421  49.439  1.00  0.00     0.072 A 
HETATM   11  C   UNL     1      20.694  51.021  50.149  1.00  0.00     0.069 A 
HETATM   12  C   UNL     1      19.521  51.425  49.520  1.00  0.00     0.069 A 
HETATM   13  C   UNL     1      19.395  51.220  48.130  1.00  0.00    -0.007 A 
HETATM   14  N   UNL     1      18.548  51.994  50.252  1.00  0.00    -0.260 NA
HETATM   15  C   UNL     1      20.440  50.622  47.409  1.00  0.00     0.016 A 
HETATM   16  C   UNL     1      18.209  51.629  47.508  1.00  0.00     0.015 A 
HETATM   17  C   UNL     1      21.603  50.226  48.066  1.00  0.00     0.038 A 
HETATM   18  C   UNL     1      17.201  52.216  48.262  1.00  0.00     0.020 A 
HETATM   19  C   UNL     1      17.417  52.376  49.618  1.00  0.00     0.117 A 
ENDBRANCH   9  10
ENDBRANCH   8   9
ENDBRANCH   7   8
ENDBRANCH   6   7
ENDBRANCH   5   6
ENDBRANCH   2   5
BRANCH   1  20
HETATM   20  C   UNL     1      26.090  43.586  52.240  1.00  0.00     0.120 A 
HETATM   21  N   UNL     1      26.702  42.366  52.278  1.00  0.00    -0.272 N 
HETATM   22  N   UNL     1      27.781  42.315  53.074  1.00  0.00    -0.174 NA
HETATM   23  H   UNL     1      26.431  41.533  51.763  1.00  0.00     0.189 HD
HETATM   24  C   UNL     1      27.860  43.540  53.616  1.00  0.00     0.089 A 
HETATM   25  C   UNL     1      26.817  44.368  53.116  1.00  0.00     0.071 A 
BRANCH  24  26
HETATM   26  C   UNL     1      28.915  43.901  54.570  1.00  0.00    -0.006 A 
HETATM   27  C   UNL     1      29.942  42.994  54.866  1.00  0.00     0.014 A 
HETATM   28  C   UNL     1      30.962  43.336  55.759  1.00  0.00     0.001 A 
HETATM   29  C   UNL     1      30.962  44.588  56.370  1.00  0.00     0.000 A 
HETATM   30  C   UNL     1      29.943  45.496  56.092  1.00  0.00     0.001 A 
HETATM   31  C   UNL     1      28.925  45.155  55.197  1.00  0.00     0.014 A 
ENDBRANCH  24  26
ENDBRANCH   1  20
TORSDOF 8
ENDMDL
MODEL 6
REMARK VINA RESULT:      -8.9      2.403     12.274
REMARK  8 active torsions:
REMARK  status: ('A' for Active; 'I' for Inactive)
REMARK    1  A    between atoms: C_4  and  C_5 
REMARK    2  A    between atoms: C_9  and  C_10 
REMARK       I    between atoms: C_10  and  N_11 
REMARK    3  A    between atoms: N_11  and  C_12 
REMARK    4  A    between atoms: C_12  and  C_13 
REMARK    5  A    between atoms: C_13  and  C_14 
REMARK    6  A    between atoms: C_14  and  C_15 
REMARK    7  A    between atoms: C_15  and  O_16 
REMARK    8  A    between atoms: O_16  and  C_17 
ROOT
HETATM    1  C   UNL     1      25.204  43.866  51.276  1.00  0.00     0.270 C 
HETATM    2  N   UNL     1      25.396  44.375  50.018  1.00  0.00    -0.345 N 
HETATM    3  O   UNL     1      24.294  43.090  51.543  1.00  0.00    -0.266 OA
HETATM    4  H   UNL     1      26.219  44.922  49.816  1.00  0.00     0.163 HD
ENDROOT
BRANCH   2   5
HETATM    5  C   UNL     1      24.557  43.979  48.918  1.00  0.00     0.217 C 
BRANCH   5   6
HETATM    6  C   UNL     1      23.523  45.068  48.680  1.00  0.00    -0.085 C 
BRANCH   6   7
HETATM    7  C   UNL     1      22.636  46.001  48.477  1.00  0.00    -0.078 C 
BRANCH   7   8
HETATM    8  C   UNL     1      21.603  47.091  48.239  1.00  0.00     0.269 C 
BRANCH   8   9
HETATM    9  O   UNL     1      21.866  48.166  49.137  1.00  0.00    -0.339 OA
BRANCH   9  10
HETATM   10  C   UNL     1      21.031  49.247  49.070  1.00  0.00     0.072 A 
HETATM   11  C   UNL     1      19.766  49.348  49.655  1.00  0.00     0.069 A 
HETATM   12  C   UNL     1      18.990  50.494  49.522  1.00  0.00     0.069 A 
HETATM   13  C   UNL     1      19.505  51.576  48.777  1.00  0.00    -0.007 A 
HETATM   14  N   UNL     1      17.778  50.536  50.104  1.00  0.00    -0.260 NA
HETATM   15  C   UNL     1      20.776  51.485  48.190  1.00  0.00     0.016 A 
HETATM   16  C   UNL     1      18.713  52.724  48.649  1.00  0.00     0.015 A 
HETATM   17  C   UNL     1      21.531  50.323  48.339  1.00  0.00     0.038 A 
HETATM   18  C   UNL     1      17.461  52.769  49.248  1.00  0.00     0.020 A 
HETATM   19  C   UNL     1      17.043  51.660  49.958  1.00  0.00     0.117 A 
ENDBRANCH   9  10
ENDBRANCH   8   9
ENDBRANCH   7   8
ENDBRANCH   6   7
ENDBRANCH   5   6
ENDBRANCH   2   5
BRANCH   1  20
HETATM   20  C   UNL     1      26.164  44.296  52.257  1.00  0.00     0.120 A 
HETATM   21  N   UNL     1      26.161  45.566  52.758  1.00  0.00    -0.272 N 
HETATM   22  N   UNL     1      27.101  45.794  53.689  1.00  0.00    -0.174 NA
HETATM   23  H   UNL     1      25.524  46.317  52.509  1.00  0.00     0.189 HD
HETATM   24  C   UNL     1      27.779  44.638  53.776  1.00  0.00     0.089 A 
HETATM   25  C   UNL     1      27.219  43.673  52.893  1.00  0.00     0.071 A 
BRANCH  24  26
HETATM   26  C   UNL     1      28.914  44.471  54.689  1.00  0.00    -0.006 A 
HETATM   27  C   UNL     1      29.243  45.481  55.603  1.00  0.00     0.014 A 
HETATM   28  C   UNL     1      30.311  45.322  56.491  1.00  0.00     0.001 A 
HETATM   29  C   UNL     1      31.066  44.151  56.469  1.00  0.00     0.000 A 
HETATM   30  C   UNL     1      30.757  43.143  55.560  1.00  0.00     0.001 A 
HETATM   31  C   UNL     1      29.687  43.300  54.675  1.00  0.00     0.014 A 
ENDBRANCH  24  26
ENDBRANCH   1  20
TORSDOF 8
ENDMDL
MODEL 7
REMARK VINA RESULT:      -8.4      3.287      4.453
REMARK  8 active torsions:
REMARK  status: ('A' for Active; 'I' for Inactive)
REMARK    1  A    between atoms: C_4  and  C_5 
REMARK    2  A    between atoms: C_9  and  C_10 
REMARK       I    between atoms: C_10  and  N_11 
REMARK    3  A    between atoms: N_11  and  C_12 
REMARK    4  A    between atoms: C_12  and  C_13 
REMARK    5  A    between atoms: C_13  and  C_14 
REMARK    6  A    between atoms: C_14  and  C_15 
REMARK    7  A    between atoms: C_15  and  O_16 
REMARK    8  A    between atoms: O_16  and  C_17 
ROOT
HETATM    1  C   UNL     1      23.038  43.523  48.320  1.00  0.00     0.270 C 
HETATM    2  N   UNL     1      24.167  43.018  47.729  1.00  0.00    -0.345 N 
HETATM    3  O   UNL     1      22.346  42.867  49.091  1.00  0.00    -0.266 OA
HETATM    4  H   UNL     1      24.766  43.624  47.190  1.00  0.00     0.163 HD
ENDROOT
BRANCH   2   5
HETATM    5  C   UNL     1      24.633  41.689  48.026  1.00  0.00     0.217 C 
BRANCH   5   6
HETATM    6  C   UNL     1      25.549  41.757  49.237  1.00  0.00    -0.085 C 
BRANCH   6   7
HETATM    7  C   UNL     1      26.335  41.814  50.276  1.00  0.00    -0.078 C 
BRANCH   7   8
HETATM    8  C   UNL     1      27.252  41.881  51.487  1.00  0.00     0.269 C 
BRANCH   8   9
HETATM    9  O   UNL     1      27.766  43.206  51.591  1.00  0.00    -0.339 OA
BRANCH   9  10
HETATM   10  C   UNL     1      28.461  43.512  52.729  1.00  0.00     0.072 A 
HETATM   11  C   UNL     1      28.116  44.490  53.666  1.00  0.00     0.069 A 
HETATM   12  C   UNL     1      28.896  44.728  54.792  1.00  0.00     0.069 A 
HETATM   13  C   UNL     1      30.061  43.955  54.983  1.00  0.00    -0.007 A 
HETATM   14  N   UNL     1      28.520  45.684  55.660  1.00  0.00    -0.260 NA
HETATM   15  C   UNL     1      30.411  42.968  54.050  1.00  0.00     0.016 A 
HETATM   16  C   UNL     1      30.839  44.206  56.120  1.00  0.00     0.015 A 
HETATM   17  C   UNL     1      29.611  42.752  52.930  1.00  0.00     0.038 A 
HETATM   18  C   UNL     1      30.453  45.194  57.017  1.00  0.00     0.020 A 
HETATM   19  C   UNL     1      29.296  45.898  56.745  1.00  0.00     0.117 A 
ENDBRANCH   9  10
ENDBRANCH   8   9
ENDBRANCH   7   8
ENDBRANCH   6   7
ENDBRANCH   5   6
ENDBRANCH   2   5
BRANCH   1  20
HETATM   20  C   UNL     1      22.736  44.888  47.984  1.00  0.00     0.120 A 
HETATM   21  N   UNL     1      22.317  45.246  46.735  1.00  0.00    -0.272 N 
HETATM   22  N   UNL     1      22.046  46.554  46.597  1.00  0.00    -0.174 NA
HETATM   23  H   UNL     1      22.183  44.630  45.938  1.00  0.00     0.189 HD
HETATM   24  C   UNL     1      22.337  47.087  47.794  1.00  0.00     0.089 A 
HETATM   25  C   UNL     1      22.772  46.073  48.692  1.00  0.00     0.071 A 
BRANCH  24  26
HETATM   26  C   UNL     1      22.186  48.521  48.062  1.00  0.00    -0.006 A 
HETATM   27  C   UNL     1      23.312  49.322  48.296  1.00  0.00     0.014 A 
HETATM   28  C   UNL     1      23.178  50.693  48.533  1.00  0.00     0.001 A 
HETATM   29  C   UNL     1      21.914  51.278  48.544  1.00  0.00     0.000 A 
HETATM   30  C   UNL     1      20.784  50.493  48.323  1.00  0.00     0.001 A 
HETATM   31  C   UNL     1      20.918  49.123  48.083  1.00  0.00     0.014 A 
ENDBRANCH  24  26
ENDBRANCH   1  20
TORSDOF 8
ENDMDL
MODEL 8
REMARK VINA RESULT:      -8.2      2.289      3.033
REMARK  8 active torsions:
REMARK  status: ('A' for Active; 'I' for Inactive)
REMARK    1  A    between atoms: C_4  and  C_5 
REMARK    2  A    between atoms: C_9  and  C_10 
REMARK       I    between atoms: C_10  and  N_11 
REMARK    3  A    between atoms: N_11  and  C_12 
REMARK    4  A    between atoms: C_12  and  C_13 
REMARK    5  A    between atoms: C_13  and  C_14 
REMARK    6  A    between atoms: C_14  and  C_15 
REMARK    7  A    between atoms: C_15  and  O_16 
REMARK    8  A    between atoms: O_16  and  C_17 
ROOT
HETATM    1  C   UNL     1      21.621  47.652  48.126  1.00  0.00     0.270 C 
HETATM    2  N   UNL     1      21.260  46.335  48.243  1.00  0.00    -0.345 N 
HETATM    3  O   UNL     1      22.658  48.006  47.575  1.00  0.00    -0.266 OA
HETATM    4  H   UNL     1      20.350  46.093  48.603  1.00  0.00     0.163 HD
ENDROOT
BRANCH   2   5
HETATM    5  C   UNL     1      22.065  45.288  47.671  1.00  0.00     0.217 C 
BRANCH   5   6
HETATM    6  C   UNL     1      22.786  44.562  48.795  1.00  0.00    -0.085 C 
BRANCH   6   7
HETATM    7  C   UNL     1      23.406  43.941  49.759  1.00  0.00    -0.078 C 
BRANCH   7   8
HETATM    8  C   UNL     1      24.127  43.217  50.884  1.00  0.00     0.269 C 
BRANCH   8   9
HETATM    9  O   UNL     1      24.371  44.146  51.936  1.00  0.00    -0.339 OA
BRANCH   9  10
HETATM   10  C   UNL     1      25.576  44.056  52.576  1.00  0.00     0.072 A 
HETATM   11  C   UNL     1      26.713  43.398  52.101  1.00  0.00     0.069 A 
HETATM   12  C   UNL     1      27.894  43.359  52.834  1.00  0.00     0.069 A 
HETATM   13  C   UNL     1      27.932  44.006  54.088  1.00  0.00    -0.007 A 
HETATM   14  N   UNL     1      28.958  42.709  52.330  1.00  0.00    -0.260 NA
HETATM   15  C   UNL     1      26.796  44.672  54.571  1.00  0.00     0.016 A 
HETATM   16  C   UNL     1      29.126  43.958  54.818  1.00  0.00     0.015 A 
HETATM   17  C   UNL     1      25.626  44.694  53.814  1.00  0.00     0.038 A 
HETATM   18  C   UNL     1      30.226  43.286  54.300  1.00  0.00     0.020 A 
HETATM   19  C   UNL     1      30.092  42.683  53.064  1.00  0.00     0.117 A 
ENDBRANCH   9  10
ENDBRANCH   8   9
ENDBRANCH   7   8
ENDBRANCH   6   7
ENDBRANCH   5   6
ENDBRANCH   2   5
BRANCH   1  20
HETATM   20  C   UNL     1      20.684  48.590  48.681  1.00  0.00     0.120 A 
HETATM   21  N   UNL     1      20.843  49.110  49.934  1.00  0.00    -0.272 N 
HETATM   22  N   UNL     1      19.898  49.995  50.288  1.00  0.00    -0.174 NA
HETATM   23  H   UNL     1      21.593  48.905  50.588  1.00  0.00     0.189 HD
HETATM   24  C   UNL     1      19.058  50.031  49.241  1.00  0.00     0.089 A 
HETATM   25  C   UNL     1      19.519  49.162  48.212  1.00  0.00     0.071 A 
BRANCH  24  26
HETATM   26  C   UNL     1      17.865  50.883  49.231  1.00  0.00    -0.006 A 
HETATM   27  C   UNL     1      17.861  52.105  49.919  1.00  0.00     0.014 A 
HETATM   28  C   UNL     1      16.735  52.933  49.899  1.00  0.00     0.001 A 
HETATM   29  C   UNL     1      15.597  52.545  49.195  1.00  0.00     0.000 A 
HETATM   30  C   UNL     1      15.583  51.329  48.515  1.00  0.00     0.001 A 
HETATM   31  C   UNL     1      16.710  50.503  48.532  1.00  0.00     0.014 A 
ENDBRANCH  24  26
ENDBRANCH   1  20
TORSDOF 8
ENDMDL
MODEL 9
REMARK VINA RESULT:      -8.1     18.956     21.478
REMARK  8 active torsions:
REMARK  status: ('A' for Active; 'I' for Inactive)
REMARK    1  A    between atoms: C_4  and  C_5 
REMARK    2  A    between atoms: C_9  and  C_10 
REMARK       I    between atoms: C_10  and  N_11 
REMARK    3  A    between atoms: N_11  and  C_12 
REMARK    4  A    between atoms: C_12  and  C_13 
REMARK    5  A    between atoms: C_13  and  C_14 
REMARK    6  A    between atoms: C_14  and  C_15 
REMARK    7  A    between atoms: C_15  and  O_16 
REMARK    8  A    between atoms: O_16  and  C_17 
ROOT
HETATM    1  C   UNL     1      36.857  45.883  64.303  1.00  0.00     0.270 C 
HETATM    2  N   UNL     1      36.567  45.895  65.642  1.00  0.00    -0.345 N 
HETATM    3  O   UNL     1      36.467  46.755  63.534  1.00  0.00    -0.266 OA
HETATM    4  H   UNL     1      36.997  45.222  66.257  1.00  0.00     0.163 HD
ENDROOT
BRANCH   2   5
HETATM    5  C   UNL     1      35.822  46.976  66.233  1.00  0.00     0.217 C 
BRANCH   5   6
HETATM    6  C   UNL     1      36.676  48.232  66.194  1.00  0.00    -0.085 C 
BRANCH   6   7
HETATM    7  C   UNL     1      37.409  49.310  66.160  1.00  0.00    -0.078 C 
BRANCH   7   8
HETATM    8  C   UNL     1      38.262  50.567  66.121  1.00  0.00     0.269 C 
BRANCH   8   9
HETATM    9  O   UNL     1      39.409  50.310  65.315  1.00  0.00    -0.339 OA
BRANCH   9  10
HETATM   10  C   UNL     1      40.056  49.123  65.521  1.00  0.00     0.072 A 
HETATM   11  C   UNL     1      40.323  48.151  64.553  1.00  0.00     0.069 A 
HETATM   12  C   UNL     1      40.986  46.970  64.868  1.00  0.00     0.069 A 
HETATM   13  C   UNL     1      41.396  46.760  66.202  1.00  0.00    -0.007 A 
HETATM   14  N   UNL     1      41.214  46.068  63.897  1.00  0.00    -0.260 NA
HETATM   15  C   UNL     1      41.136  47.733  67.179  1.00  0.00     0.016 A 
HETATM   16  C   UNL     1      42.061  45.567  66.507  1.00  0.00     0.015 A 
HETATM   17  C   UNL     1      40.469  48.906  66.835  1.00  0.00     0.038 A 
HETATM   18  C   UNL     1      42.296  44.632  65.506  1.00  0.00     0.020 A 
HETATM   19  C   UNL     1      41.858  44.927  64.230  1.00  0.00     0.117 A 
ENDBRANCH   9  10
ENDBRANCH   8   9
ENDBRANCH   7   8
ENDBRANCH   6   7
ENDBRANCH   5   6
ENDBRANCH   2   5
BRANCH   1  20
HETATM   20  C   UNL     1      37.670  44.780  63.869  1.00  0.00     0.120 A 
HETATM   21  N   UNL     1      38.409  44.837  62.721  1.00  0.00    -0.272 N 
HETATM   22  N   UNL     1      39.137  43.736  62.478  1.00  0.00    -0.174 NA
HETATM   23  H   UNL     1      38.465  45.617  62.072  1.00  0.00     0.189 HD
HETATM   24  C   UNL     1      38.835  42.901  63.485  1.00  0.00     0.089 A 
HETATM   25  C   UNL     1      37.918  43.521  64.379  1.00  0.00     0.071 A 
BRANCH  24  26
HETATM   26  C   UNL     1      39.423  41.562  63.585  1.00  0.00    -0.006 A 
HETATM   27  C   UNL     1      40.273  41.238  64.652  1.00  0.00     0.014 A 
HETATM   28  C   UNL     1      40.823  39.958  64.766  1.00  0.00     0.001 A 
HETATM   29  C   UNL     1      40.532  38.988  63.810  1.00  0.00     0.000 A 
HETATM   30  C   UNL     1      39.696  39.297  62.739  1.00  0.00     0.001 A 
HETATM   31  C   UNL     1      39.144  40.576  62.627  1.00  0.00     0.014 A 
ENDBRANCH  24  26
ENDBRANCH   1  20
TORSDOF 8
ENDMDL
MODEL 10
REMARK VINA RESULT:      -7.9      3.044      3.687
REMARK  8 active torsions:
REMARK  status: ('A' for Active; 'I' for Inactive)
REMARK    1  A    between atoms: C_4  and  C_5 
REMARK    2  A    between atoms: C_9  and  C_10 
REMARK       I    between atoms: C_10  and  N_11 
REMARK    3  A    between atoms: N_11  and  C_12 
REMARK    4  A    between atoms: C_12  and  C_13 
REMARK    5  A    between atoms: C_13  and  C_14 
REMARK    6  A    between atoms: C_14  and  C_15 
REMARK    7  A    between atoms: C_15  and  O_16 
REMARK    8  A    between atoms: O_16  and  C_17 
ROOT
HETATM    1  C   UNL     1      21.322  45.317  47.975  1.00  0.00     0.270 C 
HETATM    2  N   UNL     1      22.553  45.066  47.425  1.00  0.00    -0.345 N 
HETATM    3  O   UNL     1      20.481  44.441  48.139  1.00  0.00    -0.266 OA
HETATM    4  H   UNL     1      23.254  45.791  47.409  1.00  0.00     0.163 HD
ENDROOT
BRANCH   2   5
HETATM    5  C   UNL     1      22.946  43.732  47.055  1.00  0.00     0.217 C 
BRANCH   5   6
HETATM    6  C   UNL     1      23.861  43.179  48.136  1.00  0.00    -0.085 C 
BRANCH   6   7
HETATM    7  C   UNL     1      24.645  42.705  49.062  1.00  0.00    -0.078 C 
BRANCH   7   8
HETATM    8  C   UNL     1      25.560  42.151  50.143  1.00  0.00     0.269 C 
BRANCH   8   9
HETATM    9  O   UNL     1      26.816  42.818  50.057  1.00  0.00    -0.339 OA
BRANCH   9  10
HETATM   10  C   UNL     1      27.367  43.255  51.230  1.00  0.00     0.072 A 
HETATM   11  C   UNL     1      28.520  42.751  51.836  1.00  0.00     0.069 A 
HETATM   12  C   UNL     1      28.996  43.263  53.038  1.00  0.00     0.069 A 
HETATM   13  C   UNL     1      28.290  44.320  53.649  1.00  0.00    -0.007 A 
HETATM   14  N   UNL     1      30.110  42.738  53.579  1.00  0.00    -0.260 NA
HETATM   15  C   UNL     1      27.133  44.835  53.045  1.00  0.00     0.016 A 
HETATM   16  C   UNL     1      28.777  44.827  54.860  1.00  0.00     0.015 A 
HETATM   17  C   UNL     1      26.678  44.302  51.841  1.00  0.00     0.038 A 
HETATM   18  C   UNL     1      29.927  44.285  55.422  1.00  0.00     0.020 A 
HETATM   19  C   UNL     1      30.550  43.251  54.749  1.00  0.00     0.117 A 
ENDBRANCH   9  10
ENDBRANCH   8   9
ENDBRANCH   7   8
ENDBRANCH   6   7
ENDBRANCH   5   6
ENDBRANCH   2   5
BRANCH   1  20
HETATM   20  C   UNL     1      21.098  46.684  48.362  1.00  0.00     0.120 A 
HETATM   21  N   UNL     1      22.061  47.422  48.990  1.00  0.00    -0.272 N 
HETATM   22  N   UNL     1      21.702  48.688  49.252  1.00  0.00    -0.174 NA
HETATM   23  H   UNL     1      22.993  47.111  49.249  1.00  0.00     0.189 HD
HETATM   24  C   UNL     1      20.436  48.778  48.817  1.00  0.00     0.089 A 
HETATM   25  C   UNL     1      20.021  47.540  48.250  1.00  0.00     0.071 A 
BRANCH  24  26
HETATM   26  C   UNL     1      19.662  50.018  48.931  1.00  0.00    -0.006 A 
HETATM   27  C   UNL     1      18.493  50.057  49.704  1.00  0.00     0.014 A 
HETATM   28  C   UNL     1      17.761  51.240  49.834  1.00  0.00     0.001 A 
HETATM   29  C   UNL     1      18.186  52.398  49.187  1.00  0.00     0.000 A 
HETATM   30  C   UNL     1      19.340  52.373  48.408  1.00  0.00     0.001 A 
HETATM   31  C   UNL     1      20.075  51.191  48.280  1.00  0.00     0.014 A 
ENDBRANCH  24  26
ENDBRANCH   1  20
TORSDOF 8
ENDMDL
