MODEL 1
REMARK VINA RESULT:      -8.1      0.000      0.000
REMARK  10 active torsions:
REMARK  status: ('A' for Active; 'I' for Inactive)
REMARK    1  A    between atoms: C_2  and  C_3 
REMARK    2  A    between atoms: C_3  and  N_4 
REMARK    3  A    between atoms: C_7  and  C_8 
REMARK       I    between atoms: C_8  and  N_9 
REMARK    4  A    between atoms: N_9  and  C_10 
REMARK    5  A    between atoms: C_10  and  C_11 
REMARK    6  A    between atoms: C_11  and  O_12 
REMARK    7  A    between atoms: C_11  and  C_13 
REMARK    8  A    between atoms: C_13  and  O_14 
REMARK    9  A    between atoms: O_14  and  C_15 
REMARK   10  A    between atoms: C_23  and  C_24 
ROOT
HETATM    1  C   UNL     1      26.952  43.178  51.654  1.00  0.00     0.255 C 
HETATM    2  N   UNL     1      26.669  44.259  50.841  1.00  0.00    -0.354 N 
HETATM    3  O   UNL     1      26.333  42.127  51.535  1.00  0.00    -0.268 OA
HETATM    4  H   UNL     1      27.177  45.122  50.981  1.00  0.00     0.162 HD
ENDROOT
BRANCH   2   5
HETATM    5  C   UNL     1      25.807  44.159  49.669  1.00  0.00     0.156 C 
BRANCH   5   6
HETATM    6  C   UNL     1      24.308  44.423  49.912  1.00  0.00     0.160 C 
BRANCH   6   7
HETATM    7  O   UNL     1      23.900  43.926  51.192  1.00  0.00    -0.392 OA
HETATM    8  H   UNL     1      23.335  43.136  51.047  1.00  0.00     0.210 HD
ENDBRANCH   6   7
BRANCH   6   9
HETATM    9  C   UNL     1      23.936  45.904  49.759  1.00  0.00     0.209 C 
BRANCH   9  10
HETATM   10  O   UNL     1      24.918  46.694  50.438  1.00  0.00    -0.349 OA
BRANCH  10  11
HETATM   11  C   UNL     1      25.428  47.763  49.756  1.00  0.00     0.069 A 
HETATM   12  C   UNL     1      24.468  48.604  49.186  1.00  0.00     0.043 A 
HETATM   13  C   UNL     1      24.844  49.743  48.464  1.00  0.00    -0.059 A 
HETATM   14  C   UNL     1      23.807  50.632  47.846  1.00  0.00     0.048 C 
HETATM   15  C   UNL     1      26.205  50.013  48.285  1.00  0.00     0.007 A 
HETATM   16  C   UNL     1      27.168  49.170  48.841  1.00  0.00     0.003 A 
HETATM   17  C   UNL     1      26.781  48.048  49.577  1.00  0.00     0.037 A 
ENDBRANCH  10  11
ENDBRANCH   9  10
ENDBRANCH   6   9
ENDBRANCH   5   6
ENDBRANCH   2   5
BRANCH   1  18
HETATM   18  C   UNL     1      28.026  43.400  52.610  1.00  0.00     0.075 A 
HETATM   19  C   UNL     1      29.382  43.033  52.411  1.00  0.00     0.158 A 
HETATM   20  N   UNL     1      30.169  43.322  53.439  1.00  0.00    -0.183 NA
HETATM   21  N   UNL     1      29.328  43.843  54.350  1.00  0.00    -0.268 N 
HETATM   22  C   UNL     1      28.026  43.954  53.891  1.00  0.00     0.052 A 
BRANCH  21  23
HETATM   23  C   UNL     1      29.830  44.139  55.693  1.00  0.00     0.106 C 
HETATM   24  C   UNL     1      30.167  45.621  55.909  1.00  0.00     0.034 C 
BRANCH  23  25
HETATM   25  C   UNL     1      30.999  43.211  56.081  1.00  0.00     0.022 C 
HETATM   26  C   UNL     1      31.830  43.678  57.270  1.00  0.00     0.007 C 
ENDBRANCH  23  25
ENDBRANCH  21  23
BRANCH  22  27
HETATM   27  C   UNL     1      26.903  44.592  54.717  1.00  0.00     0.038 A 
HETATM   28  C   UNL     1      26.342  45.941  54.335  1.00  0.00     0.011 A 
HETATM   29  C   UNL     1      25.502  44.716  54.175  1.00  0.00     0.011 A 
ENDBRANCH  22  27
ENDBRANCH   1  18
TORSDOF 10
ENDMDL
MODEL 2
REMARK VINA RESULT:      -8.0      3.179      7.376
REMARK  10 active torsions:
REMARK  status: ('A' for Active; 'I' for Inactive)
REMARK    1  A    between atoms: C_2  and  C_3 
REMARK    2  A    between atoms: C_3  and  N_4 
REMARK    3  A    between atoms: C_7  and  C_8 
REMARK       I    between atoms: C_8  and  N_9 
REMARK    4  A    between atoms: N_9  and  C_10 
REMARK    5  A    between atoms: C_10  and  C_11 
REMARK    6  A    between atoms: C_11  and  O_12 
REMARK    7  A    between atoms: C_11  and  C_13 
REMARK    8  A    between atoms: C_13  and  O_14 
REMARK    9  A    between atoms: O_14  and  C_15 
REMARK   10  A    between atoms: C_23  and  C_24 
ROOT
HETATM    1  C   UNL     1      25.918  44.097  51.872  1.00  0.00     0.255 C 
HETATM    2  N   UNL     1      26.569  45.304  52.042  1.00  0.00    -0.354 N 
HETATM    3  O   UNL     1      24.889  43.849  52.490  1.00  0.00    -0.268 OA
HETATM    4  H   UNL     1      27.431  45.469  51.540  1.00  0.00     0.162 HD
ENDROOT
BRANCH   2   5
HETATM    5  C   UNL     1      25.977  46.423  52.765  1.00  0.00     0.156 C 
BRANCH   5   6
HETATM    6  C   UNL     1      26.681  46.826  54.076  1.00  0.00     0.160 C 
BRANCH   6   7
HETATM    7  O   UNL     1      25.846  47.682  54.865  1.00  0.00    -0.392 OA
HETATM    8  H   UNL     1      26.426  48.259  55.408  1.00  0.00     0.210 HD
ENDBRANCH   6   7
BRANCH   6   9
HETATM    9  C   UNL     1      27.146  45.614  54.894  1.00  0.00     0.209 C 
BRANCH   9  10
HETATM   10  O   UNL     1      28.564  45.481  54.747  1.00  0.00    -0.349 OA
BRANCH  10  11
HETATM   11  C   UNL     1      29.295  45.368  55.897  1.00  0.00     0.069 A 
HETATM   12  C   UNL     1      30.276  44.373  55.870  1.00  0.00     0.043 A 
HETATM   13  C   UNL     1      31.106  44.147  56.975  1.00  0.00    -0.059 A 
HETATM   14  C   UNL     1      32.146  43.069  56.940  1.00  0.00     0.048 C 
HETATM   15  C   UNL     1      30.916  44.911  58.132  1.00  0.00     0.007 A 
HETATM   16  C   UNL     1      29.930  45.897  58.169  1.00  0.00     0.003 A 
HETATM   17  C   UNL     1      29.121  46.128  57.054  1.00  0.00     0.037 A 
ENDBRANCH  10  11
ENDBRANCH   9  10
ENDBRANCH   6   9
ENDBRANCH   5   6
ENDBRANCH   2   5
BRANCH   1  18
HETATM   18  C   UNL     1      26.542  43.199  50.912  1.00  0.00     0.075 A 
HETATM   19  C   UNL     1      26.393  43.283  49.503  1.00  0.00     0.158 A 
HETATM   20  N   UNL     1      27.044  42.336  48.841  1.00  0.00    -0.183 NA
HETATM   21  N   UNL     1      27.594  41.585  49.812  1.00  0.00    -0.268 N 
HETATM   22  C   UNL     1      27.358  42.081  51.084  1.00  0.00     0.052 A 
BRANCH  21  23
HETATM   23  C   UNL     1      28.270  40.338  49.450  1.00  0.00     0.106 C 
HETATM   24  C   UNL     1      28.732  40.295  47.986  1.00  0.00     0.034 C 
BRANCH  23  25
HETATM   25  C   UNL     1      27.432  39.104  49.836  1.00  0.00     0.022 C 
HETATM   26  C   UNL     1      27.453  37.964  48.824  1.00  0.00     0.007 C 
ENDBRANCH  23  25
ENDBRANCH  21  23
BRANCH  22  27
HETATM   27  C   UNL     1      27.950  41.445  52.348  1.00  0.00     0.038 A 
HETATM   28  C   UNL     1      29.213  41.997  52.965  1.00  0.00     0.011 A 
HETATM   29  C   UNL     1      27.910  42.155  53.677  1.00  0.00     0.011 A 
ENDBRANCH  22  27
ENDBRANCH   1  18
TORSDOF 10
ENDMDL
MODEL 3
REMARK VINA RESULT:      -7.7      2.510      7.457
REMARK  10 active torsions:
REMARK  status: ('A' for Active; 'I' for Inactive)
REMARK    1  A    between atoms: C_2  and  C_3 
REMARK    2  A    between atoms: C_3  and  N_4 
REMARK    3  A    between atoms: C_7  and  C_8 
REMARK       I    between atoms: C_8  and  N_9 
REMARK    4  A    between atoms: N_9  and  C_10 
REMARK    5  A    between atoms: C_10  and  C_11 
REMARK    6  A    between atoms: C_11  and  O_12 
REMARK    7  A    between atoms: C_11  and  C_13 
REMARK    8  A    between atoms: C_13  and  O_14 
REMARK    9  A    between atoms: O_14  and  C_15 
REMARK   10  A    between atoms: C_23  and  C_24 
ROOT
HETATM    1  C   UNL     1      23.806  44.718  49.850  1.00  0.00     0.255 C 
HETATM    2  N   UNL     1      24.530  43.980  48.933  1.00  0.00    -0.354 N 
HETATM    3  O   UNL     1      23.401  44.203  50.886  1.00  0.00    -0.268 OA
HETATM    4  H   UNL     1      24.828  44.423  48.074  1.00  0.00     0.162 HD
ENDROOT
BRANCH   2   5
HETATM    5  C   UNL     1      25.046  42.648  49.224  1.00  0.00     0.156 C 
BRANCH   5   6
HETATM    6  C   UNL     1      26.544  42.568  49.577  1.00  0.00     0.160 C 
BRANCH   6   7
HETATM    7  O   UNL     1      27.227  43.768  49.193  1.00  0.00    -0.392 OA
HETATM    8  H   UNL     1      27.654  43.612  48.323  1.00  0.00     0.210 HD
ENDBRANCH   6   7
BRANCH   6   9
HETATM    9  C   UNL     1      26.787  42.253  51.059  1.00  0.00     0.209 C 
BRANCH   9  10
HETATM   10  O   UNL     1      28.196  42.113  51.271  1.00  0.00    -0.349 OA
BRANCH  10  11
HETATM   11  C   UNL     1      28.705  42.663  52.415  1.00  0.00     0.069 A 
HETATM   12  C   UNL     1      27.889  43.629  53.012  1.00  0.00     0.043 A 
HETATM   13  C   UNL     1      28.278  44.272  54.193  1.00  0.00    -0.059 A 
HETATM   14  C   UNL     1      27.402  45.315  54.818  1.00  0.00     0.048 C 
HETATM   15  C   UNL     1      29.521  43.962  54.755  1.00  0.00     0.007 A 
HETATM   16  C   UNL     1      30.345  43.009  54.157  1.00  0.00     0.003 A 
HETATM   17  C   UNL     1      29.938  42.358  52.989  1.00  0.00     0.037 A 
ENDBRANCH  10  11
ENDBRANCH   9  10
ENDBRANCH   6   9
ENDBRANCH   5   6
ENDBRANCH   2   5
BRANCH   1  18
HETATM   18  C   UNL     1      23.602  46.112  49.485  1.00  0.00     0.075 A 
HETATM   19  C   UNL     1      22.605  46.580  48.591  1.00  0.00     0.158 A 
HETATM   20  N   UNL     1      22.633  47.893  48.401  1.00  0.00    -0.183 NA
HETATM   21  N   UNL     1      23.684  48.300  49.136  1.00  0.00    -0.268 N 
HETATM   22  C   UNL     1      24.284  47.273  49.846  1.00  0.00     0.052 A 
BRANCH  21  23
HETATM   23  C   UNL     1      24.118  49.695  49.043  1.00  0.00     0.106 C 
HETATM   24  C   UNL     1      22.955  50.695  48.979  1.00  0.00     0.034 C 
BRANCH  23  25
HETATM   25  C   UNL     1      25.130  49.901  47.898  1.00  0.00     0.022 C 
HETATM   26  C   UNL     1      26.594  49.895  48.320  1.00  0.00     0.007 C 
ENDBRANCH  23  25
ENDBRANCH  21  23
BRANCH  22  27
HETATM   27  C   UNL     1      25.450  47.502  50.817  1.00  0.00     0.038 A 
HETATM   28  C   UNL     1      25.367  47.014  52.243  1.00  0.00     0.011 A 
HETATM   29  C   UNL     1      26.313  46.361  51.290  1.00  0.00     0.011 A 
ENDBRANCH  22  27
ENDBRANCH   1  18
TORSDOF 10
ENDMDL
MODEL 4
REMARK VINA RESULT:      -7.6     11.423     13.067
REMARK  10 active torsions:
REMARK  status: ('A' for Active; 'I' for Inactive)
REMARK    1  A    between atoms: C_2  and  C_3 
REMARK    2  A    between atoms: C_3  and  N_4 
REMARK    3  A    between atoms: C_7  and  C_8 
REMARK       I    between atoms: C_8  and  N_9 
REMARK    4  A    between atoms: N_9  and  C_10 
REMARK    5  A    between atoms: C_10  and  C_11 
REMARK    6  A    between atoms: C_11  and  O_12 
REMARK    7  A    between atoms: C_11  and  C_13 
REMARK    8  A    between atoms: C_13  and  O_14 
REMARK    9  A    between atoms: O_14  and  C_15 
REMARK   10  A    between atoms: C_23  and  C_24 
ROOT
HETATM    1  C   UNL     1      30.320  47.911  39.679  1.00  0.00     0.255 C 
HETATM    2  N   UNL     1      29.077  47.397  39.996  1.00  0.00    -0.354 N 
HETATM    3  O   UNL     1      30.836  47.676  38.592  1.00  0.00    -0.268 OA
HETATM    4  H   UNL     1      28.689  47.585  40.910  1.00  0.00     0.162 HD
ENDROOT
BRANCH   2   5
HETATM    5  C   UNL     1      28.217  46.754  39.010  1.00  0.00     0.156 C 
BRANCH   5   6
HETATM    6  C   UNL     1      26.780  47.304  38.908  1.00  0.00     0.160 C 
BRANCH   6   7
HETATM    7  O   UNL     1      25.978  46.851  40.005  1.00  0.00    -0.392 OA
HETATM    8  H   UNL     1      25.987  45.869  40.005  1.00  0.00     0.210 HD
ENDBRANCH   6   7
BRANCH   6   9
HETATM    9  C   UNL     1      26.740  48.834  38.799  1.00  0.00     0.209 C 
BRANCH   9  10
HETATM   10  O   UNL     1      26.779  49.387  40.119  1.00  0.00    -0.349 OA
BRANCH  10  11
HETATM   11  C   UNL     1      27.517  50.525  40.288  1.00  0.00     0.069 A 
HETATM   12  C   UNL     1      27.778  51.233  39.112  1.00  0.00     0.043 A 
HETATM   13  C   UNL     1      28.517  52.423  39.133  1.00  0.00    -0.059 A 
HETATM   14  C   UNL     1      28.801  53.167  37.864  1.00  0.00     0.048 C 
HETATM   15  C   UNL     1      29.028  52.880  40.353  1.00  0.00     0.007 A 
HETATM   16  C   UNL     1      28.782  52.171  41.528  1.00  0.00     0.003 A 
HETATM   17  C   UNL     1      28.026  50.996  41.498  1.00  0.00     0.037 A 
ENDBRANCH  10  11
ENDBRANCH   9  10
ENDBRANCH   6   9
ENDBRANCH   5   6
ENDBRANCH   2   5
BRANCH   1  18
HETATM   18  C   UNL     1      30.918  48.740  40.716  1.00  0.00     0.075 A 
HETATM   19  C   UNL     1      30.679  48.600  42.107  1.00  0.00     0.158 A 
HETATM   20  N   UNL     1      31.324  49.489  42.851  1.00  0.00    -0.183 NA
HETATM   21  N   UNL     1      31.962  50.258  41.950  1.00  0.00    -0.268 N 
HETATM   22  C   UNL     1      31.787  49.828  40.644  1.00  0.00     0.052 A 
BRANCH  21  23
HETATM   23  C   UNL     1      32.663  51.459  42.410  1.00  0.00     0.106 C 
HETATM   24  C   UNL     1      34.156  51.230  42.681  1.00  0.00     0.034 C 
BRANCH  23  25
HETATM   25  C   UNL     1      31.944  52.114  43.605  1.00  0.00     0.022 C 
HETATM   26  C   UNL     1      32.675  52.006  44.939  1.00  0.00     0.007 C 
ENDBRANCH  23  25
ENDBRANCH  21  23
BRANCH  22  27
HETATM   27  C   UNL     1      32.480  50.494  39.449  1.00  0.00     0.038 A 
HETATM   28  C   UNL     1      31.678  50.948  38.253  1.00  0.00     0.011 A 
HETATM   29  C   UNL     1      32.302  51.962  39.156  1.00  0.00     0.011 A 
ENDBRANCH  22  27
ENDBRANCH   1  18
TORSDOF 10
ENDMDL
MODEL 5
REMARK VINA RESULT:      -7.5      2.221      3.186
REMARK  10 active torsions:
REMARK  status: ('A' for Active; 'I' for Inactive)
REMARK    1  A    between atoms: C_2  and  C_3 
REMARK    2  A    between atoms: C_3  and  N_4 
REMARK    3  A    between atoms: C_7  and  C_8 
REMARK       I    between atoms: C_8  and  N_9 
REMARK    4  A    between atoms: N_9  and  C_10 
REMARK    5  A    between atoms: C_10  and  C_11 
REMARK    6  A    between atoms: C_11  and  O_12 
REMARK    7  A    between atoms: C_11  and  C_13 
REMARK    8  A    between atoms: C_13  and  O_14 
REMARK    9  A    between atoms: O_14  and  C_15 
REMARK   10  A    between atoms: C_23  and  C_24 
ROOT
HETATM    1  C   UNL     1      26.261  44.731  52.070  1.00  0.00     0.255 C 
HETATM    2  N   UNL     1      26.387  45.738  51.131  1.00  0.00    -0.354 N 
HETATM    3  O   UNL     1      25.216  44.099  52.172  1.00  0.00    -0.268 OA
HETATM    4  H   UNL     1      27.251  46.262  51.088  1.00  0.00     0.162 HD
ENDROOT
BRANCH   2   5
HETATM    5  C   UNL     1      25.404  45.959  50.076  1.00  0.00     0.156 C 
BRANCH   5   6
HETATM    6  C   UNL     1      24.635  47.293  50.141  1.00  0.00     0.160 C 
BRANCH   6   7
HETATM    7  O   UNL     1      25.517  48.405  49.945  1.00  0.00    -0.392 OA
HETATM    8  H   UNL     1      26.316  48.081  49.475  1.00  0.00     0.210 HD
ENDBRANCH   6   7
BRANCH   6   9
HETATM    9  C   UNL     1      23.462  47.348  49.154  1.00  0.00     0.209 C 
BRANCH   9  10
HETATM   10  O   UNL     1      23.453  48.635  48.526  1.00  0.00    -0.349 OA
BRANCH  10  11
HETATM   11  C   UNL     1      22.325  49.390  48.684  1.00  0.00     0.069 A 
HETATM   12  C   UNL     1      21.239  48.709  49.242  1.00  0.00     0.043 A 
HETATM   13  C   UNL     1      20.019  49.357  49.469  1.00  0.00    -0.059 A 
HETATM   14  C   UNL     1      18.858  48.614  50.057  1.00  0.00     0.048 C 
HETATM   15  C   UNL     1      19.885  50.698  49.094  1.00  0.00     0.007 A 
HETATM   16  C   UNL     1      20.961  51.380  48.525  1.00  0.00     0.003 A 
HETATM   17  C   UNL     1      22.180  50.729  48.321  1.00  0.00     0.037 A 
ENDBRANCH  10  11
ENDBRANCH   9  10
ENDBRANCH   6   9
ENDBRANCH   5   6
ENDBRANCH   2   5
BRANCH   1  18
HETATM   18  C   UNL     1      27.452  44.497  52.874  1.00  0.00     0.075 A 
HETATM   19  C   UNL     1      28.483  43.579  52.550  1.00  0.00     0.158 A 
HETATM   20  N   UNL     1      29.455  43.529  53.453  1.00  0.00    -0.183 NA
HETATM   21  N   UNL     1      29.049  44.385  54.408  1.00  0.00    -0.268 N 
HETATM   22  C   UNL     1      27.863  45.031  54.094  1.00  0.00     0.052 A 
BRANCH  21  23
HETATM   23  C   UNL     1      29.811  44.472  55.655  1.00  0.00     0.106 C 
HETATM   24  C   UNL     1      30.519  45.820  55.847  1.00  0.00     0.034 C 
BRANCH  23  25
HETATM   25  C   UNL     1      30.772  43.278  55.818  1.00  0.00     0.022 C 
HETATM   26  C   UNL     1      31.627  43.302  57.081  1.00  0.00     0.007 C 
ENDBRANCH  23  25
ENDBRANCH  21  23
BRANCH  22  27
HETATM   27  C   UNL     1      27.242  46.111  54.989  1.00  0.00     0.038 A 
HETATM   28  C   UNL     1      27.560  47.569  54.762  1.00  0.00     0.011 A 
HETATM   29  C   UNL     1      26.190  47.054  54.465  1.00  0.00     0.011 A 
ENDBRANCH  22  27
ENDBRANCH   1  18
TORSDOF 10
ENDMDL
MODEL 6
REMARK VINA RESULT:      -7.5      3.973      9.907
REMARK  10 active torsions:
REMARK  status: ('A' for Active; 'I' for Inactive)
REMARK    1  A    between atoms: C_2  and  C_3 
REMARK    2  A    between atoms: C_3  and  N_4 
REMARK    3  A    between atoms: C_7  and  C_8 
REMARK       I    between atoms: C_8  and  N_9 
REMARK    4  A    between atoms: N_9  and  C_10 
REMARK    5  A    between atoms: C_10  and  C_11 
REMARK    6  A    between atoms: C_11  and  O_12 
REMARK    7  A    between atoms: C_11  and  C_13 
REMARK    8  A    between atoms: C_13  and  O_14 
REMARK    9  A    between atoms: O_14  and  C_15 
REMARK   10  A    between atoms: C_23  and  C_24 
ROOT
HETATM    1  C   UNL     1      22.151  47.444  48.440  1.00  0.00     0.255 C 
HETATM    2  N   UNL     1      22.906  47.226  49.577  1.00  0.00    -0.354 N 
HETATM    3  O   UNL     1      22.417  46.863  47.393  1.00  0.00    -0.268 OA
HETATM    4  H   UNL     1      22.682  47.740  50.418  1.00  0.00     0.162 HD
ENDROOT
BRANCH   2   5
HETATM    5  C   UNL     1      23.892  46.156  49.676  1.00  0.00     0.156 C 
BRANCH   5   6
HETATM    6  C   UNL     1      25.017  46.370  50.708  1.00  0.00     0.160 C 
BRANCH   6   7
HETATM    7  O   UNL     1      24.965  47.692  51.258  1.00  0.00    -0.392 OA
HETATM    8  H   UNL     1      25.118  48.332  50.529  1.00  0.00     0.210 HD
ENDBRANCH   6   7
BRANCH   6   9
HETATM    9  C   UNL     1      25.005  45.316  51.822  1.00  0.00     0.209 C 
BRANCH   9  10
HETATM   10  O   UNL     1      26.287  44.678  51.861  1.00  0.00    -0.349 OA
BRANCH  10  11
HETATM   11  C   UNL     1      27.056  44.907  52.967  1.00  0.00     0.069 A 
HETATM   12  C   UNL     1      28.097  43.993  53.154  1.00  0.00     0.043 A 
HETATM   13  C   UNL     1      28.971  44.108  54.242  1.00  0.00    -0.059 A 
HETATM   14  C   UNL     1      30.076  43.115  54.441  1.00  0.00     0.048 C 
HETATM   15  C   UNL     1      28.766  45.135  55.170  1.00  0.00     0.007 A 
HETATM   16  C   UNL     1      27.722  46.042  54.995  1.00  0.00     0.003 A 
HETATM   17  C   UNL     1      26.868  45.931  53.895  1.00  0.00     0.037 A 
ENDBRANCH  10  11
ENDBRANCH   9  10
ENDBRANCH   6   9
ENDBRANCH   5   6
ENDBRANCH   2   5
BRANCH   1  18
HETATM   18  C   UNL     1      21.047  48.375  48.611  1.00  0.00     0.075 A 
HETATM   19  C   UNL     1      19.728  48.012  48.986  1.00  0.00     0.158 A 
HETATM   20  N   UNL     1      18.892  49.041  49.056  1.00  0.00    -0.183 NA
HETATM   21  N   UNL     1      19.643  50.091  48.681  1.00  0.00    -0.268 N 
HETATM   22  C   UNL     1      20.966  49.757  48.438  1.00  0.00     0.052 A 
BRANCH  21  23
HETATM   23  C   UNL     1      19.000  51.392  48.488  1.00  0.00     0.106 C 
HETATM   24  C   UNL     1      18.530  52.043  49.796  1.00  0.00     0.034 C 
BRANCH  23  25
HETATM   25  C   UNL     1      17.878  51.321  47.433  1.00  0.00     0.022 C 
HETATM   26  C   UNL     1      18.336  50.971  46.022  1.00  0.00     0.007 C 
ENDBRANCH  23  25
ENDBRANCH  21  23
BRANCH  22  27
HETATM   27  C   UNL     1      22.034  50.796  48.075  1.00  0.00     0.038 A 
HETATM   28  C   UNL     1      23.147  51.121  49.042  1.00  0.00     0.011 A 
HETATM   29  C   UNL     1      23.455  50.390  47.777  1.00  0.00     0.011 A 
ENDBRANCH  22  27
ENDBRANCH   1  18
TORSDOF 10
ENDMDL
MODEL 7
REMARK VINA RESULT:      -7.4      3.773      9.381
REMARK  10 active torsions:
REMARK  status: ('A' for Active; 'I' for Inactive)
REMARK    1  A    between atoms: C_2  and  C_3 
REMARK    2  A    between atoms: C_3  and  N_4 
REMARK    3  A    between atoms: C_7  and  C_8 
REMARK       I    between atoms: C_8  and  N_9 
REMARK    4  A    between atoms: N_9  and  C_10 
REMARK    5  A    between atoms: C_10  and  C_11 
REMARK    6  A    between atoms: C_11  and  O_12 
REMARK    7  A    between atoms: C_11  and  C_13 
REMARK    8  A    between atoms: C_13  and  O_14 
REMARK    9  A    between atoms: O_14  and  C_15 
REMARK   10  A    between atoms: C_23  and  C_24 
ROOT
HETATM    1  C   UNL     1      23.967  48.573  49.454  1.00  0.00     0.255 C 
HETATM    2  N   UNL     1      23.939  47.503  50.328  1.00  0.00    -0.354 N 
HETATM    3  O   UNL     1      25.008  48.892  48.890  1.00  0.00    -0.268 OA
HETATM    4  H   UNL     1      23.073  47.280  50.800  1.00  0.00     0.162 HD
ENDROOT
BRANCH   2   5
HETATM    5  C   UNL     1      25.048  46.566  50.462  1.00  0.00     0.156 C 
BRANCH   5   6
HETATM    6  C   UNL     1      24.980  45.610  51.670  1.00  0.00     0.160 C 
BRANCH   6   7
HETATM    7  O   UNL     1      23.841  44.746  51.577  1.00  0.00    -0.392 OA
HETATM    8  H   UNL     1      23.443  44.860  50.686  1.00  0.00     0.210 HD
ENDBRANCH   6   7
BRANCH   6   9
HETATM    9  C   UNL     1      26.267  44.796  51.853  1.00  0.00     0.209 C 
BRANCH   9  10
HETATM   10  O   UNL     1      26.320  44.322  53.203  1.00  0.00    -0.349 OA
BRANCH  10  11
HETATM   11  C   UNL     1      27.316  44.824  53.994  1.00  0.00     0.069 A 
HETATM   12  C   UNL     1      28.367  43.937  54.241  1.00  0.00     0.043 A 
HETATM   13  C   UNL     1      29.461  44.316  55.029  1.00  0.00    -0.059 A 
HETATM   14  C   UNL     1      30.577  43.352  55.299  1.00  0.00     0.048 C 
HETATM   15  C   UNL     1      29.473  45.592  55.603  1.00  0.00     0.007 A 
HETATM   16  C   UNL     1      28.420  46.477  55.369  1.00  0.00     0.003 A 
HETATM   17  C   UNL     1      27.344  46.096  54.565  1.00  0.00     0.037 A 
ENDBRANCH  10  11
ENDBRANCH   9  10
ENDBRANCH   6   9
ENDBRANCH   5   6
ENDBRANCH   2   5
BRANCH   1  18
HETATM   18  C   UNL     1      22.687  49.238  49.265  1.00  0.00     0.075 A 
HETATM   19  C   UNL     1      22.429  50.602  49.557  1.00  0.00     0.158 A 
HETATM   20  N   UNL     1      21.176  50.970  49.320  1.00  0.00    -0.183 NA
HETATM   21  N   UNL     1      20.580  49.835  48.910  1.00  0.00    -0.268 N 
HETATM   22  C   UNL     1      21.454  48.763  48.818  1.00  0.00     0.052 A 
BRANCH  21  23
HETATM   23  C   UNL     1      19.131  49.828  48.704  1.00  0.00     0.106 C 
HETATM   24  C   UNL     1      18.658  50.836  47.647  1.00  0.00     0.034 C 
BRANCH  23  25
HETATM   25  C   UNL     1      18.367  49.972  50.034  1.00  0.00     0.022 C 
HETATM   26  C   UNL     1      18.677  48.905  51.078  1.00  0.00     0.007 C 
ENDBRANCH  23  25
ENDBRANCH  21  23
BRANCH  22  27
HETATM   27  C   UNL     1      21.028  47.385  48.296  1.00  0.00     0.038 A 
HETATM   28  C   UNL     1      20.734  47.178  46.830  1.00  0.00     0.011 A 
HETATM   29  C   UNL     1      21.946  46.553  47.439  1.00  0.00     0.011 A 
ENDBRANCH  22  27
ENDBRANCH   1  18
TORSDOF 10
ENDMDL
MODEL 8
REMARK VINA RESULT:      -7.4      2.659      8.678
REMARK  10 active torsions:
REMARK  status: ('A' for Active; 'I' for Inactive)
REMARK    1  A    between atoms: C_2  and  C_3 
REMARK    2  A    between atoms: C_3  and  N_4 
REMARK    3  A    between atoms: C_7  and  C_8 
REMARK       I    between atoms: C_8  and  N_9 
REMARK    4  A    between atoms: N_9  and  C_10 
REMARK    5  A    between atoms: C_10  and  C_11 
REMARK    6  A    between atoms: C_11  and  O_12 
REMARK    7  A    between atoms: C_11  and  C_13 
REMARK    8  A    between atoms: C_13  and  O_14 
REMARK    9  A    between atoms: O_14  and  C_15 
REMARK   10  A    between atoms: C_23  and  C_24 
ROOT
HETATM    1  C   UNL     1      24.910  45.572  50.049  1.00  0.00     0.255 C 
HETATM    2  N   UNL     1      24.936  45.328  51.409  1.00  0.00    -0.354 N 
HETATM    3  O   UNL     1      25.469  44.811  49.267  1.00  0.00    -0.268 OA
HETATM    4  H   UNL     1      24.490  45.987  52.032  1.00  0.00     0.162 HD
ENDROOT
BRANCH   2   5
HETATM    5  C   UNL     1      25.413  44.072  51.975  1.00  0.00     0.156 C 
BRANCH   5   6
HETATM    6  C   UNL     1      25.929  44.140  53.426  1.00  0.00     0.160 C 
BRANCH   6   7
HETATM    7  O   UNL     1      24.893  43.802  54.356  1.00  0.00    -0.392 OA
HETATM    8  H   UNL     1      25.288  43.767  55.254  1.00  0.00     0.210 HD
ENDBRANCH   6   7
BRANCH   6   9
HETATM    9  C   UNL     1      27.171  43.268  53.653  1.00  0.00     0.209 C 
BRANCH   9  10
HETATM   10  O   UNL     1      28.337  44.064  53.420  1.00  0.00    -0.349 OA
BRANCH  10  11
HETATM   11  C   UNL     1      28.973  44.565  54.522  1.00  0.00     0.069 A 
HETATM   12  C   UNL     1      29.921  43.708  55.089  1.00  0.00     0.043 A 
HETATM   13  C   UNL     1      30.655  44.091  56.218  1.00  0.00    -0.059 A 
HETATM   14  C   UNL     1      31.661  43.160  56.826  1.00  0.00     0.048 C 
HETATM   15  C   UNL     1      30.401  45.336  56.801  1.00  0.00     0.007 A 
HETATM   16  C   UNL     1      29.447  46.190  56.248  1.00  0.00     0.003 A 
HETATM   17  C   UNL     1      28.734  45.807  55.109  1.00  0.00     0.037 A 
ENDBRANCH  10  11
ENDBRANCH   9  10
ENDBRANCH   6   9
ENDBRANCH   5   6
ENDBRANCH   2   5
BRANCH   1  18
HETATM   18  C   UNL     1      24.167  46.760  49.657  1.00  0.00     0.075 A 
HETATM   19  C   UNL     1      24.478  48.083  50.062  1.00  0.00     0.158 A 
HETATM   20  N   UNL     1      23.638  48.996  49.590  1.00  0.00    -0.183 NA
HETATM   21  N   UNL     1      22.733  48.275  48.904  1.00  0.00    -0.268 N 
HETATM   22  C   UNL     1      23.024  46.921  48.875  1.00  0.00     0.052 A 
BRANCH  21  23
HETATM   23  C   UNL     1      21.549  48.948  48.365  1.00  0.00     0.106 C 
HETATM   24  C   UNL     1      21.853  50.318  47.744  1.00  0.00     0.034 C 
BRANCH  23  25
HETATM   25  C   UNL     1      20.412  49.015  49.403  1.00  0.00     0.022 C 
HETATM   26  C   UNL     1      20.188  50.386  50.031  1.00  0.00     0.007 C 
ENDBRANCH  23  25
ENDBRANCH  21  23
BRANCH  22  27
HETATM   27  C   UNL     1      22.185  45.906  48.087  1.00  0.00     0.038 A 
HETATM   28  C   UNL     1      21.980  44.507  48.615  1.00  0.00     0.011 A 
HETATM   29  C   UNL     1      20.831  45.460  48.577  1.00  0.00     0.011 A 
ENDBRANCH  22  27
ENDBRANCH   1  18
TORSDOF 10
ENDMDL
MODEL 9
REMARK VINA RESULT:      -7.3     11.998     13.834
REMARK  10 active torsions:
REMARK  status: ('A' for Active; 'I' for Inactive)
REMARK    1  A    between atoms: C_2  and  C_3 
REMARK    2  A    between atoms: C_3  and  N_4 
REMARK    3  A    between atoms: C_7  and  C_8 
REMARK       I    between atoms: C_8  and  N_9 
REMARK    4  A    between atoms: N_9  and  C_10 
REMARK    5  A    between atoms: C_10  and  C_11 
REMARK    6  A    between atoms: C_11  and  O_12 
REMARK    7  A    between atoms: C_11  and  C_13 
REMARK    8  A    between atoms: C_13  and  O_14 
REMARK    9  A    between atoms: O_14  and  C_15 
REMARK   10  A    between atoms: C_23  and  C_24 
ROOT
HETATM    1  C   UNL     1      30.793  48.953  40.134  1.00  0.00     0.255 C 
HETATM    2  N   UNL     1      29.668  48.926  39.332  1.00  0.00    -0.354 N 
HETATM    3  O   UNL     1      30.928  48.148  41.049  1.00  0.00    -0.268 OA
HETATM    4  H   UNL     1      29.570  49.620  38.603  1.00  0.00     0.162 HD
ENDROOT
BRANCH   2   5
HETATM    5  C   UNL     1      28.702  47.834  39.366  1.00  0.00     0.156 C 
BRANCH   5   6
HETATM    6  C   UNL     1      27.500  48.026  40.312  1.00  0.00     0.160 C 
BRANCH   6   7
HETATM    7  O   UNL     1      27.843  47.665  41.656  1.00  0.00    -0.392 OA
HETATM    8  H   UNL     1      28.721  47.225  41.640  1.00  0.00     0.210 HD
ENDBRANCH   6   7
BRANCH   6   9
HETATM    9  C   UNL     1      26.927  49.448  40.259  1.00  0.00     0.209 C 
BRANCH   9  10
HETATM   10  O   UNL     1      27.462  50.197  41.356  1.00  0.00    -0.349 OA
BRANCH  10  11
HETATM   11  C   UNL     1      28.283  51.244  41.046  1.00  0.00     0.069 A 
HETATM   12  C   UNL     1      28.141  51.732  39.743  1.00  0.00     0.043 A 
HETATM   13  C   UNL     1      28.912  52.808  39.287  1.00  0.00    -0.059 A 
HETATM   14  C   UNL     1      28.760  53.315  37.885  1.00  0.00     0.048 C 
HETATM   15  C   UNL     1      29.862  53.372  40.145  1.00  0.00     0.007 A 
HETATM   16  C   UNL     1      30.018  52.881  41.442  1.00  0.00     0.003 A 
HETATM   17  C   UNL     1      29.228  51.820  41.893  1.00  0.00     0.037 A 
ENDBRANCH  10  11
ENDBRANCH   9  10
ENDBRANCH   6   9
ENDBRANCH   5   6
ENDBRANCH   2   5
BRANCH   1  18
HETATM   18  C   UNL     1      31.767  49.975  39.782  1.00  0.00     0.075 A 
HETATM   19  C   UNL     1      31.850  50.620  38.521  1.00  0.00     0.158 A 
HETATM   20  N   UNL     1      32.837  51.503  38.438  1.00  0.00    -0.183 NA
HETATM   21  N   UNL     1      33.448  51.415  39.633  1.00  0.00    -0.268 N 
HETATM   22  C   UNL     1      32.821  50.537  40.503  1.00  0.00     0.052 A 
BRANCH  21  23
HETATM   23  C   UNL     1      34.697  52.147  39.848  1.00  0.00     0.106 C 
HETATM   24  C   UNL     1      34.702  53.547  39.221  1.00  0.00     0.034 C 
BRANCH  23  25
HETATM   25  C   UNL     1      35.924  51.313  39.429  1.00  0.00     0.022 C 
HETATM   26  C   UNL     1      36.817  50.852  40.575  1.00  0.00     0.007 C 
ENDBRANCH  23  25
ENDBRANCH  21  23
BRANCH  22  27
HETATM   27  C   UNL     1      33.283  50.327  41.950  1.00  0.00     0.038 A 
HETATM   28  C   UNL     1      33.266  51.473  42.933  1.00  0.00     0.011 A 
HETATM   29  C   UNL     1      32.304  50.343  43.096  1.00  0.00     0.011 A 
ENDBRANCH  22  27
ENDBRANCH   1  18
TORSDOF 10
ENDMDL
MODEL 10
REMARK VINA RESULT:      -7.1     11.865     13.958
REMARK  10 active torsions:
REMARK  status: ('A' for Active; 'I' for Inactive)
REMARK    1  A    between atoms: C_2  and  C_3 
REMARK    2  A    between atoms: C_3  and  N_4 
REMARK    3  A    between atoms: C_7  and  C_8 
REMARK       I    between atoms: C_8  and  N_9 
REMARK    4  A    between atoms: N_9  and  C_10 
REMARK    5  A    between atoms: C_10  and  C_11 
REMARK    6  A    between atoms: C_11  and  O_12 
REMARK    7  A    between atoms: C_11  and  C_13 
REMARK    8  A    between atoms: C_13  and  O_14 
REMARK    9  A    between atoms: O_14  and  C_15 
REMARK   10  A    between atoms: C_23  and  C_24 
ROOT
HETATM    1  C   UNL     1      30.538  49.076  39.086  1.00  0.00     0.255 C 
HETATM    2  N   UNL     1      29.483  49.302  39.950  1.00  0.00    -0.354 N 
HETATM    3  O   UNL     1      30.527  48.116  38.323  1.00  0.00    -0.268 OA
HETATM    4  H   UNL     1      29.532  50.085  40.587  1.00  0.00     0.162 HD
ENDROOT
BRANCH   2   5
HETATM    5  C   UNL     1      28.221  48.578  39.858  1.00  0.00     0.156 C 
BRANCH   5   6
HETATM    6  C   UNL     1      27.014  49.237  40.555  1.00  0.00     0.160 C 
BRANCH   6   7
HETATM    7  O   UNL     1      26.197  48.255  41.204  1.00  0.00    -0.392 OA
HETATM    8  H   UNL     1      26.695  47.904  41.974  1.00  0.00     0.210 HD
ENDBRANCH   6   7
BRANCH   6   9
HETATM    9  C   UNL     1      27.428  50.338  41.538  1.00  0.00     0.209 C 
BRANCH   9  10
HETATM   10  O   UNL     1      27.438  51.590  40.844  1.00  0.00    -0.349 OA
BRANCH  10  11
HETATM   11  C   UNL     1      28.609  52.297  40.864  1.00  0.00     0.069 A 
HETATM   12  C   UNL     1      29.464  51.979  41.922  1.00  0.00     0.043 A 
HETATM   13  C   UNL     1      30.702  52.617  42.067  1.00  0.00    -0.059 A 
HETATM   14  C   UNL     1      31.607  52.278  43.212  1.00  0.00     0.048 C 
HETATM   15  C   UNL     1      31.060  53.614  41.153  1.00  0.00     0.007 A 
HETATM   16  C   UNL     1      30.205  53.945  40.102  1.00  0.00     0.003 A 
HETATM   17  C   UNL     1      28.981  53.287  39.955  1.00  0.00     0.037 A 
ENDBRANCH  10  11
ENDBRANCH   9  10
ENDBRANCH   6   9
ENDBRANCH   5   6
ENDBRANCH   2   5
BRANCH   1  18
HETATM   18  C   UNL     1      31.606  50.061  39.159  1.00  0.00     0.075 A 
HETATM   19  C   UNL     1      31.802  51.119  38.234  1.00  0.00     0.158 A 
HETATM   20  N   UNL     1      32.859  51.873  38.503  1.00  0.00    -0.183 NA
HETATM   21  N   UNL     1      33.402  51.291  39.587  1.00  0.00    -0.268 N 
HETATM   22  C   UNL     1      32.665  50.214  40.054  1.00  0.00     0.052 A 
BRANCH  21  23
HETATM   23  C   UNL     1      34.694  51.771  40.081  1.00  0.00     0.106 C 
HETATM   24  C   UNL     1      35.052  53.180  39.588  1.00  0.00     0.034 C 
BRANCH  23  25
HETATM   25  C   UNL     1      35.820  50.753  39.811  1.00  0.00     0.022 C 
HETATM   26  C   UNL     1      37.209  51.190  40.259  1.00  0.00     0.007 C 
ENDBRANCH  23  25
ENDBRANCH  21  23
BRANCH  22  27
HETATM   27  C   UNL     1      33.037  49.439  41.324  1.00  0.00     0.038 A 
HETATM   28  C   UNL     1      31.962  48.902  42.238  1.00  0.00     0.011 A 
HETATM   29  C   UNL     1      32.795  47.955  41.438  1.00  0.00     0.011 A 
ENDBRANCH  22  27
ENDBRANCH   1  18
TORSDOF 10
ENDMDL
