MODEL 1
REMARK VINA RESULT:      -8.3      0.000      0.000
REMARK  2 active torsions:
REMARK  status: ('A' for Active; 'I' for Inactive)
REMARK    1  A    between atoms: C_11  and  N_12 
REMARK    2  A    between atoms: N_12  and  C_13 
ROOT
HETATM    1  C   UNL     1      27.483  46.710  55.259  1.00  0.00     0.045 A 
HETATM    2  C   UNL     1      26.530  47.578  54.744  1.00  0.00     0.117 A 
HETATM    3  F   UNL     1      26.186  48.668  55.442  1.00  0.00    -0.206 F 
HETATM    4  C   UNL     1      25.929  47.342  53.509  1.00  0.00     0.054 A 
HETATM    5  C   UNL     1      26.274  46.212  52.749  1.00  0.00     0.001 A 
HETATM    6  C   UNL     1      27.205  45.321  53.309  1.00  0.00     0.077 A 
HETATM    7  O   UNL     1      27.568  44.176  52.649  1.00  0.00    -0.351 OA
HETATM    8  C   UNL     1      26.500  43.224  52.672  1.00  0.00     0.175 C 
HETATM    9  C   UNL     1      25.622  43.356  51.434  1.00  0.00     0.029 C 
HETATM   10  C   UNL     1      24.827  44.665  51.380  1.00  0.00     0.032 C 
HETATM   11  C   UNL     1      25.714  45.928  51.365  1.00  0.00     0.118 C 
HETATM   12  C   UNL     1      27.827  45.573  54.534  1.00  0.00     0.040 A 
ENDROOT
BRANCH  11  13
HETATM   13  N   UNL     1      24.906  47.034  50.848  1.00  0.00    -0.378 N 
HETATM   14  H   UNL     1      24.154  47.305  51.479  1.00  0.00     0.160 HD
BRANCH  13  15
HETATM   15  C   UNL     1      25.219  47.990  49.880  1.00  0.00     0.075 A 
HETATM   16  C   UNL     1      24.461  48.747  49.061  1.00  0.00     0.131 A 
HETATM   17 CL   UNL     1      22.730  48.703  49.033  1.00  0.00    -0.076 Cl
HETATM   18  C   UNL     1      25.072  49.694  48.078  1.00  0.00     0.285 A 
HETATM   19  O   UNL     1      24.408  50.400  47.323  1.00  0.00    -0.265 OA
HETATM   20  N   UNL     1      26.442  49.736  48.051  1.00  0.00    -0.242 N 
HETATM   21  N   UNL     1      27.267  49.023  48.854  1.00  0.00    -0.182 NA
HETATM   22  H   UNL     1      26.876  50.370  47.388  1.00  0.00     0.192 HD
HETATM   23  C   UNL     1      26.689  48.229  49.694  1.00  0.00     0.169 A 
ENDBRANCH  13  15
ENDBRANCH  11  13
TORSDOF 2
ENDMDL
MODEL 2
REMARK VINA RESULT:      -8.1      4.524      5.501
REMARK  2 active torsions:
REMARK  status: ('A' for Active; 'I' for Inactive)
REMARK    1  A    between atoms: C_11  and  N_12 
REMARK    2  A    between atoms: N_12  and  C_13 
ROOT
HETATM    1  C   UNL     1      30.616  44.575  55.942  1.00  0.00     0.045 A 
HETATM    2  C   UNL     1      30.219  43.626  55.010  1.00  0.00     0.117 A 
HETATM    3  F   UNL     1      31.049  42.624  54.695  1.00  0.00    -0.206 F 
HETATM    4  C   UNL     1      28.967  43.691  54.400  1.00  0.00     0.054 A 
HETATM    5  C   UNL     1      28.070  44.726  54.715  1.00  0.00     0.001 A 
HETATM    6  C   UNL     1      28.509  45.703  55.624  1.00  0.00     0.077 A 
HETATM    7  O   UNL     1      27.710  46.765  55.956  1.00  0.00    -0.351 OA
HETATM    8  C   UNL     1      27.619  47.686  54.864  1.00  0.00     0.175 C 
HETATM    9  C   UNL     1      26.413  47.378  53.987  1.00  0.00     0.029 C 
HETATM   10  C   UNL     1      26.527  46.053  53.225  1.00  0.00     0.032 C 
HETATM   11  C   UNL     1      26.665  44.820  54.144  1.00  0.00     0.118 C 
HETATM   12  C   UNL     1      29.753  45.621  56.255  1.00  0.00     0.040 A 
ENDROOT
BRANCH  11  13
HETATM   13  N   UNL     1      26.295  43.639  53.363  1.00  0.00    -0.378 N 
HETATM   14  H   UNL     1      25.748  42.966  53.897  1.00  0.00     0.160 HD
BRANCH  13  15
HETATM   15  C   UNL     1      26.224  43.472  51.979  1.00  0.00     0.075 A 
HETATM   16  C   UNL     1      27.013  42.834  51.092  1.00  0.00     0.131 A 
HETATM   17 CL   UNL     1      28.452  41.972  51.524  1.00  0.00    -0.076 Cl
HETATM   18  C   UNL     1      26.710  42.836  49.627  1.00  0.00     0.285 A 
HETATM   19  O   UNL     1      27.407  42.260  48.795  1.00  0.00    -0.265 OA
HETATM   20  N   UNL     1      25.594  43.533  49.243  1.00  0.00    -0.242 N 
HETATM   21  N   UNL     1      24.744  44.179  50.075  1.00  0.00    -0.182 NA
HETATM   22  H   UNL     1      25.373  43.550  48.252  1.00  0.00     0.192 HD
HETATM   23  C   UNL     1      25.044  44.137  51.332  1.00  0.00     0.169 A 
ENDBRANCH  13  15
ENDBRANCH  11  13
TORSDOF 2
ENDMDL
MODEL 3
REMARK VINA RESULT:      -7.9      2.962      6.528
REMARK  2 active torsions:
REMARK  status: ('A' for Active; 'I' for Inactive)
REMARK    1  A    between atoms: C_11  and  N_12 
REMARK    2  A    between atoms: N_12  and  C_13 
ROOT
HETATM    1  C   UNL     1      22.484  50.713  48.407  1.00  0.00     0.045 A 
HETATM    2  C   UNL     1      22.223  49.678  49.294  1.00  0.00     0.117 A 
HETATM    3  F   UNL     1      21.023  49.602  49.883  1.00  0.00    -0.206 F 
HETATM    4  C   UNL     1      23.184  48.710  49.579  1.00  0.00     0.054 A 
HETATM    5  C   UNL     1      24.450  48.757  48.970  1.00  0.00     0.001 A 
HETATM    6  C   UNL     1      24.711  49.839  48.112  1.00  0.00     0.077 A 
HETATM    7  O   UNL     1      25.932  49.979  47.509  1.00  0.00    -0.351 OA
HETATM    8  C   UNL     1      26.922  50.375  48.464  1.00  0.00     0.175 C 
HETATM    9  C   UNL     1      27.634  49.163  49.050  1.00  0.00     0.029 C 
HETATM   10  C   UNL     1      26.735  48.285  49.928  1.00  0.00     0.032 C 
HETATM   11  C   UNL     1      25.520  47.699  49.177  1.00  0.00     0.118 C 
HETATM   12  C   UNL     1      23.737  50.793  47.808  1.00  0.00     0.040 A 
ENDROOT
BRANCH  11  13
HETATM   13  N   UNL     1      25.034  46.551  49.945  1.00  0.00    -0.378 N 
HETATM   14  H   UNL     1      24.044  46.364  49.797  1.00  0.00     0.160 HD
BRANCH  13  15
HETATM   15  C   UNL     1      25.745  45.486  50.502  1.00  0.00     0.075 A 
HETATM   16  C   UNL     1      26.058  45.158  51.772  1.00  0.00     0.131 A 
HETATM   17 CL   UNL     1      25.583  46.087  53.154  1.00  0.00    -0.076 Cl
HETATM   18  C   UNL     1      26.873  43.945  52.092  1.00  0.00     0.285 A 
HETATM   19  O   UNL     1      27.170  43.618  53.238  1.00  0.00    -0.265 OA
HETATM   20  N   UNL     1      27.292  43.200  51.021  1.00  0.00    -0.242 N 
HETATM   21  N   UNL     1      27.001  43.454  49.723  1.00  0.00    -0.182 NA
HETATM   22  H   UNL     1      27.850  42.375  51.216  1.00  0.00     0.192 HD
HETATM   23  C   UNL     1      26.283  44.506  49.501  1.00  0.00     0.169 A 
ENDBRANCH  13  15
ENDBRANCH  11  13
TORSDOF 2
ENDMDL
MODEL 4
REMARK VINA RESULT:      -7.7      3.761      6.379
REMARK  2 active torsions:
REMARK  status: ('A' for Active; 'I' for Inactive)
REMARK    1  A    between atoms: C_11  and  N_12 
REMARK    2  A    between atoms: N_12  and  C_13 
ROOT
HETATM    1  C   UNL     1      22.523  51.040  48.421  1.00  0.00     0.045 A 
HETATM    2  C   UNL     1      22.146  50.135  49.403  1.00  0.00     0.117 A 
HETATM    3  F   UNL     1      20.968  50.287  50.022  1.00  0.00    -0.206 F 
HETATM    4  C   UNL     1      22.966  49.065  49.753  1.00  0.00     0.054 A 
HETATM    5  C   UNL     1      24.205  48.873  49.116  1.00  0.00     0.001 A 
HETATM    6  C   UNL     1      24.589  49.827  48.159  1.00  0.00     0.077 A 
HETATM    7  O   UNL     1      25.797  49.734  47.519  1.00  0.00    -0.351 OA
HETATM    8  C   UNL     1      26.865  50.062  48.413  1.00  0.00     0.175 C 
HETATM    9  C   UNL     1      27.415  48.813  49.091  1.00  0.00     0.029 C 
HETATM   10  C   UNL     1      26.430  48.155  50.063  1.00  0.00     0.032 C 
HETATM   11  C   UNL     1      25.117  47.691  49.395  1.00  0.00     0.118 C 
HETATM   12  C   UNL     1      23.753  50.884  47.790  1.00  0.00     0.040 A 
ENDROOT
BRANCH  11  13
HETATM   13  N   UNL     1      24.497  46.697  50.273  1.00  0.00    -0.378 N 
HETATM   14  H   UNL     1      24.202  47.086  51.166  1.00  0.00     0.160 HD
BRANCH  13  15
HETATM   15  C   UNL     1      23.913  45.469  49.956  1.00  0.00     0.075 A 
HETATM   16  C   UNL     1      23.073  45.081  48.976  1.00  0.00     0.131 A 
HETATM   17 CL   UNL     1      22.471  46.139  47.744  1.00  0.00    -0.076 Cl
HETATM   18  C   UNL     1      22.571  43.675  48.882  1.00  0.00     0.285 A 
HETATM   19  O   UNL     1      21.809  43.290  47.999  1.00  0.00    -0.265 OA
HETATM   20  N   UNL     1      23.004  42.814  49.857  1.00  0.00    -0.242 N 
HETATM   21  N   UNL     1      23.860  43.125  50.858  1.00  0.00    -0.182 NA
HETATM   22  H   UNL     1      22.671  41.856  49.814  1.00  0.00     0.192 HD
HETATM   23  C   UNL     1      24.275  44.349  50.887  1.00  0.00     0.169 A 
ENDBRANCH  13  15
ENDBRANCH  11  13
TORSDOF 2
ENDMDL
MODEL 5
REMARK VINA RESULT:      -7.6      4.181      5.095
REMARK  2 active torsions:
REMARK  status: ('A' for Active; 'I' for Inactive)
REMARK    1  A    between atoms: C_11  and  N_12 
REMARK    2  A    between atoms: N_12  and  C_13 
ROOT
HETATM    1  C   UNL     1      29.538  44.598  55.224  1.00  0.00     0.045 A 
HETATM    2  C   UNL     1      29.397  43.540  54.335  1.00  0.00     0.117 A 
HETATM    3  F   UNL     1      30.370  42.625  54.240  1.00  0.00    -0.206 F 
HETATM    4  C   UNL     1      28.257  43.407  53.545  1.00  0.00     0.054 A 
HETATM    5  C   UNL     1      27.215  44.346  53.628  1.00  0.00     0.001 A 
HETATM    6  C   UNL     1      27.398  45.434  54.498  1.00  0.00     0.077 A 
HETATM    7  O   UNL     1      26.446  46.413  54.610  1.00  0.00    -0.351 OA
HETATM    8  C   UNL     1      26.428  47.232  53.437  1.00  0.00     0.175 C 
HETATM    9  C   UNL     1      25.414  46.716  52.424  1.00  0.00     0.029 C 
HETATM   10  C   UNL     1      25.788  45.361  51.812  1.00  0.00     0.032 C 
HETATM   11  C   UNL     1      25.914  44.227  52.852  1.00  0.00     0.118 C 
HETATM   12  C   UNL     1      28.529  45.551  55.309  1.00  0.00     0.040 A 
ENDROOT
BRANCH  11  13
HETATM   13  N   UNL     1      25.801  42.954  52.137  1.00  0.00    -0.378 N 
HETATM   14  H   UNL     1      25.431  42.204  52.718  1.00  0.00     0.160 HD
BRANCH  13  15
HETATM   15  C   UNL     1      25.738  42.705  50.764  1.00  0.00     0.075 A 
HETATM   16  C   UNL     1      24.713  42.642  49.891  1.00  0.00     0.131 A 
HETATM   17 CL   UNL     1      23.056  42.894  50.327  1.00  0.00    -0.076 Cl
HETATM   18  C   UNL     1      24.930  42.325  48.446  1.00  0.00     0.285 A 
HETATM   19  O   UNL     1      24.018  42.265  47.626  1.00  0.00    -0.265 OA
HETATM   20  N   UNL     1      26.227  42.091  48.068  1.00  0.00    -0.242 N 
HETATM   21  N   UNL     1      27.308  42.157  48.881  1.00  0.00    -0.182 NA
HETATM   22  H   UNL     1      26.396  41.871  47.092  1.00  0.00     0.192 HD
HETATM   23  C   UNL     1      27.067  42.446  50.117  1.00  0.00     0.169 A 
ENDBRANCH  13  15
ENDBRANCH  11  13
TORSDOF 2
ENDMDL
MODEL 6
REMARK VINA RESULT:      -7.6      4.621      7.242
REMARK  2 active torsions:
REMARK  status: ('A' for Active; 'I' for Inactive)
REMARK    1  A    between atoms: C_11  and  N_12 
REMARK    2  A    between atoms: N_12  and  C_13 
ROOT
HETATM    1  C   UNL     1      18.305  50.856  47.950  1.00  0.00     0.045 A 
HETATM    2  C   UNL     1      19.527  51.418  48.293  1.00  0.00     0.117 A 
HETATM    3  F   UNL     1      19.655  52.750  48.320  1.00  0.00    -0.206 F 
HETATM    4  C   UNL     1      20.623  50.621  48.617  1.00  0.00     0.054 A 
HETATM    5  C   UNL     1      20.519  49.220  48.606  1.00  0.00     0.001 A 
HETATM    6  C   UNL     1      19.288  48.670  48.210  1.00  0.00     0.077 A 
HETATM    7  O   UNL     1      19.115  47.314  48.136  1.00  0.00    -0.351 OA
HETATM    8  C   UNL     1      19.823  46.777  47.014  1.00  0.00     0.175 C 
HETATM    9  C   UNL     1      21.220  46.322  47.414  1.00  0.00     0.029 C 
HETATM   10  C   UNL     1      22.153  47.471  47.809  1.00  0.00     0.032 C 
HETATM   11  C   UNL     1      21.649  48.291  49.017  1.00  0.00     0.118 C 
HETATM   12  C   UNL     1      18.182  49.470  47.911  1.00  0.00     0.040 A 
ENDROOT
BRANCH  11  13
HETATM   13  N   UNL     1      22.794  49.012  49.575  1.00  0.00    -0.378 N 
HETATM   14  H   UNL     1      22.664  49.268  50.552  1.00  0.00     0.160 HD
BRANCH  13  15
HETATM   15  C   UNL     1      24.120  49.053  49.139  1.00  0.00     0.075 A 
HETATM   16  C   UNL     1      25.218  48.347  49.478  1.00  0.00     0.131 A 
HETATM   17 CL   UNL     1      25.225  47.081  50.660  1.00  0.00    -0.076 Cl
HETATM   18  C   UNL     1      26.550  48.621  48.857  1.00  0.00     0.285 A 
HETATM   19  O   UNL     1      27.567  47.992  49.142  1.00  0.00    -0.265 OA
HETATM   20  N   UNL     1      26.590  49.636  47.937  1.00  0.00    -0.242 N 
HETATM   21  N   UNL     1      25.529  50.372  47.531  1.00  0.00    -0.182 NA
HETATM   22  H   UNL     1      27.487  49.840  47.507  1.00  0.00     0.192 HD
HETATM   23  C   UNL     1      24.399  50.088  48.089  1.00  0.00     0.169 A 
ENDBRANCH  13  15
ENDBRANCH  11  13
TORSDOF 2
ENDMDL
MODEL 7
REMARK VINA RESULT:      -7.6      5.727      7.952
REMARK  2 active torsions:
REMARK  status: ('A' for Active; 'I' for Inactive)
REMARK    1  A    between atoms: C_11  and  N_12 
REMARK    2  A    between atoms: N_12  and  C_13 
ROOT
HETATM    1  C   UNL     1      28.866  43.869  54.635  1.00  0.00     0.045 A 
HETATM    2  C   UNL     1      29.763  43.101  53.905  1.00  0.00     0.117 A 
HETATM    3  F   UNL     1      31.023  42.970  54.339  1.00  0.00    -0.206 F 
HETATM    4  C   UNL     1      29.375  42.457  52.732  1.00  0.00     0.054 A 
HETATM    5  C   UNL     1      28.058  42.568  52.255  1.00  0.00     0.001 A 
HETATM    6  C   UNL     1      27.178  43.388  52.982  1.00  0.00     0.077 A 
HETATM    7  O   UNL     1      25.888  43.580  52.565  1.00  0.00    -0.351 OA
HETATM    8  C   UNL     1      25.855  44.414  51.402  1.00  0.00     0.175 C 
HETATM    9  C   UNL     1      25.875  43.579  50.128  1.00  0.00     0.029 C 
HETATM   10  C   UNL     1      27.195  42.834  49.900  1.00  0.00     0.032 C 
HETATM   11  C   UNL     1      27.546  41.837  51.025  1.00  0.00     0.118 C 
HETATM   12  C   UNL     1      27.561  44.011  54.173  1.00  0.00     0.040 A 
ENDROOT
BRANCH  11  13
HETATM   13  N   UNL     1      28.522  40.887  50.490  1.00  0.00    -0.378 N 
HETATM   14  H   UNL     1      29.480  41.225  50.551  1.00  0.00     0.160 HD
BRANCH  13  15
HETATM   15  C   UNL     1      28.407  39.509  50.290  1.00  0.00     0.075 A 
HETATM   16  C   UNL     1      27.527  38.754  49.604  1.00  0.00     0.131 A 
HETATM   17 CL   UNL     1      26.194  39.400  48.705  1.00  0.00    -0.076 Cl
HETATM   18  C   UNL     1      27.624  37.262  49.578  1.00  0.00     0.285 A 
HETATM   19  O   UNL     1      26.841  36.547  48.957  1.00  0.00    -0.265 OA
HETATM   20  N   UNL     1      28.650  36.712  50.301  1.00  0.00    -0.242 N 
HETATM   21  N   UNL     1      29.582  37.404  50.997  1.00  0.00    -0.182 NA
HETATM   22  H   UNL     1      28.731  35.700  50.300  1.00  0.00     0.192 HD
HETATM   23  C   UNL     1      29.461  38.691  50.977  1.00  0.00     0.169 A 
ENDBRANCH  13  15
ENDBRANCH  11  13
TORSDOF 2
ENDMDL
MODEL 8
REMARK VINA RESULT:      -7.4     11.516     13.580
REMARK  2 active torsions:
REMARK  status: ('A' for Active; 'I' for Inactive)
REMARK    1  A    between atoms: C_11  and  N_12 
REMARK    2  A    between atoms: N_12  and  C_13 
ROOT
HETATM    1  C   UNL     1      30.224  51.872  37.676  1.00  0.00     0.045 A 
HETATM    2  C   UNL     1      31.361  51.224  38.140  1.00  0.00     0.117 A 
HETATM    3  F   UNL     1      32.437  51.134  37.349  1.00  0.00    -0.206 F 
HETATM    4  C   UNL     1      31.407  50.671  39.418  1.00  0.00     0.054 A 
HETATM    5  C   UNL     1      30.296  50.756  40.276  1.00  0.00     0.001 A 
HETATM    6  C   UNL     1      29.140  51.374  39.770  1.00  0.00     0.077 A 
HETATM    7  O   UNL     1      28.003  51.464  40.528  1.00  0.00    -0.351 OA
HETATM    8  C   UNL     1      27.379  50.182  40.653  1.00  0.00     0.175 C 
HETATM    9  C   UNL     1      27.853  49.462  41.908  1.00  0.00     0.029 C 
HETATM   10  C   UNL     1      29.329  49.050  41.861  1.00  0.00     0.032 C 
HETATM   11  C   UNL     1      30.299  50.240  41.705  1.00  0.00     0.118 C 
HETATM   12  C   UNL     1      29.105  51.951  38.499  1.00  0.00     0.040 A 
ENDROOT
BRANCH  11  13
HETATM   13  N   UNL     1      31.624  49.795  42.140  1.00  0.00    -0.378 N 
HETATM   14  H   UNL     1      31.893  48.900  41.738  1.00  0.00     0.160 HD
BRANCH  13  15
HETATM   15  C   UNL     1      32.686  50.537  42.662  1.00  0.00     0.075 A 
HETATM   16  C   UNL     1      33.969  50.692  42.280  1.00  0.00     0.131 A 
HETATM   17 CL   UNL     1      34.663  49.926  40.890  1.00  0.00    -0.076 Cl
HETATM   18  C   UNL     1      34.922  51.546  43.055  1.00  0.00     0.285 A 
HETATM   19  O   UNL     1      36.095  51.711  42.729  1.00  0.00    -0.265 OA
HETATM   20  N   UNL     1      34.416  52.147  44.178  1.00  0.00    -0.242 N 
HETATM   21  N   UNL     1      33.137  52.054  44.613  1.00  0.00    -0.182 NA
HETATM   22  H   UNL     1      35.048  52.727  44.721  1.00  0.00     0.192 HD
HETATM   23  C   UNL     1      32.352  51.314  43.901  1.00  0.00     0.169 A 
ENDBRANCH  13  15
ENDBRANCH  11  13
TORSDOF 2
ENDMDL
MODEL 9
REMARK VINA RESULT:      -7.4      3.430      4.638
REMARK  2 active torsions:
REMARK  status: ('A' for Active; 'I' for Inactive)
REMARK    1  A    between atoms: C_11  and  N_12 
REMARK    2  A    between atoms: N_12  and  C_13 
ROOT
HETATM    1  C   UNL     1      29.999  42.555  53.350  1.00  0.00     0.045 A 
HETATM    2  C   UNL     1      28.880  42.577  52.528  1.00  0.00     0.117 A 
HETATM    3  F   UNL     1      28.832  41.774  51.458  1.00  0.00    -0.206 F 
HETATM    4  C   UNL     1      27.800  43.413  52.801  1.00  0.00     0.054 A 
HETATM    5  C   UNL     1      27.816  44.262  53.921  1.00  0.00     0.001 A 
HETATM    6  C   UNL     1      28.976  44.260  54.712  1.00  0.00     0.077 A 
HETATM    7  O   UNL     1      29.088  45.085  55.800  1.00  0.00    -0.351 OA
HETATM    8  C   UNL     1      29.259  46.444  55.385  1.00  0.00     0.175 C 
HETATM    9  C   UNL     1      27.918  47.162  55.296  1.00  0.00     0.029 C 
HETATM   10  C   UNL     1      27.013  46.640  54.175  1.00  0.00     0.032 C 
HETATM   11  C   UNL     1      26.647  45.147  54.320  1.00  0.00     0.118 C 
HETATM   12  C   UNL     1      30.047  43.401  54.453  1.00  0.00     0.040 A 
ENDROOT
BRANCH  11  13
HETATM   13  N   UNL     1      25.453  44.900  53.509  1.00  0.00    -0.378 N 
HETATM   14  H   UNL     1      24.645  44.627  54.065  1.00  0.00     0.160 HD
BRANCH  13  15
HETATM   15  C   UNL     1      25.144  45.342  52.220  1.00  0.00     0.075 A 
HETATM   16  C   UNL     1      24.805  44.694  51.088  1.00  0.00     0.131 A 
HETATM   17 CL   UNL     1      24.648  42.974  50.968  1.00  0.00    -0.076 Cl
HETATM   18  C   UNL     1      24.547  45.428  49.810  1.00  0.00     0.285 A 
HETATM   19  O   UNL     1      24.231  44.867  48.764  1.00  0.00    -0.265 OA
HETATM   20  N   UNL     1      24.689  46.791  49.859  1.00  0.00    -0.242 N 
HETATM   21  N   UNL     1      25.006  47.511  50.960  1.00  0.00    -0.182 NA
HETATM   22  H   UNL     1      24.522  47.308  49.001  1.00  0.00     0.192 HD
HETATM   23  C   UNL     1      25.207  46.830  52.041  1.00  0.00     0.169 A 
ENDBRANCH  13  15
ENDBRANCH  11  13
TORSDOF 2
ENDMDL
MODEL 10
REMARK VINA RESULT:      -7.3     11.964     13.230
REMARK  2 active torsions:
REMARK  status: ('A' for Active; 'I' for Inactive)
REMARK    1  A    between atoms: C_11  and  N_12 
REMARK    2  A    between atoms: N_12  and  C_13 
ROOT
HETATM    1  C   UNL     1      27.993  52.469  40.956  1.00  0.00     0.045 A 
HETATM    2  C   UNL     1      29.229  52.930  40.523  1.00  0.00     0.117 A 
HETATM    3  F   UNL     1      29.348  54.194  40.098  1.00  0.00    -0.206 F 
HETATM    4  C   UNL     1      30.351  52.104  40.529  1.00  0.00     0.054 A 
HETATM    5  C   UNL     1      30.260  50.775  40.977  1.00  0.00     0.001 A 
HETATM    6  C   UNL     1      28.991  50.314  41.366  1.00  0.00     0.077 A 
HETATM    7  O   UNL     1      28.810  49.020  41.780  1.00  0.00    -0.351 OA
HETATM    8  C   UNL     1      28.902  48.121  40.671  1.00  0.00     0.175 C 
HETATM    9  C   UNL     1      30.323  47.600  40.504  1.00  0.00     0.029 C 
HETATM   10  C   UNL     1      31.327  48.676  40.074  1.00  0.00     0.032 C 
HETATM   11  C   UNL     1      31.454  49.841  41.079  1.00  0.00     0.118 C 
HETATM   12  C   UNL     1      27.873  51.151  41.385  1.00  0.00     0.040 A 
ENDROOT
BRANCH  11  13
HETATM   13  N   UNL     1      32.724  50.520  40.815  1.00  0.00    -0.378 N 
HETATM   14  H   UNL     1      32.762  50.945  39.891  1.00  0.00     0.160 HD
BRANCH  13  15
HETATM   15  C   UNL     1      33.679  51.002  41.712  1.00  0.00     0.075 A 
HETATM   16  C   UNL     1      35.026  51.058  41.673  1.00  0.00     0.131 A 
HETATM   17 CL   UNL     1      35.978  50.489  40.343  1.00  0.00    -0.076 Cl
HETATM   18  C   UNL     1      35.822  51.615  42.809  1.00  0.00     0.285 A 
HETATM   19  O   UNL     1      37.049  51.684  42.801  1.00  0.00    -0.265 OA
HETATM   20  N   UNL     1      35.105  52.050  43.893  1.00  0.00    -0.242 N 
HETATM   21  N   UNL     1      33.755  52.044  43.997  1.00  0.00    -0.182 NA
HETATM   22  H   UNL     1      35.627  52.427  44.677  1.00  0.00     0.192 HD
HETATM   23  C   UNL     1      33.113  51.564  42.983  1.00  0.00     0.169 A 
ENDBRANCH  13  15
ENDBRANCH  11  13
TORSDOF 2
ENDMDL
