MODEL 1
REMARK VINA RESULT:      -9.7      0.000      0.000
REMARK  4 active torsions:
REMARK  status: ('A' for Active; 'I' for Inactive)
REMARK    1  A    between atoms: C_9  and  C_10 
REMARK       I    between atoms: C_10  and  N_11 
REMARK    2  A    between atoms: N_11  and  N_12 
REMARK       I    between atoms: N_12  and  C_13 
REMARK    3  A    between atoms: C_13  and  C_14 
REMARK    4  A    between atoms: C_14  and  C_15 
ROOT
HETATM    1  C   UNL     1      24.697  47.479  50.360  1.00  0.00     0.291 C 
HETATM    2  N   UNL     1      23.364  47.688  50.060  1.00  0.00    -0.262 N 
HETATM    3  O   UNL     1      25.579  48.272  50.033  1.00  0.00    -0.264 OA
HETATM    4  H   UNL     1      22.655  47.087  50.487  1.00  0.00     0.190 HD
ENDROOT
BRANCH   2   5
HETATM    5  N   UNL     1      22.962  48.911  49.516  1.00  0.00    -0.267 N 
HETATM    6  C   UNL     1      22.345  48.897  48.276  1.00  0.00     0.236 C 
HETATM    7  O   UNL     1      22.259  47.882  47.594  1.00  0.00    -0.272 OA
HETATM    8  H   UNL     1      22.836  49.677  50.175  1.00  0.00     0.190 HD
BRANCH   6   9
HETATM    9  C   UNL     1      21.822  50.270  47.880  1.00  0.00     0.114 C 
BRANCH   9  10
HETATM   10  C   UNL     1      20.313  50.540  48.071  1.00  0.00    -0.031 C 
HETATM   11  C   UNL     1      19.710  49.685  49.216  1.00  0.00     0.014 C 
HETATM   12  C   UNL     1      18.223  50.024  49.423  1.00  0.00    -0.013 C 
HETATM   13  C   UNL     1      17.456  49.757  48.117  1.00  0.00     0.009 C 
HETATM   14  C   UNL     1      18.086  51.509  49.797  1.00  0.00     0.009 C 
HETATM   15  C   UNL     1      18.017  50.632  46.985  1.00  0.00    -0.013 C 
HETATM   16  C   UNL     1      19.504  50.296  46.772  1.00  0.00     0.014 C 
HETATM   17  C   UNL     1      17.881  52.112  47.372  1.00  0.00     0.009 C 
HETATM   18  C   UNL     1      18.655  52.386  48.671  1.00  0.00    -0.013 C 
HETATM   19  C   UNL     1      20.137  52.038  48.460  1.00  0.00     0.014 C 
ENDBRANCH   9  10
ENDBRANCH   6   9
ENDBRANCH   2   5
BRANCH   1  20
HETATM   20  C   UNL     1      24.938  46.237  51.105  1.00  0.00     0.158 A 
HETATM   21  C   UNL     1      25.678  46.080  52.315  1.00  0.00     0.029 A 
HETATM   22  C   UNL     1      26.391  46.928  53.187  1.00  0.00     0.023 A 
HETATM   23  C   UNL     1      25.614  44.724  52.605  1.00  0.00     0.063 A 
HETATM   24  C   UNL     1      27.008  46.386  54.328  1.00  0.00    -0.061 A 
HETATM   25  C   UNL     1      27.791  47.268  55.258  1.00  0.00     0.048 C 
HETATM   26  C   UNL     1      26.928  45.010  54.576  1.00  0.00     0.009 A 
HETATM   27  C   UNL     1      26.226  44.150  53.723  1.00  0.00     0.032 A 
HETATM   28  N   UNL     1      24.870  44.173  51.600  1.00  0.00    -0.277 N 
HETATM   29  H   UNL     1      24.617  43.198  51.486  1.00  0.00     0.189 HD
HETATM   30  N   UNL     1      24.445  45.054  50.678  1.00  0.00    -0.168 NA
ENDBRANCH   1  20
TORSDOF 4
ENDMDL
MODEL 2
REMARK VINA RESULT:      -9.4      1.549      2.341
REMARK  4 active torsions:
REMARK  status: ('A' for Active; 'I' for Inactive)
REMARK    1  A    between atoms: C_9  and  C_10 
REMARK       I    between atoms: C_10  and  N_11 
REMARK    2  A    between atoms: N_11  and  N_12 
REMARK       I    between atoms: N_12  and  C_13 
REMARK    3  A    between atoms: C_13  and  C_14 
REMARK    4  A    between atoms: C_14  and  C_15 
ROOT
HETATM    1  C   UNL     1      24.468  45.251  51.227  1.00  0.00     0.291 C 
HETATM    2  N   UNL     1      24.501  46.534  50.714  1.00  0.00    -0.262 N 
HETATM    3  O   UNL     1      23.522  44.487  51.033  1.00  0.00    -0.264 OA
HETATM    4  H   UNL     1      25.369  47.072  50.767  1.00  0.00     0.190 HD
ENDROOT
BRANCH   2   5
HETATM    5  N   UNL     1      23.519  46.941  49.806  1.00  0.00    -0.267 N 
HETATM    6  C   UNL     1      23.620  48.212  49.268  1.00  0.00     0.236 C 
HETATM    7  O   UNL     1      24.453  49.026  49.653  1.00  0.00    -0.272 OA
HETATM    8  H   UNL     1      22.997  46.197  49.346  1.00  0.00     0.190 HD
BRANCH   6   9
HETATM    9  C   UNL     1      22.582  48.462  48.184  1.00  0.00     0.114 C 
BRANCH   9  10
HETATM   10  C   UNL     1      21.311  49.246  48.581  1.00  0.00    -0.031 C 
HETATM   11  C   UNL     1      21.608  50.328  49.652  1.00  0.00     0.014 C 
HETATM   12  C   UNL     1      20.336  51.132  49.979  1.00  0.00    -0.013 C 
HETATM   13  C   UNL     1      19.249  50.175  50.496  1.00  0.00     0.009 C 
HETATM   14  C   UNL     1      19.833  51.830  48.704  1.00  0.00     0.009 C 
HETATM   15  C   UNL     1      18.917  49.123  49.425  1.00  0.00    -0.013 C 
HETATM   16  C   UNL     1      20.184  48.315  49.096  1.00  0.00     0.014 C 
HETATM   17  C   UNL     1      18.422  49.831  48.155  1.00  0.00     0.009 C 
HETATM   18  C   UNL     1      19.509  50.782  47.628  1.00  0.00    -0.013 C 
HETATM   19  C   UNL     1      20.777  49.973  47.312  1.00  0.00     0.014 C 
ENDBRANCH   9  10
ENDBRANCH   6   9
ENDBRANCH   2   5
BRANCH   1  20
HETATM   20  C   UNL     1      25.664  44.904  52.004  1.00  0.00     0.158 A 
HETATM   21  C   UNL     1      26.232  45.630  53.093  1.00  0.00     0.029 A 
HETATM   22  C   UNL     1      25.932  46.818  53.789  1.00  0.00     0.023 A 
HETATM   23  C   UNL     1      27.346  44.894  53.477  1.00  0.00     0.063 A 
HETATM   24  C   UNL     1      26.755  47.224  54.854  1.00  0.00    -0.061 A 
HETATM   25  C   UNL     1      26.465  48.499  55.594  1.00  0.00     0.048 C 
HETATM   26  C   UNL     1      27.876  46.458  55.200  1.00  0.00     0.009 A 
HETATM   27  C   UNL     1      28.193  45.275  54.521  1.00  0.00     0.032 A 
HETATM   28  N   UNL     1      27.376  43.818  52.635  1.00  0.00    -0.277 N 
HETATM   29  H   UNL     1      28.055  43.065  52.624  1.00  0.00     0.189 HD
HETATM   30  N   UNL     1      26.379  43.789  51.735  1.00  0.00    -0.168 NA
ENDBRANCH   1  20
TORSDOF 4
ENDMDL
MODEL 3
REMARK VINA RESULT:      -9.3      1.545      2.611
REMARK  4 active torsions:
REMARK  status: ('A' for Active; 'I' for Inactive)
REMARK    1  A    between atoms: C_9  and  C_10 
REMARK       I    between atoms: C_10  and  N_11 
REMARK    2  A    between atoms: N_11  and  N_12 
REMARK       I    between atoms: N_12  and  C_13 
REMARK    3  A    between atoms: C_13  and  C_14 
REMARK    4  A    between atoms: C_14  and  C_15 
ROOT
HETATM    1  C   UNL     1      24.118  44.794  50.970  1.00  0.00     0.291 C 
HETATM    2  N   UNL     1      24.309  46.089  50.525  1.00  0.00    -0.262 N 
HETATM    3  O   UNL     1      23.112  44.141  50.690  1.00  0.00    -0.264 OA
HETATM    4  H   UNL     1      25.223  46.531  50.650  1.00  0.00     0.190 HD
ENDROOT
BRANCH   2   5
HETATM    5  N   UNL     1      23.425  46.636  49.591  1.00  0.00    -0.267 N 
HETATM    6  C   UNL     1      23.506  47.995  49.341  1.00  0.00     0.236 C 
HETATM    7  O   UNL     1      24.222  48.744  49.996  1.00  0.00    -0.272 OA
HETATM    8  H   UNL     1      23.021  45.984  48.920  1.00  0.00     0.190 HD
BRANCH   6   9
HETATM    9  C   UNL     1      22.600  48.423  48.195  1.00  0.00     0.114 C 
BRANCH   9  10
HETATM   10  C   UNL     1      21.356  49.268  48.548  1.00  0.00    -0.031 C 
HETATM   11  C   UNL     1      20.741  49.946  47.297  1.00  0.00     0.014 C 
HETATM   12  C   UNL     1      19.468  50.727  47.672  1.00  0.00    -0.013 C 
HETATM   13  C   UNL     1      19.820  51.796  48.721  1.00  0.00     0.009 C 
HETATM   14  C   UNL     1      18.431  49.758  48.263  1.00  0.00     0.009 C 
HETATM   15  C   UNL     1      20.391  51.130  49.983  1.00  0.00    -0.013 C 
HETATM   16  C   UNL     1      21.665  50.350  49.615  1.00  0.00     0.014 C 
HETATM   17  C   UNL     1      19.350  50.160  50.561  1.00  0.00     0.009 C 
HETATM   18  C   UNL     1      19.003  49.084  49.520  1.00  0.00    -0.013 C 
HETATM   19  C   UNL     1      20.279  48.314  49.144  1.00  0.00     0.014 C 
ENDBRANCH   9  10
ENDBRANCH   6   9
ENDBRANCH   2   5
BRANCH   1  20
HETATM   20  C   UNL     1      25.227  44.290  51.789  1.00  0.00     0.158 A 
HETATM   21  C   UNL     1      25.897  44.965  52.853  1.00  0.00     0.029 A 
HETATM   22  C   UNL     1      25.794  46.222  53.483  1.00  0.00     0.023 A 
HETATM   23  C   UNL     1      26.864  44.072  53.297  1.00  0.00     0.063 A 
HETATM   24  C   UNL     1      26.661  46.538  54.544  1.00  0.00    -0.061 A 
HETATM   25  C   UNL     1      26.583  47.880  55.213  1.00  0.00     0.048 C 
HETATM   26  C   UNL     1      27.630  45.612  54.951  1.00  0.00     0.009 A 
HETATM   27  C   UNL     1      27.749  44.358  54.339  1.00  0.00     0.032 A 
HETATM   28  N   UNL     1      26.720  42.964  52.511  1.00  0.00    -0.277 N 
HETATM   29  H   UNL     1      27.261  42.107  52.551  1.00  0.00     0.189 HD
HETATM   30  N   UNL     1      25.745  43.058  51.591  1.00  0.00    -0.168 NA
ENDBRANCH   1  20
TORSDOF 4
ENDMDL
MODEL 4
REMARK VINA RESULT:      -8.8      8.352     10.650
REMARK  4 active torsions:
REMARK  status: ('A' for Active; 'I' for Inactive)
REMARK    1  A    between atoms: C_9  and  C_10 
REMARK       I    between atoms: C_10  and  N_11 
REMARK    2  A    between atoms: N_11  and  N_12 
REMARK       I    between atoms: N_12  and  C_13 
REMARK    3  A    between atoms: C_13  and  C_14 
REMARK    4  A    between atoms: C_14  and  C_15 
ROOT
HETATM    1  C   UNL     1      28.277  43.150  52.567  1.00  0.00     0.291 C 
HETATM    2  N   UNL     1      27.579  43.500  51.426  1.00  0.00    -0.262 N 
HETATM    3  O   UNL     1      28.868  42.076  52.675  1.00  0.00    -0.264 OA
HETATM    4  H   UNL     1      27.240  44.460  51.321  1.00  0.00     0.190 HD
ENDROOT
BRANCH   2   5
HETATM    5  N   UNL     1      27.672  42.697  50.285  1.00  0.00    -0.267 N 
HETATM    6  C   UNL     1      26.520  42.075  49.835  1.00  0.00     0.236 C 
HETATM    7  O   UNL     1      25.469  42.098  50.466  1.00  0.00    -0.272 OA
HETATM    8  H   UNL     1      28.466  42.876  49.674  1.00  0.00     0.190 HD
BRANCH   6   9
HETATM    9  C   UNL     1      26.733  41.367  48.505  1.00  0.00     0.114 C 
BRANCH   9  10
HETATM   10  C   UNL     1      27.242  39.909  48.548  1.00  0.00    -0.031 C 
HETATM   11  C   UNL     1      26.588  39.098  49.696  1.00  0.00     0.014 C 
HETATM   12  C   UNL     1      27.068  37.636  49.671  1.00  0.00    -0.013 C 
HETATM   13  C   UNL     1      28.599  37.602  49.820  1.00  0.00     0.009 C 
HETATM   14  C   UNL     1      26.675  36.993  48.332  1.00  0.00     0.009 C 
HETATM   15  C   UNL     1      29.260  38.367  48.662  1.00  0.00    -0.013 C 
HETATM   16  C   UNL     1      28.785  39.831  48.683  1.00  0.00     0.014 C 
HETATM   17  C   UNL     1      28.855  37.721  47.329  1.00  0.00     0.009 C 
HETATM   18  C   UNL     1      27.327  37.761  47.172  1.00  0.00    -0.013 C 
HETATM   19  C   UNL     1      26.854  39.223  47.205  1.00  0.00     0.014 C 
ENDBRANCH   9  10
ENDBRANCH   6   9
ENDBRANCH   2   5
BRANCH   1  20
HETATM   20  C   UNL     1      28.244  44.184  53.609  1.00  0.00     0.158 A 
HETATM   21  C   UNL     1      29.124  44.320  54.724  1.00  0.00     0.029 A 
HETATM   22  C   UNL     1      30.240  43.622  55.229  1.00  0.00     0.023 A 
HETATM   23  C   UNL     1      28.673  45.443  55.406  1.00  0.00     0.063 A 
HETATM   24  C   UNL     1      30.873  44.081  56.397  1.00  0.00    -0.061 A 
HETATM   25  C   UNL     1      32.050  43.340  56.964  1.00  0.00     0.048 C 
HETATM   26  C   UNL     1      30.378  45.212  57.060  1.00  0.00     0.009 A 
HETATM   27  C   UNL     1      29.270  45.919  56.576  1.00  0.00     0.032 A 
HETATM   28  N   UNL     1      27.601  45.895  54.689  1.00  0.00    -0.277 N 
HETATM   29  H   UNL     1      27.021  46.701  54.894  1.00  0.00     0.189 HD
HETATM   30  N   UNL     1      27.312  45.161  53.601  1.00  0.00    -0.168 NA
ENDBRANCH   1  20
TORSDOF 4
ENDMDL
MODEL 5
REMARK VINA RESULT:      -8.8      1.682      2.418
REMARK  4 active torsions:
REMARK  status: ('A' for Active; 'I' for Inactive)
REMARK    1  A    between atoms: C_9  and  C_10 
REMARK       I    between atoms: C_10  and  N_11 
REMARK    2  A    between atoms: N_11  and  N_12 
REMARK       I    between atoms: N_12  and  C_13 
REMARK    3  A    between atoms: C_13  and  C_14 
REMARK    4  A    between atoms: C_14  and  C_15 
ROOT
HETATM    1  C   UNL     1      24.019  46.820  49.922  1.00  0.00     0.291 C 
HETATM    2  N   UNL     1      23.463  48.072  50.109  1.00  0.00    -0.262 N 
HETATM    3  O   UNL     1      23.712  46.096  48.974  1.00  0.00    -0.264 OA
HETATM    4  H   UNL     1      23.862  48.696  50.814  1.00  0.00     0.190 HD
ENDROOT
BRANCH   2   5
HETATM    5  N   UNL     1      22.650  48.622  49.114  1.00  0.00    -0.267 N 
HETATM    6  C   UNL     1      22.365  49.975  49.185  1.00  0.00     0.236 C 
HETATM    7  O   UNL     1      22.688  50.667  50.145  1.00  0.00    -0.272 OA
HETATM    8  H   UNL     1      22.593  48.101  48.241  1.00  0.00     0.190 HD
BRANCH   6   9
HETATM    9  C   UNL     1      21.607  50.468  47.961  1.00  0.00     0.114 C 
BRANCH   9  10
HETATM   10  C   UNL     1      20.085  50.688  48.107  1.00  0.00    -0.031 C 
HETATM   11  C   UNL     1      19.480  49.830  49.248  1.00  0.00     0.014 C 
HETATM   12  C   UNL     1      17.977  50.120  49.409  1.00  0.00    -0.013 C 
HETATM   13  C   UNL     1      17.256  49.807  48.087  1.00  0.00     0.009 C 
HETATM   14  C   UNL     1      17.779  51.605  49.755  1.00  0.00     0.009 C 
HETATM   15  C   UNL     1      17.818  50.684  46.957  1.00  0.00    -0.013 C 
HETATM   16  C   UNL     1      19.321  50.397  46.790  1.00  0.00     0.014 C 
HETATM   17  C   UNL     1      17.621  52.164  47.316  1.00  0.00     0.009 C 
HETATM   18  C   UNL     1      18.349  52.485  48.632  1.00  0.00    -0.013 C 
HETATM   19  C   UNL     1      19.847  52.185  48.466  1.00  0.00     0.014 C 
ENDBRANCH   9  10
ENDBRANCH   6   9
ENDBRANCH   2   5
BRANCH   1  20
HETATM   20  C   UNL     1      25.002  46.460  50.952  1.00  0.00     0.158 A 
HETATM   21  C   UNL     1      25.554  45.170  51.211  1.00  0.00     0.029 A 
HETATM   22  C   UNL     1      25.413  43.876  50.669  1.00  0.00     0.023 A 
HETATM   23  C   UNL     1      26.425  45.356  52.277  1.00  0.00     0.063 A 
HETATM   24  C   UNL     1      26.158  42.814  51.210  1.00  0.00    -0.061 A 
HETATM   25  C   UNL     1      26.005  41.424  50.661  1.00  0.00     0.048 C 
HETATM   26  C   UNL     1      27.016  43.044  52.292  1.00  0.00     0.009 A 
HETATM   27  C   UNL     1      27.170  44.321  52.847  1.00  0.00     0.032 A 
HETATM   28  N   UNL     1      26.349  46.688  52.577  1.00  0.00    -0.277 N 
HETATM   29  H   UNL     1      26.852  47.183  53.305  1.00  0.00     0.189 HD
HETATM   30  N   UNL     1      25.503  47.384  51.800  1.00  0.00    -0.168 NA
ENDBRANCH   1  20
TORSDOF 4
ENDMDL
MODEL 6
REMARK VINA RESULT:      -8.7     20.544     22.615
REMARK  4 active torsions:
REMARK  status: ('A' for Active; 'I' for Inactive)
REMARK    1  A    between atoms: C_9  and  C_10 
REMARK       I    between atoms: C_10  and  N_11 
REMARK    2  A    between atoms: N_11  and  N_12 
REMARK       I    between atoms: N_12  and  C_13 
REMARK    3  A    between atoms: C_13  and  C_14 
REMARK    4  A    between atoms: C_14  and  C_15 
ROOT
HETATM    1  C   UNL     1      38.866  42.365  62.977  1.00  0.00     0.291 C 
HETATM    2  N   UNL     1      37.510  42.478  63.221  1.00  0.00    -0.262 N 
HETATM    3  O   UNL     1      39.570  43.336  62.699  1.00  0.00    -0.264 OA
HETATM    4  H   UNL     1      37.001  41.676  63.601  1.00  0.00     0.190 HD
ENDROOT
BRANCH   2   5
HETATM    5  N   UNL     1      36.930  43.745  63.324  1.00  0.00    -0.267 N 
HETATM    6  C   UNL     1      36.725  44.263  64.592  1.00  0.00     0.236 C 
HETATM    7  O   UNL     1      36.911  43.605  65.610  1.00  0.00    -0.272 OA
HETATM    8  H   UNL     1      37.000  44.340  62.500  1.00  0.00     0.190 HD
BRANCH   6   9
HETATM    9  C   UNL     1      36.237  45.704  64.552  1.00  0.00     0.114 C 
BRANCH   9  10
HETATM   10  C   UNL     1      37.168  46.788  65.140  1.00  0.00    -0.031 C 
HETATM   11  C   UNL     1      38.665  46.429  64.957  1.00  0.00     0.014 C 
HETATM   12  C   UNL     1      39.564  47.557  65.495  1.00  0.00    -0.013 C 
HETATM   13  C   UNL     1      39.262  47.779  66.987  1.00  0.00     0.009 C 
HETATM   14  C   UNL     1      39.274  48.853  64.721  1.00  0.00     0.009 C 
HETATM   15  C   UNL     1      37.789  48.178  67.175  1.00  0.00    -0.013 C 
HETATM   16  C   UNL     1      36.886  47.053  66.641  1.00  0.00     0.014 C 
HETATM   17  C   UNL     1      37.509  49.469  66.392  1.00  0.00     0.009 C 
HETATM   18  C   UNL     1      37.800  49.249  64.899  1.00  0.00    -0.013 C 
HETATM   19  C   UNL     1      36.905  48.117  64.371  1.00  0.00     0.014 C 
ENDBRANCH   9  10
ENDBRANCH   6   9
ENDBRANCH   2   5
BRANCH   1  20
HETATM   20  C   UNL     1      39.366  40.989  63.094  1.00  0.00     0.158 A 
HETATM   21  C   UNL     1      39.960  40.376  64.237  1.00  0.00     0.029 A 
HETATM   22  C   UNL     1      40.276  40.770  65.553  1.00  0.00     0.023 A 
HETATM   23  C   UNL     1      40.261  39.080  63.837  1.00  0.00     0.063 A 
HETATM   24  C   UNL     1      40.876  39.847  66.427  1.00  0.00    -0.061 A 
HETATM   25  C   UNL     1      41.241  40.254  67.826  1.00  0.00     0.048 C 
HETATM   26  C   UNL     1      41.174  38.554  65.978  1.00  0.00     0.009 A 
HETATM   27  C   UNL     1      40.869  38.142  64.675  1.00  0.00     0.032 A 
HETATM   28  N   UNL     1      39.845  38.997  62.538  1.00  0.00    -0.277 N 
HETATM   29  H   UNL     1      39.907  38.193  61.923  1.00  0.00     0.189 HD
HETATM   30  N   UNL     1      39.300  40.127  62.056  1.00  0.00    -0.168 NA
ENDBRANCH   1  20
TORSDOF 4
ENDMDL
MODEL 7
REMARK VINA RESULT:      -8.6      2.041      3.168
REMARK  4 active torsions:
REMARK  status: ('A' for Active; 'I' for Inactive)
REMARK    1  A    between atoms: C_9  and  C_10 
REMARK       I    between atoms: C_10  and  N_11 
REMARK    2  A    between atoms: N_11  and  N_12 
REMARK       I    between atoms: N_12  and  C_13 
REMARK    3  A    between atoms: C_13  and  C_14 
REMARK    4  A    between atoms: C_14  and  C_15 
ROOT
HETATM    1  C   UNL     1      24.503  45.808  50.707  1.00  0.00     0.291 C 
HETATM    2  N   UNL     1      24.075  47.122  50.716  1.00  0.00    -0.262 N 
HETATM    3  O   UNL     1      23.998  44.954  49.978  1.00  0.00    -0.264 OA
HETATM    4  H   UNL     1      24.625  47.824  51.217  1.00  0.00     0.190 HD
ENDROOT
BRANCH   2   5
HETATM    5  N   UNL     1      23.154  47.555  49.757  1.00  0.00    -0.267 N 
HETATM    6  C   UNL     1      23.404  48.757  49.116  1.00  0.00     0.236 C 
HETATM    7  O   UNL     1      24.319  49.503  49.448  1.00  0.00    -0.272 OA
HETATM    8  H   UNL     1      22.557  46.838  49.351  1.00  0.00     0.190 HD
BRANCH   6   9
HETATM    9  C   UNL     1      22.412  49.026  47.994  1.00  0.00     0.114 C 
BRANCH   9  10
HETATM   10  C   UNL     1      21.092  49.736  48.365  1.00  0.00    -0.031 C 
HETATM   11  C   UNL     1      20.459  50.460  47.148  1.00  0.00     0.014 C 
HETATM   12  C   UNL     1      19.115  51.103  47.536  1.00  0.00    -0.013 C 
HETATM   13  C   UNL     1      19.345  52.110  48.677  1.00  0.00     0.009 C 
HETATM   14  C   UNL     1      18.146  50.009  48.013  1.00  0.00     0.009 C 
HETATM   15  C   UNL     1      19.932  51.394  49.904  1.00  0.00    -0.013 C 
HETATM   16  C   UNL     1      21.277  50.751  49.522  1.00  0.00     0.014 C 
HETATM   17  C   UNL     1      18.959  50.300  50.367  1.00  0.00     0.009 C 
HETATM   18  C   UNL     1      18.734  49.286  49.234  1.00  0.00    -0.013 C 
HETATM   19  C   UNL     1      20.081  48.654  48.847  1.00  0.00     0.014 C 
ENDBRANCH   9  10
ENDBRANCH   6   9
ENDBRANCH   2   5
BRANCH   1  20
HETATM   20  C   UNL     1      25.610  45.550  51.636  1.00  0.00     0.158 A 
HETATM   21  C   UNL     1      26.492  44.428  51.645  1.00  0.00     0.029 A 
HETATM   22  C   UNL     1      26.656  43.258  50.876  1.00  0.00     0.023 A 
HETATM   23  C   UNL     1      27.352  44.652  52.713  1.00  0.00     0.063 A 
HETATM   24  C   UNL     1      27.684  42.355  51.200  1.00  0.00    -0.061 A 
HETATM   25  C   UNL     1      27.861  41.092  50.408  1.00  0.00     0.048 C 
HETATM   26  C   UNL     1      28.521  42.615  52.293  1.00  0.00     0.009 A 
HETATM   27  C   UNL     1      28.375  43.770  53.070  1.00  0.00     0.032 A 
HETATM   28  N   UNL     1      26.954  45.843  53.254  1.00  0.00    -0.277 N 
HETATM   29  H   UNL     1      27.357  46.320  54.052  1.00  0.00     0.189 HD
HETATM   30  N   UNL     1      25.908  46.413  52.632  1.00  0.00    -0.168 NA
ENDBRANCH   1  20
TORSDOF 4
ENDMDL
MODEL 8
REMARK VINA RESULT:      -8.5      1.845      2.451
REMARK  4 active torsions:
REMARK  status: ('A' for Active; 'I' for Inactive)
REMARK    1  A    between atoms: C_9  and  C_10 
REMARK       I    between atoms: C_10  and  N_11 
REMARK    2  A    between atoms: N_11  and  N_12 
REMARK       I    between atoms: N_12  and  C_13 
REMARK    3  A    between atoms: C_13  and  C_14 
REMARK    4  A    between atoms: C_14  and  C_15 
ROOT
HETATM    1  C   UNL     1      24.734  46.229  50.507  1.00  0.00     0.291 C 
HETATM    2  N   UNL     1      23.621  46.703  49.837  1.00  0.00    -0.262 N 
HETATM    3  O   UNL     1      25.530  46.976  51.074  1.00  0.00    -0.264 OA
HETATM    4  H   UNL     1      22.909  46.041  49.519  1.00  0.00     0.190 HD
ENDROOT
BRANCH   2   5
HETATM    5  N   UNL     1      23.279  48.054  49.935  1.00  0.00    -0.267 N 
HETATM    6  C   UNL     1      22.801  48.686  48.799  1.00  0.00     0.236 C 
HETATM    7  O   UNL     1      22.791  48.144  47.699  1.00  0.00    -0.272 OA
HETATM    8  H   UNL     1      23.082  48.401  50.872  1.00  0.00     0.190 HD
BRANCH   6   9
HETATM    9  C   UNL     1      22.323  50.101  49.087  1.00  0.00     0.114 C 
BRANCH   9  10
HETATM   10  C   UNL     1      20.816  50.393  48.913  1.00  0.00    -0.031 C 
HETATM   11  C   UNL     1      20.148  49.421  47.907  1.00  0.00     0.014 C 
HETATM   12  C   UNL     1      18.637  49.697  47.804  1.00  0.00    -0.013 C 
HETATM   13  C   UNL     1      18.417  51.149  47.347  1.00  0.00     0.009 C 
HETATM   14  C   UNL     1      17.988  49.496  49.183  1.00  0.00     0.009 C 
HETATM   15  C   UNL     1      19.038  52.124  48.361  1.00  0.00    -0.013 C 
HETATM   16  C   UNL     1      20.549  51.853  48.466  1.00  0.00     0.014 C 
HETATM   17  C   UNL     1      18.387  51.909  49.735  1.00  0.00     0.009 C 
HETATM   18  C   UNL     1      18.613  50.462  50.201  1.00  0.00    -0.013 C 
HETATM   19  C   UNL     1      20.123  50.191  50.293  1.00  0.00     0.014 C 
ENDBRANCH   9  10
ENDBRANCH   6   9
ENDBRANCH   2   5
BRANCH   1  20
HETATM   20  C   UNL     1      24.853  44.766  50.475  1.00  0.00     0.158 A 
HETATM   21  C   UNL     1      25.935  43.973  50.960  1.00  0.00     0.029 A 
HETATM   22  C   UNL     1      27.174  44.218  51.586  1.00  0.00     0.023 A 
HETATM   23  C   UNL     1      25.569  42.660  50.695  1.00  0.00     0.063 A 
HETATM   24  C   UNL     1      28.001  43.135  51.933  1.00  0.00    -0.061 A 
HETATM   25  C   UNL     1      29.335  43.377  52.581  1.00  0.00     0.048 C 
HETATM   26  C   UNL     1      27.598  41.827  51.636  1.00  0.00     0.009 A 
HETATM   27  C   UNL     1      26.372  41.561  51.014  1.00  0.00     0.032 A 
HETATM   28  N   UNL     1      24.343  42.740  50.097  1.00  0.00    -0.277 N 
HETATM   29  H   UNL     1      23.770  41.972  49.765  1.00  0.00     0.189 HD
HETATM   30  N   UNL     1      23.879  43.992  49.948  1.00  0.00    -0.168 NA
ENDBRANCH   1  20
TORSDOF 4
ENDMDL
MODEL 9
REMARK VINA RESULT:      -8.5      1.484      9.235
REMARK  4 active torsions:
REMARK  status: ('A' for Active; 'I' for Inactive)
REMARK    1  A    between atoms: C_9  and  C_10 
REMARK       I    between atoms: C_10  and  N_11 
REMARK    2  A    between atoms: N_11  and  N_12 
REMARK       I    between atoms: N_12  and  C_13 
REMARK    3  A    between atoms: C_13  and  C_14 
REMARK    4  A    between atoms: C_14  and  C_15 
ROOT
HETATM    1  C   UNL     1      23.375  47.803  49.121  1.00  0.00     0.291 C 
HETATM    2  N   UNL     1      24.413  47.697  50.027  1.00  0.00    -0.262 N 
HETATM    3  O   UNL     1      22.968  46.842  48.468  1.00  0.00    -0.264 OA
HETATM    4  H   UNL     1      24.609  48.479  50.657  1.00  0.00     0.190 HD
ENDROOT
BRANCH   2   5
HETATM    5  N   UNL     1      24.922  46.437  50.351  1.00  0.00    -0.267 N 
HETATM    6  C   UNL     1      26.230  46.155  49.993  1.00  0.00     0.236 C 
HETATM    7  O   UNL     1      26.901  46.911  49.299  1.00  0.00    -0.272 OA
HETATM    8  H   UNL     1      24.446  45.939  51.100  1.00  0.00     0.190 HD
BRANCH   6   9
HETATM    9  C   UNL     1      26.700  44.816  50.544  1.00  0.00     0.114 C 
BRANCH   9  10
HETATM   10  C   UNL     1      26.832  44.683  52.077  1.00  0.00    -0.031 C 
HETATM   11  C   UNL     1      28.096  43.883  52.484  1.00  0.00     0.014 C 
HETATM   12  C   UNL     1      28.232  43.823  54.016  1.00  0.00    -0.013 C 
HETATM   13  C   UNL     1      26.981  43.154  54.611  1.00  0.00     0.009 C 
HETATM   14  C   UNL     1      28.356  45.251  54.572  1.00  0.00     0.009 C 
HETATM   15  C   UNL     1      25.726  43.964  54.249  1.00  0.00    -0.013 C 
HETATM   16  C   UNL     1      25.583  44.025  52.718  1.00  0.00     0.014 C 
HETATM   17  C   UNL     1      25.863  45.389  54.804  1.00  0.00     0.009 C 
HETATM   18  C   UNL     1      27.106  46.066  54.205  1.00  0.00    -0.013 C 
HETATM   19  C   UNL     1      26.967  46.115  52.675  1.00  0.00     0.014 C 
ENDBRANCH   9  10
ENDBRANCH   6   9
ENDBRANCH   2   5
BRANCH   1  20
HETATM   20  C   UNL     1      22.815  49.158  49.032  1.00  0.00     0.158 A 
HETATM   21  C   UNL     1      21.438  49.524  48.951  1.00  0.00     0.029 A 
HETATM   22  C   UNL     1      20.205  48.842  48.926  1.00  0.00     0.023 A 
HETATM   23  C   UNL     1      21.436  50.911  48.882  1.00  0.00     0.063 A 
HETATM   24  C   UNL     1      19.009  49.576  48.842  1.00  0.00    -0.061 A 
HETATM   25  C   UNL     1      17.686  48.868  48.792  1.00  0.00     0.048 C 
HETATM   26  C   UNL     1      19.054  50.974  48.763  1.00  0.00     0.009 A 
HETATM   27  C   UNL     1      20.268  51.671  48.785  1.00  0.00     0.032 A 
HETATM   28  N   UNL     1      22.752  51.277  48.927  1.00  0.00    -0.277 N 
HETATM   29  H   UNL     1      23.130  52.218  48.899  1.00  0.00     0.189 HD
HETATM   30  N   UNL     1      23.612  50.248  49.018  1.00  0.00    -0.168 NA
ENDBRANCH   1  20
TORSDOF 4
ENDMDL
MODEL 10
REMARK VINA RESULT:      -8.4      3.136      4.377
REMARK  4 active torsions:
REMARK  status: ('A' for Active; 'I' for Inactive)
REMARK    1  A    between atoms: C_9  and  C_10 
REMARK       I    between atoms: C_10  and  N_11 
REMARK    2  A    between atoms: N_11  and  N_12 
REMARK       I    between atoms: N_12  and  C_13 
REMARK    3  A    between atoms: C_13  and  C_14 
REMARK    4  A    between atoms: C_14  and  C_15 
ROOT
HETATM    1  C   UNL     1      22.575  44.132  49.316  1.00  0.00     0.291 C 
HETATM    2  N   UNL     1      22.541  45.496  49.539  1.00  0.00    -0.262 N 
HETATM    3  O   UNL     1      21.793  43.568  48.551  1.00  0.00    -0.264 OA
HETATM    4  H   UNL     1      23.305  45.938  50.055  1.00  0.00     0.190 HD
ENDROOT
BRANCH   2   5
HETATM    5  N   UNL     1      21.710  46.303  48.756  1.00  0.00    -0.267 N 
HETATM    6  C   UNL     1      22.059  47.633  48.600  1.00  0.00     0.236 C 
HETATM    7  O   UNL     1      22.982  48.150  49.221  1.00  0.00    -0.272 OA
HETATM    8  H   UNL     1      21.110  45.818  48.091  1.00  0.00     0.190 HD
BRANCH   6   9
HETATM    9  C   UNL     1      21.160  48.350  47.603  1.00  0.00     0.114 C 
BRANCH   9  10
HETATM   10  C   UNL     1      20.217  49.443  48.151  1.00  0.00    -0.031 C 
HETATM   11  C   UNL     1      20.887  50.841  48.154  1.00  0.00     0.014 C 
HETATM   12  C   UNL     1      19.900  51.916  48.645  1.00  0.00    -0.013 C 
HETATM   13  C   UNL     1      19.431  51.563  50.067  1.00  0.00     0.009 C 
HETATM   14  C   UNL     1      18.684  51.958  47.706  1.00  0.00     0.009 C 
HETATM   15  C   UNL     1      18.727  50.197  50.067  1.00  0.00    -0.013 C 
HETATM   16  C   UNL     1      19.709  49.117  49.579  1.00  0.00     0.014 C 
HETATM   17  C   UNL     1      17.518  50.248  49.121  1.00  0.00     0.009 C 
HETATM   18  C   UNL     1      17.982  50.591  47.697  1.00  0.00    -0.013 C 
HETATM   19  C   UNL     1      18.973  49.518  47.216  1.00  0.00     0.014 C 
ENDBRANCH   9  10
ENDBRANCH   6   9
ENDBRANCH   2   5
BRANCH   1  20
HETATM   20  C   UNL     1      23.632  43.446  50.070  1.00  0.00     0.158 A 
HETATM   21  C   UNL     1      24.419  42.334  49.645  1.00  0.00     0.029 A 
HETATM   22  C   UNL     1      24.507  41.534  48.487  1.00  0.00     0.023 A 
HETATM   23  C   UNL     1      25.265  42.060  50.712  1.00  0.00     0.063 A 
HETATM   24  C   UNL     1      25.448  40.492  48.436  1.00  0.00    -0.061 A 
HETATM   25  C   UNL     1      25.543  39.614  47.221  1.00  0.00     0.048 C 
HETATM   26  C   UNL     1      26.274  40.243  49.540  1.00  0.00     0.009 A 
HETATM   27  C   UNL     1      26.203  41.024  50.700  1.00  0.00     0.032 A 
HETATM   28  N   UNL     1      24.951  42.985  51.669  1.00  0.00    -0.277 N 
HETATM   29  H   UNL     1      25.371  43.086  52.586  1.00  0.00     0.189 HD
HETATM   30  N   UNL     1      23.973  43.836  51.318  1.00  0.00    -0.168 NA
ENDBRANCH   1  20
TORSDOF 4
ENDMDL
