MODEL 1
REMARK VINA RESULT:      -9.6      0.000      0.000
REMARK  8 active torsions:
REMARK  status: ('A' for Active; 'I' for Inactive)
REMARK    1  A    between atoms: C_2  and  C_3 
REMARK    2  A    between atoms: C_3  and  N_4 
REMARK    3  A    between atoms: N_4  and  C_6 
REMARK    4  A    between atoms: N_4  and  C_23 
REMARK    5  A    between atoms: C_6  and  C_7 
REMARK       I    between atoms: C_7  and  N_8 
REMARK    6  A    between atoms: N_8  and  C_9 
REMARK    7  A    between atoms: C_23  and  C_24 
REMARK       I    between atoms: C_24  and  N_25 
REMARK    8  A    between atoms: N_25  and  C_26 
ROOT
HETATM    1  N   UNL     1      25.488  45.608  52.172  1.00  0.00    -0.055 N 
HETATM    2  H   UNL     1      26.502  45.439  52.079  1.00  0.00     0.281 HD
ENDROOT
BRANCH   1   3
HETATM    3  C   UNL     1      24.779  44.488  51.444  1.00  0.00     0.235 C 
BRANCH   3   4
HETATM    4  C   UNL     1      25.683  43.291  51.154  1.00  0.00     0.023 C 
HETATM    5  C   UNL     1      27.159  43.641  51.050  1.00  0.00     0.007 C 
ENDBRANCH   3   4
ENDBRANCH   1   3
BRANCH   1   6
HETATM    6  C   UNL     1      25.191  47.015  51.608  1.00  0.00     0.338 C 
BRANCH   6   7
HETATM    7  C   UNL     1      25.857  47.265  50.242  1.00  0.00     0.249 C 
HETATM    8  N   UNL     1      25.298  48.027  49.273  1.00  0.00    -0.304 N 
HETATM    9  H   UNL     1      25.864  48.203  48.450  1.00  0.00     0.171 HD
HETATM   10  O   UNL     1      26.994  46.817  50.037  1.00  0.00    -0.271 OA
BRANCH   8  11
HETATM   11  C   UNL     1      24.025  48.505  49.244  1.00  0.00     0.174 A 
HETATM   12  S   UNL     1      22.864  47.351  48.795  1.00  0.00    -0.050 SA
HETATM   13  C   UNL     1      21.633  48.543  48.967  1.00  0.00     0.040 A 
HETATM   14  C   UNL     1      22.219  49.742  49.389  1.00  0.00     0.079 A 
HETATM   15  C   UNL     1      20.252  48.419  48.750  1.00  0.00     0.061 A 
HETATM   16  N   UNL     1      23.606  49.710  49.517  1.00  0.00    -0.223 NA
HETATM   17  C   UNL     1      21.385  50.849  49.645  1.00  0.00     0.072 A 
HETATM   18  C   UNL     1      20.004  50.724  49.467  1.00  0.00     0.104 A 
HETATM   19  C   UNL     1      19.451  49.534  48.994  1.00  0.00     0.103 A 
HETATM   20  O   UNL     1      19.248  51.826  49.779  1.00  0.00    -0.346 OA
HETATM   21  O   UNL     1      18.109  49.370  48.757  1.00  0.00    -0.346 OA
HETATM   22  C   UNL     1      17.414  50.623  48.746  1.00  0.00     0.202 C 
HETATM   23  C   UNL     1      17.860  51.489  49.912  1.00  0.00     0.202 C 
ENDBRANCH   8  11
ENDBRANCH   6   7
ENDBRANCH   1   6
BRANCH   1  24
HETATM   24  C   UNL     1      25.243  45.526  53.692  1.00  0.00     0.338 C 
BRANCH  24  25
HETATM   25  C   UNL     1      26.330  44.701  54.391  1.00  0.00     0.248 C 
HETATM   26  N   UNL     1      27.578  45.285  54.351  1.00  0.00    -0.323 N 
HETATM   27  H   UNL     1      27.688  46.181  53.878  1.00  0.00     0.169 HD
HETATM   28  O   UNL     1      26.011  43.656  54.953  1.00  0.00    -0.271 OA
BRANCH  26  29
HETATM   29  C   UNL     1      28.772  44.817  54.948  1.00  0.00     0.077 A 
HETATM   30  C   UNL     1      29.260  45.558  56.036  1.00  0.00     0.184 A 
HETATM   31  F   UNL     1      28.573  46.640  56.438  1.00  0.00    -0.200 F 
HETATM   32  C   UNL     1      30.417  45.183  56.705  1.00  0.00     0.195 A 
HETATM   33  F   UNL     1      30.851  45.901  57.750  1.00  0.00    -0.199 F 
HETATM   34  C   UNL     1      31.110  44.060  56.286  1.00  0.00     0.158 A 
HETATM   35  F   UNL     1      32.228  43.682  56.917  1.00  0.00    -0.203 F 
HETATM   36  C   UNL     1      30.651  43.311  55.204  1.00  0.00     0.048 A 
HETATM   37  C   UNL     1      29.479  43.687  54.533  1.00  0.00     0.036 A 
ENDBRANCH  26  29
ENDBRANCH  24  25
ENDBRANCH   1  24
TORSDOF 8
ENDMDL
MODEL 2
REMARK VINA RESULT:      -9.4      4.545     10.919
REMARK  8 active torsions:
REMARK  status: ('A' for Active; 'I' for Inactive)
REMARK    1  A    between atoms: C_2  and  C_3 
REMARK    2  A    between atoms: C_3  and  N_4 
REMARK    3  A    between atoms: N_4  and  C_6 
REMARK    4  A    between atoms: N_4  and  C_23 
REMARK    5  A    between atoms: C_6  and  C_7 
REMARK       I    between atoms: C_7  and  N_8 
REMARK    6  A    between atoms: N_8  and  C_9 
REMARK    7  A    between atoms: C_23  and  C_24 
REMARK       I    between atoms: C_24  and  N_25 
REMARK    8  A    between atoms: N_25  and  C_26 
ROOT
HETATM    1  N   UNL     1      25.437  47.262  49.493  1.00  0.00    -0.055 N 
HETATM    2  H   UNL     1      25.403  47.619  48.525  1.00  0.00     0.281 HD
ENDROOT
BRANCH   1   3
HETATM    3  C   UNL     1      26.634  47.900  50.163  1.00  0.00     0.235 C 
BRANCH   3   4
HETATM    4  C   UNL     1      27.542  48.648  49.189  1.00  0.00     0.023 C 
HETATM    5  C   UNL     1      26.891  49.860  48.541  1.00  0.00     0.007 C 
ENDBRANCH   3   4
ENDBRANCH   1   3
BRANCH   1   6
HETATM    6  C   UNL     1      25.500  45.720  49.425  1.00  0.00     0.338 C 
BRANCH   6   7
HETATM    7  C   UNL     1      24.328  45.041  50.159  1.00  0.00     0.249 C 
HETATM    8  N   UNL     1      24.388  44.660  51.457  1.00  0.00    -0.304 N 
HETATM    9  H   UNL     1      23.530  44.309  51.868  1.00  0.00     0.171 HD
HETATM   10  O   UNL     1      23.248  44.902  49.569  1.00  0.00    -0.271 OA
BRANCH   8  11
HETATM   11  C   UNL     1      25.498  44.610  52.243  1.00  0.00     0.174 A 
HETATM   12  S   UNL     1      25.639  45.913  53.322  1.00  0.00    -0.050 SA
HETATM   13  C   UNL     1      27.108  45.243  53.917  1.00  0.00     0.040 A 
HETATM   14  C   UNL     1      27.362  44.040  53.248  1.00  0.00     0.079 A 
HETATM   15  C   UNL     1      27.966  45.744  54.908  1.00  0.00     0.061 A 
HETATM   16  N   UNL     1      26.435  43.703  52.263  1.00  0.00    -0.223 NA
HETATM   17  C   UNL     1      28.496  43.287  53.615  1.00  0.00     0.072 A 
HETATM   18  C   UNL     1      29.336  43.761  54.627  1.00  0.00     0.104 A 
HETATM   19  C   UNL     1      29.091  44.989  55.240  1.00  0.00     0.103 A 
HETATM   20  O   UNL     1      30.395  42.956  54.964  1.00  0.00    -0.346 OA
HETATM   21  O   UNL     1      29.908  45.524  56.205  1.00  0.00    -0.346 OA
HETATM   22  C   UNL     1      31.168  44.847  56.271  1.00  0.00     0.202 C 
HETATM   23  C   UNL     1      30.966  43.342  56.223  1.00  0.00     0.202 C 
ENDBRANCH   8  11
ENDBRANCH   6   7
ENDBRANCH   1   6
BRANCH   1  24
HETATM   24  C   UNL     1      24.118  47.765  50.113  1.00  0.00     0.338 C 
BRANCH  24  25
HETATM   25  C   UNL     1      23.229  48.443  49.065  1.00  0.00     0.248 C 
HETATM   26  N   UNL     1      21.926  48.619  49.477  1.00  0.00    -0.323 N 
HETATM   27  H   UNL     1      21.654  48.297  50.405  1.00  0.00     0.169 HD
HETATM   28  O   UNL     1      23.734  48.809  48.006  1.00  0.00    -0.271 OA
BRANCH  26  29
HETATM   29  C   UNL     1      20.876  49.261  48.779  1.00  0.00     0.077 A 
HETATM   30  C   UNL     1      20.790  50.655  48.922  1.00  0.00     0.184 A 
HETATM   31  F   UNL     1      21.695  51.281  49.693  1.00  0.00    -0.200 F 
HETATM   32  C   UNL     1      19.807  51.389  48.273  1.00  0.00     0.195 A 
HETATM   33  F   UNL     1      19.758  52.721  48.417  1.00  0.00    -0.199 F 
HETATM   34  C   UNL     1      18.887  50.733  47.474  1.00  0.00     0.158 A 
HETATM   35  F   UNL     1      17.930  51.422  46.839  1.00  0.00    -0.203 F 
HETATM   36  C   UNL     1      18.946  49.349  47.321  1.00  0.00     0.048 A 
HETATM   37  C   UNL     1      19.942  48.609  47.972  1.00  0.00     0.036 A 
ENDBRANCH  26  29
ENDBRANCH  24  25
ENDBRANCH   1  24
TORSDOF 8
ENDMDL
MODEL 3
REMARK VINA RESULT:      -9.1      4.814     10.581
REMARK  8 active torsions:
REMARK  status: ('A' for Active; 'I' for Inactive)
REMARK    1  A    between atoms: C_2  and  C_3 
REMARK    2  A    between atoms: C_3  and  N_4 
REMARK    3  A    between atoms: N_4  and  C_6 
REMARK    4  A    between atoms: N_4  and  C_23 
REMARK    5  A    between atoms: C_6  and  C_7 
REMARK       I    between atoms: C_7  and  N_8 
REMARK    6  A    between atoms: N_8  and  C_9 
REMARK    7  A    between atoms: C_23  and  C_24 
REMARK       I    between atoms: C_24  and  N_25 
REMARK    8  A    between atoms: N_25  and  C_26 
ROOT
HETATM    1  N   UNL     1      24.663  45.672  49.460  1.00  0.00    -0.055 N 
HETATM    2  H   UNL     1      24.967  46.357  48.751  1.00  0.00     0.281 HD
ENDROOT
BRANCH   1   3
HETATM    3  C   UNL     1      24.807  46.333  50.812  1.00  0.00     0.235 C 
BRANCH   3   4
HETATM    4  C   UNL     1      26.054  47.209  50.925  1.00  0.00     0.023 C 
HETATM    5  C   UNL     1      26.239  48.174  49.764  1.00  0.00     0.007 C 
ENDBRANCH   3   4
ENDBRANCH   1   3
BRANCH   1   6
HETATM    6  C   UNL     1      25.521  44.400  49.285  1.00  0.00     0.338 C 
BRANCH   6   7
HETATM    7  C   UNL     1      24.808  43.125  49.777  1.00  0.00     0.249 C 
HETATM    8  N   UNL     1      24.996  42.601  51.011  1.00  0.00    -0.304 N 
HETATM    9  H   UNL     1      24.406  41.816  51.265  1.00  0.00     0.171 HD
HETATM   10  O   UNL     1      23.963  42.590  49.047  1.00  0.00    -0.271 OA
BRANCH   8  11
HETATM   11  C   UNL     1      25.952  42.955  51.912  1.00  0.00     0.174 A 
HETATM   12  S   UNL     1      27.386  42.055  51.785  1.00  0.00    -0.050 SA
HETATM   13  C   UNL     1      28.053  42.963  53.087  1.00  0.00     0.040 A 
HETATM   14  C   UNL     1      27.116  43.917  53.501  1.00  0.00     0.079 A 
HETATM   15  C   UNL     1      29.315  42.842  53.689  1.00  0.00     0.061 A 
HETATM   16  N   UNL     1      25.896  43.880  52.830  1.00  0.00    -0.223 NA
HETATM   17  C   UNL     1      27.472  44.813  54.530  1.00  0.00     0.072 A 
HETATM   18  C   UNL     1      28.742  44.723  55.110  1.00  0.00     0.104 A 
HETATM   19  C   UNL     1      29.636  43.728  54.716  1.00  0.00     0.103 A 
HETATM   20  O   UNL     1      29.037  45.655  56.073  1.00  0.00    -0.346 OA
HETATM   21  O   UNL     1      30.876  43.564  55.283  1.00  0.00    -0.346 OA
HETATM   22  C   UNL     1      31.005  44.304  56.503  1.00  0.00     0.202 C 
HETATM   23  C   UNL     1      30.447  45.707  56.335  1.00  0.00     0.202 C 
ENDBRANCH   8  11
ENDBRANCH   6   7
ENDBRANCH   1   6
BRANCH   1  24
HETATM   24  C   UNL     1      23.180  45.426  49.115  1.00  0.00     0.338 C 
BRANCH  24  25
HETATM   25  C   UNL     1      22.540  46.666  48.480  1.00  0.00     0.248 C 
HETATM   26  N   UNL     1      22.262  47.668  49.385  1.00  0.00    -0.323 N 
HETATM   27  H   UNL     1      22.486  47.521  50.368  1.00  0.00     0.169 HD
HETATM   28  O   UNL     1      22.379  46.693  47.262  1.00  0.00    -0.271 OA
BRANCH  26  29
HETATM   29  C   UNL     1      21.731  48.952  49.118  1.00  0.00     0.077 A 
HETATM   30  C   UNL     1      20.344  49.100  49.271  1.00  0.00     0.184 A 
HETATM   31  F   UNL     1      19.621  48.036  49.660  1.00  0.00    -0.200 F 
HETATM   32  C   UNL     1      19.717  50.318  49.048  1.00  0.00     0.195 A 
HETATM   33  F   UNL     1      18.393  50.434  49.217  1.00  0.00    -0.199 F 
HETATM   34  C   UNL     1      20.475  51.409  48.658  1.00  0.00     0.158 A 
HETATM   35  F   UNL     1      19.891  52.594  48.437  1.00  0.00    -0.203 F 
HETATM   36  C   UNL     1      21.854  51.288  48.492  1.00  0.00     0.048 A 
HETATM   37  C   UNL     1      22.486  50.058  48.723  1.00  0.00     0.036 A 
ENDBRANCH  26  29
ENDBRANCH  24  25
ENDBRANCH   1  24
TORSDOF 8
ENDMDL
MODEL 4
REMARK VINA RESULT:      -9.0     12.025     14.813
REMARK  8 active torsions:
REMARK  status: ('A' for Active; 'I' for Inactive)
REMARK    1  A    between atoms: C_2  and  C_3 
REMARK    2  A    between atoms: C_3  and  N_4 
REMARK    3  A    between atoms: N_4  and  C_6 
REMARK    4  A    between atoms: N_4  and  C_23 
REMARK    5  A    between atoms: C_6  and  C_7 
REMARK       I    between atoms: C_7  and  N_8 
REMARK    6  A    between atoms: N_8  and  C_9 
REMARK    7  A    between atoms: C_23  and  C_24 
REMARK       I    between atoms: C_24  and  N_25 
REMARK    8  A    between atoms: N_25  and  C_26 
ROOT
HETATM    1  N   UNL     1      24.746  48.650  39.934  1.00  0.00    -0.055 N 
HETATM    2  H   UNL     1      25.125  49.489  40.401  1.00  0.00     0.281 HD
ENDROOT
BRANCH   1   3
HETATM    3  C   UNL     1      23.248  48.660  40.144  1.00  0.00     0.235 C 
BRANCH   3   4
HETATM    4  C   UNL     1      22.541  49.786  39.390  1.00  0.00     0.023 C 
HETATM    5  C   UNL     1      21.643  50.647  40.264  1.00  0.00     0.007 C 
ENDBRANCH   3   4
ENDBRANCH   1   3
BRANCH   1   6
HETATM    6  C   UNL     1      25.459  47.416  40.528  1.00  0.00     0.338 C 
BRANCH   6   7
HETATM    7  C   UNL     1      26.091  46.514  39.451  1.00  0.00     0.249 C 
HETATM    8  N   UNL     1      27.429  46.397  39.275  1.00  0.00    -0.304 N 
HETATM    9  H   UNL     1      27.739  45.705  38.602  1.00  0.00     0.171 HD
HETATM   10  O   UNL     1      25.355  45.797  38.759  1.00  0.00    -0.271 OA
BRANCH   8  11
HETATM   11  C   UNL     1      28.397  47.171  39.835  1.00  0.00     0.174 A 
HETATM   12  S   UNL     1      29.375  47.978  38.707  1.00  0.00    -0.050 SA
HETATM   13  C   UNL     1      30.262  48.684  40.002  1.00  0.00     0.040 A 
HETATM   14  C   UNL     1      29.709  48.258  41.216  1.00  0.00     0.079 A 
HETATM   15  C   UNL     1      31.361  49.555  39.944  1.00  0.00     0.061 A 
HETATM   16  N   UNL     1      28.649  47.361  41.101  1.00  0.00    -0.223 NA
HETATM   17  C   UNL     1      30.251  48.757  42.418  1.00  0.00     0.072 A 
HETATM   18  C   UNL     1      31.322  49.654  42.368  1.00  0.00     0.104 A 
HETATM   19  C   UNL     1      31.889  50.020  41.148  1.00  0.00     0.103 A 
HETATM   20  O   UNL     1      31.768  50.135  43.574  1.00  0.00    -0.346 OA
HETATM   21  O   UNL     1      32.970  50.860  41.043  1.00  0.00    -0.346 OA
HETATM   22  C   UNL     1      33.622  51.048  42.305  1.00  0.00     0.202 C 
HETATM   23  C   UNL     1      32.598  51.293  43.401  1.00  0.00     0.202 C 
ENDBRANCH   8  11
ENDBRANCH   6   7
ENDBRANCH   1   6
BRANCH   1  24
HETATM   24  C   UNL     1      25.101  48.869  38.449  1.00  0.00     0.338 C 
BRANCH  24  25
HETATM   25  C   UNL     1      26.264  49.855  38.291  1.00  0.00     0.248 C 
HETATM   26  N   UNL     1      26.596  50.509  39.458  1.00  0.00    -0.323 N 
HETATM   27  H   UNL     1      26.068  50.305  40.306  1.00  0.00     0.169 HD
HETATM   28  O   UNL     1      26.821  49.946  37.199  1.00  0.00    -0.271 OA
BRANCH  26  29
HETATM   29  C   UNL     1      27.651  51.429  39.666  1.00  0.00     0.077 A 
HETATM   30  C   UNL     1      28.127  51.548  40.981  1.00  0.00     0.184 A 
HETATM   31  F   UNL     1      27.567  50.793  41.941  1.00  0.00    -0.200 F 
HETATM   32  C   UNL     1      29.168  52.411  41.297  1.00  0.00     0.195 A 
HETATM   33  F   UNL     1      29.612  52.493  42.559  1.00  0.00    -0.199 F 
HETATM   34  C   UNL     1      29.743  53.176  40.297  1.00  0.00     0.158 A 
HETATM   35  F   UNL     1      30.747  54.015  40.581  1.00  0.00    -0.203 F 
HETATM   36  C   UNL     1      29.284  53.082  38.985  1.00  0.00     0.048 A 
HETATM   37  C   UNL     1      28.237  52.206  38.665  1.00  0.00     0.036 A 
ENDBRANCH  26  29
ENDBRANCH  24  25
ENDBRANCH   1  24
TORSDOF 8
ENDMDL
MODEL 5
REMARK VINA RESULT:      -8.5     12.912     15.812
REMARK  8 active torsions:
REMARK  status: ('A' for Active; 'I' for Inactive)
REMARK    1  A    between atoms: C_2  and  C_3 
REMARK    2  A    between atoms: C_3  and  N_4 
REMARK    3  A    between atoms: N_4  and  C_6 
REMARK    4  A    between atoms: N_4  and  C_23 
REMARK    5  A    between atoms: C_6  and  C_7 
REMARK       I    between atoms: C_7  and  N_8 
REMARK    6  A    between atoms: N_8  and  C_9 
REMARK    7  A    between atoms: C_23  and  C_24 
REMARK       I    between atoms: C_24  and  N_25 
REMARK    8  A    between atoms: N_25  and  C_26 
ROOT
HETATM    1  N   UNL     1      35.384  51.697  39.315  1.00  0.00    -0.055 N 
HETATM    2  H   UNL     1      35.147  51.283  38.399  1.00  0.00     0.281 HD
ENDROOT
BRANCH   1   3
HETATM    3  C   UNL     1      36.586  52.590  39.104  1.00  0.00     0.235 C 
BRANCH   3   4
HETATM    4  C   UNL     1      36.292  54.067  39.359  1.00  0.00     0.023 C 
HETATM    5  C   UNL     1      37.142  54.686  40.458  1.00  0.00     0.007 C 
ENDBRANCH   3   4
ENDBRANCH   1   3
BRANCH   1   6
HETATM    6  C   UNL     1      35.624  50.539  40.309  1.00  0.00     0.338 C 
BRANCH   6   7
HETATM    7  C   UNL     1      35.451  50.967  41.778  1.00  0.00     0.249 C 
HETATM    8  N   UNL     1      34.436  50.533  42.562  1.00  0.00    -0.304 N 
HETATM    9  H   UNL     1      34.471  50.801  43.540  1.00  0.00     0.171 HD
HETATM   10  O   UNL     1      36.318  51.679  42.303  1.00  0.00    -0.271 OA
BRANCH   8  11
HETATM   11  C   UNL     1      33.327  49.855  42.160  1.00  0.00     0.174 A 
HETATM   12  S   UNL     1      31.926  50.243  43.035  1.00  0.00    -0.050 SA
HETATM   13  C   UNL     1      31.033  49.129  42.072  1.00  0.00     0.040 A 
HETATM   14  C   UNL     1      31.892  48.561  41.124  1.00  0.00     0.079 A 
HETATM   15  C   UNL     1      29.673  48.791  42.149  1.00  0.00     0.061 A 
HETATM   16  N   UNL     1      33.221  48.971  41.207  1.00  0.00    -0.223 NA
HETATM   17  C   UNL     1      31.359  47.650  40.188  1.00  0.00     0.072 A 
HETATM   18  C   UNL     1      29.998  47.337  40.234  1.00  0.00     0.104 A 
HETATM   19  C   UNL     1      29.175  47.875  41.223  1.00  0.00     0.103 A 
HETATM   20  O   UNL     1      29.538  46.480  39.265  1.00  0.00    -0.346 OA
HETATM   21  O   UNL     1      27.843  47.565  41.344  1.00  0.00    -0.346 OA
HETATM   22  C   UNL     1      27.490  46.418  40.563  1.00  0.00     0.202 C 
HETATM   23  C   UNL     1      28.107  46.510  39.177  1.00  0.00     0.202 C 
ENDBRANCH   8  11
ENDBRANCH   6   7
ENDBRANCH   1   6
BRANCH   1  24
HETATM   24  C   UNL     1      34.133  52.524  39.675  1.00  0.00     0.338 C 
BRANCH  24  25
HETATM   25  C   UNL     1      32.859  51.887  39.111  1.00  0.00     0.248 C 
HETATM   26  N   UNL     1      31.758  52.039  39.926  1.00  0.00    -0.323 N 
HETATM   27  H   UNL     1      31.863  52.538  40.809  1.00  0.00     0.169 HD
HETATM   28  O   UNL     1      32.900  51.358  38.002  1.00  0.00    -0.271 OA
BRANCH  26  29
HETATM   29  C   UNL     1      30.429  51.626  39.673  1.00  0.00     0.077 A 
HETATM   30  C   UNL     1      29.442  52.124  40.539  1.00  0.00     0.184 A 
HETATM   31  F   UNL     1      29.814  52.951  41.531  1.00  0.00    -0.200 F 
HETATM   32  C   UNL     1      28.104  51.794  40.377  1.00  0.00     0.195 A 
HETATM   33  F   UNL     1      27.183  52.297  41.210  1.00  0.00    -0.199 F 
HETATM   34  C   UNL     1      27.734  50.949  39.345  1.00  0.00     0.158 A 
HETATM   35  F   UNL     1      26.448  50.618  39.171  1.00  0.00    -0.203 F 
HETATM   36  C   UNL     1      28.694  50.435  38.475  1.00  0.00     0.048 A 
HETATM   37  C   UNL     1      30.044  50.773  38.636  1.00  0.00     0.036 A 
ENDBRANCH  26  29
ENDBRANCH  24  25
ENDBRANCH   1  24
TORSDOF 8
ENDMDL
MODEL 6
REMARK VINA RESULT:      -8.4     12.759     14.769
REMARK  8 active torsions:
REMARK  status: ('A' for Active; 'I' for Inactive)
REMARK    1  A    between atoms: C_2  and  C_3 
REMARK    2  A    between atoms: C_3  and  N_4 
REMARK    3  A    between atoms: N_4  and  C_6 
REMARK    4  A    between atoms: N_4  and  C_23 
REMARK    5  A    between atoms: C_6  and  C_7 
REMARK       I    between atoms: C_7  and  N_8 
REMARK    6  A    between atoms: N_8  and  C_9 
REMARK    7  A    between atoms: C_23  and  C_24 
REMARK       I    between atoms: C_24  and  N_25 
REMARK    8  A    between atoms: N_25  and  C_26 
ROOT
HETATM    1  N   UNL     1      26.833  47.274  38.870  1.00  0.00    -0.055 N 
HETATM    2  H   UNL     1      27.183  47.659  37.978  1.00  0.00     0.281 HD
ENDROOT
BRANCH   1   3
HETATM    3  C   UNL     1      25.650  46.390  38.541  1.00  0.00     0.235 C 
BRANCH   3   4
HETATM    4  C   UNL     1      25.563  46.027  37.060  1.00  0.00     0.023 C 
HETATM    5  C   UNL     1      24.593  44.896  36.756  1.00  0.00     0.007 C 
ENDBRANCH   3   4
ENDBRANCH   1   3
BRANCH   1   6
HETATM    6  C   UNL     1      26.495  48.462  39.797  1.00  0.00     0.338 C 
BRANCH   6   7
HETATM    7  C   UNL     1      25.787  49.614  39.060  1.00  0.00     0.249 C 
HETATM    8  N   UNL     1      26.451  50.653  38.499  1.00  0.00    -0.304 N 
HETATM    9  H   UNL     1      25.895  51.306  37.957  1.00  0.00     0.171 HD
HETATM   10  O   UNL     1      24.561  49.560  38.896  1.00  0.00    -0.271 OA
BRANCH   8  11
HETATM   11  C   UNL     1      27.764  50.966  38.662  1.00  0.00     0.174 A 
HETATM   12  S   UNL     1      28.069  52.011  39.965  1.00  0.00    -0.050 SA
HETATM   13  C   UNL     1      29.750  51.959  39.595  1.00  0.00     0.040 A 
HETATM   14  C   UNL     1      29.947  51.109  38.501  1.00  0.00     0.079 A 
HETATM   15  C   UNL     1      30.811  52.618  40.233  1.00  0.00     0.061 A 
HETATM   16  N   UNL     1      28.785  50.565  37.956  1.00  0.00    -0.223 NA
HETATM   17  C   UNL     1      31.263  50.875  38.054  1.00  0.00     0.072 A 
HETATM   18  C   UNL     1      32.331  51.499  38.708  1.00  0.00     0.104 A 
HETATM   19  C   UNL     1      32.103  52.384  39.761  1.00  0.00     0.103 A 
HETATM   20  O   UNL     1      33.587  51.191  38.250  1.00  0.00    -0.346 OA
HETATM   21  O   UNL     1      33.108  53.059  40.407  1.00  0.00    -0.346 OA
HETATM   22  C   UNL     1      34.342  52.995  39.683  1.00  0.00     0.202 C 
HETATM   23  C   UNL     1      34.597  51.580  39.191  1.00  0.00     0.202 C 
ENDBRANCH   8  11
ENDBRANCH   6   7
ENDBRANCH   1   6
BRANCH   1  24
HETATM   24  C   UNL     1      28.019  46.442  39.397  1.00  0.00     0.338 C 
BRANCH  24  25
HETATM   25  C   UNL     1      29.300  47.279  39.473  1.00  0.00     0.248 C 
HETATM   26  N   UNL     1      29.690  47.577  40.762  1.00  0.00    -0.323 N 
HETATM   27  H   UNL     1      29.123  47.239  41.539  1.00  0.00     0.169 HD
HETATM   28  O   UNL     1      29.886  47.565  38.431  1.00  0.00    -0.271 OA
BRANCH  26  29
HETATM   29  C   UNL     1      30.849  48.273  41.177  1.00  0.00     0.077 A 
HETATM   30  C   UNL     1      30.648  49.366  42.035  1.00  0.00     0.184 A 
HETATM   31  F   UNL     1      29.393  49.673  42.406  1.00  0.00    -0.200 F 
HETATM   32  C   UNL     1      31.714  50.115  42.515  1.00  0.00     0.195 A 
HETATM   33  F   UNL     1      31.493  51.143  43.345  1.00  0.00    -0.199 F 
HETATM   34  C   UNL     1      33.002  49.782  42.134  1.00  0.00     0.158 A 
HETATM   35  F   UNL     1      34.045  50.491  42.585  1.00  0.00    -0.203 F 
HETATM   36  C   UNL     1      33.229  48.706  41.277  1.00  0.00     0.048 A 
HETATM   37  C   UNL     1      32.152  47.948  40.798  1.00  0.00     0.036 A 
ENDBRANCH  26  29
ENDBRANCH  24  25
ENDBRANCH   1  24
TORSDOF 8
ENDMDL
MODEL 7
REMARK VINA RESULT:      -8.4     12.497     15.067
REMARK  8 active torsions:
REMARK  status: ('A' for Active; 'I' for Inactive)
REMARK    1  A    between atoms: C_2  and  C_3 
REMARK    2  A    between atoms: C_3  and  N_4 
REMARK    3  A    between atoms: N_4  and  C_6 
REMARK    4  A    between atoms: N_4  and  C_23 
REMARK    5  A    between atoms: C_6  and  C_7 
REMARK       I    between atoms: C_7  and  N_8 
REMARK    6  A    between atoms: N_8  and  C_9 
REMARK    7  A    between atoms: C_23  and  C_24 
REMARK       I    between atoms: C_24  and  N_25 
REMARK    8  A    between atoms: N_25  and  C_26 
ROOT
HETATM    1  N   UNL     1      25.471  48.421  40.143  1.00  0.00    -0.055 N 
HETATM    2  H   UNL     1      25.569  49.099  40.914  1.00  0.00     0.281 HD
ENDROOT
BRANCH   1   3
HETATM    3  C   UNL     1      24.169  47.683  40.359  1.00  0.00     0.235 C 
BRANCH   3   4
HETATM    4  C   UNL     1      24.301  46.493  41.307  1.00  0.00     0.023 C 
HETATM    5  C   UNL     1      23.569  45.245  40.840  1.00  0.00     0.007 C 
ENDBRANCH   3   4
ENDBRANCH   1   3
BRANCH   1   6
HETATM    6  C   UNL     1      26.720  47.513  40.151  1.00  0.00     0.338 C 
BRANCH   6   7
HETATM    7  C   UNL     1      27.100  47.005  38.747  1.00  0.00     0.249 C 
HETATM    8  N   UNL     1      28.348  47.114  38.233  1.00  0.00    -0.304 N 
HETATM    9  H   UNL     1      28.512  46.662  37.339  1.00  0.00     0.171 HD
HETATM   10  O   UNL     1      26.253  46.397  38.078  1.00  0.00    -0.271 OA
BRANCH   8  11
HETATM   11  C   UNL     1      29.380  47.840  38.741  1.00  0.00     0.174 A 
HETATM   12  S   UNL     1      30.166  47.101  40.051  1.00  0.00    -0.050 SA
HETATM   13  C   UNL     1      31.237  48.445  40.149  1.00  0.00     0.040 A 
HETATM   14  C   UNL     1      30.917  49.354  39.134  1.00  0.00     0.079 A 
HETATM   15  C   UNL     1      32.286  48.671  41.053  1.00  0.00     0.061 A 
HETATM   16  N   UNL     1      29.822  49.003  38.346  1.00  0.00    -0.223 NA
HETATM   17  C   UNL     1      31.704  50.515  38.992  1.00  0.00     0.072 A 
HETATM   18  C   UNL     1      32.774  50.730  39.866  1.00  0.00     0.104 A 
HETATM   19  C   UNL     1      33.038  49.835  40.902  1.00  0.00     0.103 A 
HETATM   20  O   UNL     1      33.526  51.856  39.642  1.00  0.00    -0.346 OA
HETATM   21  O   UNL     1      34.045  50.020  41.817  1.00  0.00    -0.346 OA
HETATM   22  C   UNL     1      34.564  51.354  41.775  1.00  0.00     0.202 C 
HETATM   23  C   UNL     1      34.779  51.795  40.337  1.00  0.00     0.202 C 
ENDBRANCH   8  11
ENDBRANCH   6   7
ENDBRANCH   1   6
BRANCH   1  24
HETATM   24  C   UNL     1      25.405  49.309  38.884  1.00  0.00     0.338 C 
BRANCH  24  25
HETATM   25  C   UNL     1      26.572  50.302  38.837  1.00  0.00     0.248 C 
HETATM   26  N   UNL     1      27.003  50.707  40.082  1.00  0.00    -0.323 N 
HETATM   27  H   UNL     1      26.534  50.340  40.910  1.00  0.00     0.169 HD
HETATM   28  O   UNL     1      27.049  50.607  37.746  1.00  0.00    -0.271 OA
BRANCH  26  29
HETATM   29  C   UNL     1      28.088  51.562  40.388  1.00  0.00     0.077 A 
HETATM   30  C   UNL     1      28.917  51.166  41.449  1.00  0.00     0.184 A 
HETATM   31  F   UNL     1      28.637  50.020  42.093  1.00  0.00    -0.200 F 
HETATM   32  C   UNL     1      30.018  51.922  41.828  1.00  0.00     0.195 A 
HETATM   33  F   UNL     1      30.800  51.511  42.835  1.00  0.00    -0.199 F 
HETATM   34  C   UNL     1      30.300  53.095  41.150  1.00  0.00     0.158 A 
HETATM   35  F   UNL     1      31.357  53.839  41.499  1.00  0.00    -0.203 F 
HETATM   36  C   UNL     1      29.489  53.515  40.097  1.00  0.00     0.048 A 
HETATM   37  C   UNL     1      28.381  52.748  39.712  1.00  0.00     0.036 A 
ENDBRANCH  26  29
ENDBRANCH  24  25
ENDBRANCH   1  24
TORSDOF 8
ENDMDL
MODEL 8
REMARK VINA RESULT:      -8.3      1.794      2.153
REMARK  8 active torsions:
REMARK  status: ('A' for Active; 'I' for Inactive)
REMARK    1  A    between atoms: C_2  and  C_3 
REMARK    2  A    between atoms: C_3  and  N_4 
REMARK    3  A    between atoms: N_4  and  C_6 
REMARK    4  A    between atoms: N_4  and  C_23 
REMARK    5  A    between atoms: C_6  and  C_7 
REMARK       I    between atoms: C_7  and  N_8 
REMARK    6  A    between atoms: N_8  and  C_9 
REMARK    7  A    between atoms: C_23  and  C_24 
REMARK       I    between atoms: C_24  and  N_25 
REMARK    8  A    between atoms: N_25  and  C_26 
ROOT
HETATM    1  N   UNL     1      24.882  45.627  50.141  1.00  0.00    -0.055 N 
HETATM    2  H   UNL     1      25.902  45.780  50.088  1.00  0.00     0.281 HD
ENDROOT
BRANCH   1   3
HETATM    3  C   UNL     1      24.522  44.634  49.058  1.00  0.00     0.235 C 
BRANCH   3   4
HETATM    4  C   UNL     1      23.258  43.835  49.370  1.00  0.00     0.023 C 
HETATM    5  C   UNL     1      22.048  44.243  48.545  1.00  0.00     0.007 C 
ENDBRANCH   3   4
ENDBRANCH   1   3
BRANCH   1   6
HETATM    6  C   UNL     1      24.190  47.000  49.995  1.00  0.00     0.338 C 
BRANCH   6   7
HETATM    7  C   UNL     1      25.127  48.084  49.430  1.00  0.00     0.249 C 
HETATM    8  N   UNL     1      24.708  49.331  49.107  1.00  0.00    -0.304 N 
HETATM    9  H   UNL     1      25.425  49.994  48.834  1.00  0.00     0.171 HD
HETATM   10  O   UNL     1      26.338  47.843  49.336  1.00  0.00    -0.271 OA
BRANCH   8  11
HETATM   11  C   UNL     1      23.420  49.762  49.020  1.00  0.00     0.174 A 
HETATM   12  S   UNL     1      22.649  49.344  47.567  1.00  0.00    -0.050 SA
HETATM   13  C   UNL     1      21.218  50.128  48.118  1.00  0.00     0.040 A 
HETATM   14  C   UNL     1      21.444  50.631  49.405  1.00  0.00     0.079 A 
HETATM   15  C   UNL     1      19.988  50.278  47.460  1.00  0.00     0.061 A 
HETATM   16  N   UNL     1      22.732  50.435  49.900  1.00  0.00    -0.223 NA
HETATM   17  C   UNL     1      20.384  51.273  50.076  1.00  0.00     0.072 A 
HETATM   18  C   UNL     1      19.143  51.394  49.442  1.00  0.00     0.104 A 
HETATM   19  C   UNL     1      18.961  50.932  48.139  1.00  0.00     0.103 A 
HETATM   20  O   UNL     1      18.143  51.988  50.171  1.00  0.00    -0.346 OA
HETATM   21  O   UNL     1      17.780  51.067  47.452  1.00  0.00    -0.346 OA
HETATM   22  C   UNL     1      16.894  51.993  48.093  1.00  0.00     0.202 C 
HETATM   23  C   UNL     1      16.855  51.740  49.591  1.00  0.00     0.202 C 
ENDBRANCH   8  11
ENDBRANCH   6   7
ENDBRANCH   1   6
BRANCH   1  24
HETATM   24  C   UNL     1      24.679  45.019  51.544  1.00  0.00     0.338 C 
BRANCH  24  25
HETATM   25  C   UNL     1      25.874  44.154  51.958  1.00  0.00     0.248 C 
HETATM   26  N   UNL     1      26.827  44.838  52.682  1.00  0.00    -0.323 N 
HETATM   27  H   UNL     1      26.681  45.828  52.878  1.00  0.00     0.169 HD
HETATM   28  O   UNL     1      25.869  42.958  51.672  1.00  0.00    -0.271 OA
BRANCH  26  29
HETATM   29  C   UNL     1      28.011  44.323  53.261  1.00  0.00     0.077 A 
HETATM   30  C   UNL     1      28.345  44.805  54.536  1.00  0.00     0.184 A 
HETATM   31  F   UNL     1      27.533  45.703  55.119  1.00  0.00    -0.200 F 
HETATM   32  C   UNL     1      29.477  44.360  55.204  1.00  0.00     0.195 A 
HETATM   33  F   UNL     1      29.762  44.826  56.427  1.00  0.00    -0.199 F 
HETATM   34  C   UNL     1      30.299  43.426  54.596  1.00  0.00     0.158 A 
HETATM   35  F   UNL     1      31.397  42.984  55.223  1.00  0.00    -0.203 F 
HETATM   36  C   UNL     1      29.995  42.937  53.327  1.00  0.00     0.048 A 
HETATM   37  C   UNL     1      28.848  43.383  52.657  1.00  0.00     0.036 A 
ENDBRANCH  26  29
ENDBRANCH  24  25
ENDBRANCH   1  24
TORSDOF 8
ENDMDL
MODEL 9
REMARK VINA RESULT:      -8.1     12.355     14.659
REMARK  8 active torsions:
REMARK  status: ('A' for Active; 'I' for Inactive)
REMARK    1  A    between atoms: C_2  and  C_3 
REMARK    2  A    between atoms: C_3  and  N_4 
REMARK    3  A    between atoms: N_4  and  C_6 
REMARK    4  A    between atoms: N_4  and  C_23 
REMARK    5  A    between atoms: C_6  and  C_7 
REMARK       I    between atoms: C_7  and  N_8 
REMARK    6  A    between atoms: N_8  and  C_9 
REMARK    7  A    between atoms: C_23  and  C_24 
REMARK       I    between atoms: C_24  and  N_25 
REMARK    8  A    between atoms: N_25  and  C_26 
ROOT
HETATM    1  N   UNL     1      27.633  48.098  40.065  1.00  0.00    -0.055 N 
HETATM    2  H   UNL     1      28.276  48.681  39.508  1.00  0.00     0.281 HD
ENDROOT
BRANCH   1   3
HETATM    3  C   UNL     1      27.267  46.900  39.217  1.00  0.00     0.235 C 
BRANCH   3   4
HETATM    4  C   UNL     1      27.743  47.019  37.769  1.00  0.00     0.023 C 
HETATM    5  C   UNL     1      26.652  46.777  36.738  1.00  0.00     0.007 C 
ENDBRANCH   3   4
ENDBRANCH   1   3
BRANCH   1   6
HETATM    6  C   UNL     1      26.429  48.976  40.470  1.00  0.00     0.338 C 
BRANCH   6   7
HETATM    7  C   UNL     1      25.822  49.743  39.280  1.00  0.00     0.249 C 
HETATM    8  N   UNL     1      26.559  50.496  38.429  1.00  0.00    -0.304 N 
HETATM    9  H   UNL     1      26.073  50.880  37.626  1.00  0.00     0.171 HD
HETATM   10  O   UNL     1      24.615  49.610  39.031  1.00  0.00    -0.271 OA
BRANCH   8  11
HETATM   11  C   UNL     1      27.858  50.869  38.586  1.00  0.00     0.174 A 
HETATM   12  S   UNL     1      28.092  52.079  39.753  1.00  0.00    -0.050 SA
HETATM   13  C   UNL     1      29.784  52.035  39.438  1.00  0.00     0.040 A 
HETATM   14  C   UNL     1      30.039  51.060  38.466  1.00  0.00     0.079 A 
HETATM   15  C   UNL     1      30.807  52.803  40.015  1.00  0.00     0.061 A 
HETATM   16  N   UNL     1      28.911  50.415  37.964  1.00  0.00    -0.223 NA
HETATM   17  C   UNL     1      31.375  50.815  38.088  1.00  0.00     0.072 A 
HETATM   18  C   UNL     1      32.403  51.550  38.685  1.00  0.00     0.104 A 
HETATM   19  C   UNL     1      32.118  52.553  39.611  1.00  0.00     0.103 A 
HETATM   20  O   UNL     1      33.682  51.227  38.304  1.00  0.00    -0.346 OA
HETATM   21  O   UNL     1      33.084  53.336  40.192  1.00  0.00    -0.346 OA
HETATM   22  C   UNL     1      34.341  53.221  39.516  1.00  0.00     0.202 C 
HETATM   23  C   UNL     1      34.651  51.765  39.214  1.00  0.00     0.202 C 
ENDBRANCH   8  11
ENDBRANCH   6   7
ENDBRANCH   1   6
BRANCH   1  24
HETATM   24  C   UNL     1      28.483  47.679  41.281  1.00  0.00     0.338 C 
BRANCH  24  25
HETATM   25  C   UNL     1      29.300  48.856  41.826  1.00  0.00     0.248 C 
HETATM   26  N   UNL     1      30.660  48.631  41.828  1.00  0.00    -0.323 N 
HETATM   27  H   UNL     1      31.012  47.737  41.487  1.00  0.00     0.169 HD
HETATM   28  O   UNL     1      28.712  49.884  42.156  1.00  0.00    -0.271 OA
BRANCH  26  29
HETATM   29  C   UNL     1      31.686  49.529  42.206  1.00  0.00     0.077 A 
HETATM   30  C   UNL     1      32.973  49.248  41.721  1.00  0.00     0.184 A 
HETATM   31  F   UNL     1      33.146  48.170  40.938  1.00  0.00    -0.200 F 
HETATM   32  C   UNL     1      34.052  50.068  42.018  1.00  0.00     0.195 A 
HETATM   33  F   UNL     1      35.267  49.784  41.529  1.00  0.00    -0.199 F 
HETATM   34  C   UNL     1      33.858  51.182  42.818  1.00  0.00     0.158 A 
HETATM   35  F   UNL     1      34.886  51.986  43.117  1.00  0.00    -0.203 F 
HETATM   36  C   UNL     1      32.592  51.479  43.318  1.00  0.00     0.048 A 
HETATM   37  C   UNL     1      31.501  50.654  43.012  1.00  0.00     0.036 A 
ENDBRANCH  26  29
ENDBRANCH  24  25
ENDBRANCH   1  24
TORSDOF 8
ENDMDL
MODEL 10
REMARK VINA RESULT:      -8.0      4.764      9.363
REMARK  8 active torsions:
REMARK  status: ('A' for Active; 'I' for Inactive)
REMARK    1  A    between atoms: C_2  and  C_3 
REMARK    2  A    between atoms: C_3  and  N_4 
REMARK    3  A    between atoms: N_4  and  C_6 
REMARK    4  A    between atoms: N_4  and  C_23 
REMARK    5  A    between atoms: C_6  and  C_7 
REMARK       I    between atoms: C_7  and  N_8 
REMARK    6  A    between atoms: N_8  and  C_9 
REMARK    7  A    between atoms: C_23  and  C_24 
REMARK       I    between atoms: C_24  and  N_25 
REMARK    8  A    between atoms: N_25  and  C_26 
ROOT
HETATM    1  N   UNL     1      27.269  44.669  52.523  1.00  0.00    -0.055 N 
HETATM    2  H   UNL     1      27.639  45.458  51.970  1.00  0.00     0.281 HD
ENDROOT
BRANCH   1   3
HETATM    3  C   UNL     1      27.127  45.150  53.949  1.00  0.00     0.235 C 
BRANCH   3   4
HETATM    4  C   UNL     1      27.297  46.662  54.095  1.00  0.00     0.023 C 
HETATM    5  C   UNL     1      25.986  47.424  54.206  1.00  0.00     0.007 C 
ENDBRANCH   3   4
ENDBRANCH   1   3
BRANCH   1   6
HETATM    6  C   UNL     1      28.237  43.478  52.351  1.00  0.00     0.338 C 
BRANCH   6   7
HETATM    7  C   UNL     1      27.705  42.179  52.986  1.00  0.00     0.249 C 
HETATM    8  N   UNL     1      27.388  41.078  52.265  1.00  0.00    -0.304 N 
HETATM    9  H   UNL     1      27.138  40.247  52.791  1.00  0.00     0.171 HD
HETATM   10  O   UNL     1      27.634  42.098  54.220  1.00  0.00    -0.271 OA
BRANCH   8  11
HETATM   11  C   UNL     1      27.279  40.992  50.912  1.00  0.00     0.174 A 
HETATM   12  S   UNL     1      25.684  41.097  50.340  1.00  0.00    -0.050 SA
HETATM   13  C   UNL     1      26.267  40.935  48.728  1.00  0.00     0.040 A 
HETATM   14  C   UNL     1      27.663  40.839  48.758  1.00  0.00     0.079 A 
HETATM   15  C   UNL     1      25.540  40.903  47.528  1.00  0.00     0.061 A 
HETATM   16  N   UNL     1      28.230  40.845  50.031  1.00  0.00    -0.223 NA
HETATM   17  C   UNL     1      28.362  40.750  47.537  1.00  0.00     0.072 A 
HETATM   18  C   UNL     1      27.648  40.755  46.335  1.00  0.00     0.104 A 
HETATM   19  C   UNL     1      26.254  40.797  46.335  1.00  0.00     0.103 A 
HETATM   20  O   UNL     1      28.394  40.712  45.184  1.00  0.00    -0.346 OA
HETATM   21  O   UNL     1      25.501  40.757  45.188  1.00  0.00    -0.346 OA
HETATM   22  C   UNL     1      26.278  40.354  44.054  1.00  0.00     0.202 C 
HETATM   23  C   UNL     1      27.612  41.082  44.040  1.00  0.00     0.202 C 
ENDBRANCH   8  11
ENDBRANCH   6   7
ENDBRANCH   1   6
BRANCH   1  24
HETATM   24  C   UNL     1      25.890  44.396  51.888  1.00  0.00     0.338 C 
BRANCH  24  25
HETATM   25  C   UNL     1      25.663  45.265  50.646  1.00  0.00     0.248 C 
HETATM   26  N   UNL     1      25.083  46.484  50.924  1.00  0.00    -0.323 N 
HETATM   27  H   UNL     1      24.853  46.712  51.891  1.00  0.00     0.169 HD
HETATM   28  O   UNL     1      26.044  44.850  49.554  1.00  0.00    -0.271 OA
BRANCH  26  29
HETATM   29  C   UNL     1      24.799  47.534  50.020  1.00  0.00     0.077 A 
HETATM   30  C   UNL     1      25.877  48.354  49.654  1.00  0.00     0.184 A 
HETATM   31  F   UNL     1      27.090  48.093  50.170  1.00  0.00    -0.200 F 
HETATM   32  C   UNL     1      25.716  49.407  48.763  1.00  0.00     0.195 A 
HETATM   33  F   UNL     1      26.767  50.164  48.420  1.00  0.00    -0.199 F 
HETATM   34  C   UNL     1      24.463  49.659  48.232  1.00  0.00     0.158 A 
HETATM   35  F   UNL     1      24.285  50.669  47.371  1.00  0.00    -0.203 F 
HETATM   36  C   UNL     1      23.374  48.864  48.584  1.00  0.00     0.048 A 
HETATM   37  C   UNL     1      23.539  47.798  49.479  1.00  0.00     0.036 A 
ENDBRANCH  26  29
ENDBRANCH  24  25
ENDBRANCH   1  24
TORSDOF 8
ENDMDL
