MODEL 1
REMARK VINA RESULT:      -9.8      0.000      0.000
REMARK  5 active torsions:
REMARK  status: ('A' for Active; 'I' for Inactive)
REMARK    1  A    between atoms: C_2  and  O_3 
REMARK    2  A    between atoms: O_3  and  C_4 
REMARK    3  A    between atoms: C_5  and  C_6 
REMARK       I    between atoms: C_6  and  N_7 
REMARK    4  A    between atoms: N_10  and  C_11 
REMARK    5  A    between atoms: C_15  and  C_16 
ROOT
HETATM    1  C   UNL     1      22.649  46.997  48.553  1.00  0.00     0.256 C 
HETATM    2  N   UNL     1      23.472  46.344  49.477  1.00  0.00    -0.346 N 
HETATM    3  C   UNL     1      24.564  46.986  50.230  1.00  0.00     0.146 C 
HETATM    4  C   UNL     1      25.967  46.452  49.879  1.00  0.00     0.144 C 
HETATM    5  N   UNL     1      26.174  45.084  50.385  1.00  0.00    -0.365 N 
HETATM    6  C   UNL     1      25.769  43.967  49.523  1.00  0.00     0.126 C 
HETATM    7  C   UNL     1      24.493  44.223  48.720  1.00  0.00     0.040 C 
HETATM    8  C   UNL     1      23.392  44.884  49.547  1.00  0.00     0.127 C 
HETATM    9  O   UNL     1      21.888  46.408  47.788  1.00  0.00    -0.267 OA
ENDROOT
BRANCH   5  10
HETATM   10  C   UNL     1      26.664  44.886  51.647  1.00  0.00     0.122 A 
HETATM   11  N   UNL     1      25.876  44.857  52.769  1.00  0.00    -0.262 N 
HETATM   12  H   UNL     1      24.869  44.937  52.817  1.00  0.00     0.191 HD
HETATM   13  N   UNL     1      26.545  44.703  53.921  1.00  0.00    -0.173 NA
HETATM   14  C   UNL     1      27.829  44.579  53.547  1.00  0.00     0.090 A 
HETATM   15  C   UNL     1      27.938  44.666  52.130  1.00  0.00     0.084 A 
BRANCH  14  16
HETATM   16  C   UNL     1      28.899  44.401  54.536  1.00  0.00    -0.005 A 
HETATM   17  C   UNL     1      29.695  43.243  54.547  1.00  0.00     0.017 A 
HETATM   18  C   UNL     1      30.719  43.093  55.488  1.00  0.00     0.043 A 
HETATM   19  C   UNL     1      30.951  44.098  56.418  1.00  0.00     0.116 A 
HETATM   20  F   UNL     1      31.935  43.953  57.316  1.00  0.00    -0.206 F 
HETATM   21  C   UNL     1      30.179  45.251  56.430  1.00  0.00     0.043 A 
HETATM   22  C   UNL     1      29.154  45.401  55.492  1.00  0.00     0.017 A 
ENDBRANCH  14  16
ENDBRANCH   5  10
BRANCH   1  23
HETATM   23  C   UNL     1      22.632  48.475  48.529  1.00  0.00     0.065 A 
HETATM   24  C   UNL     1      21.557  49.185  49.073  1.00  0.00     0.084 A 
HETATM   25  C   UNL     1      21.571  50.583  49.051  1.00  0.00     0.038 A 
HETATM   26  C   UNL     1      22.676  51.264  48.534  1.00  0.00     0.003 A 
HETATM   27  C   UNL     1      23.768  50.554  48.033  1.00  0.00     0.001 A 
HETATM   28  C   UNL     1      23.751  49.159  48.034  1.00  0.00     0.020 A 
BRANCH  24  29
HETATM   29  O   UNL     1      20.468  48.503  49.552  1.00  0.00    -0.350 OA
BRANCH  29  30
HETATM   30  C   UNL     1      19.462  49.391  50.058  1.00  0.00     0.171 C 
HETATM   31  C   UNL     1      18.673  48.661  51.128  1.00  0.00     0.034 C 
ENDBRANCH  29  30
ENDBRANCH  24  29
ENDBRANCH   1  23
TORSDOF 5
ENDMDL
MODEL 2
REMARK VINA RESULT:      -8.9      1.059      2.352
REMARK  5 active torsions:
REMARK  status: ('A' for Active; 'I' for Inactive)
REMARK    1  A    between atoms: C_2  and  O_3 
REMARK    2  A    between atoms: O_3  and  C_4 
REMARK    3  A    between atoms: C_5  and  C_6 
REMARK       I    between atoms: C_6  and  N_7 
REMARK    4  A    between atoms: N_10  and  C_11 
REMARK    5  A    between atoms: C_15  and  C_16 
ROOT
HETATM    1  C   UNL     1      22.566  47.135  48.807  1.00  0.00     0.256 C 
HETATM    2  N   UNL     1      23.420  46.376  49.615  1.00  0.00    -0.346 N 
HETATM    3  C   UNL     1      24.483  46.933  50.470  1.00  0.00     0.146 C 
HETATM    4  C   UNL     1      25.908  46.529  50.043  1.00  0.00     0.144 C 
HETATM    5  N   UNL     1      26.179  45.106  50.316  1.00  0.00    -0.365 N 
HETATM    6  C   UNL     1      25.823  44.130  49.279  1.00  0.00     0.126 C 
HETATM    7  C   UNL     1      24.535  44.458  48.522  1.00  0.00     0.040 C 
HETATM    8  C   UNL     1      23.408  44.923  49.441  1.00  0.00     0.127 C 
HETATM    9  O   UNL     1      21.831  46.647  47.951  1.00  0.00    -0.267 OA
ENDROOT
BRANCH   5  10
HETATM   10  C   UNL     1      26.680  44.724  51.531  1.00  0.00     0.122 A 
HETATM   11  N   UNL     1      25.946  44.055  52.475  1.00  0.00    -0.262 N 
HETATM   12  H   UNL     1      24.990  43.732  52.398  1.00  0.00     0.191 HD
HETATM   13  N   UNL     1      26.596  43.811  53.623  1.00  0.00    -0.173 NA
HETATM   14  C   UNL     1      27.829  44.301  53.417  1.00  0.00     0.090 A 
HETATM   15  C   UNL     1      27.925  44.860  52.111  1.00  0.00     0.084 A 
BRANCH  14  16
HETATM   16  C   UNL     1      28.860  44.239  54.461  1.00  0.00    -0.005 A 
HETATM   17  C   UNL     1      29.651  43.091  54.635  1.00  0.00     0.017 A 
HETATM   18  C   UNL     1      30.638  43.052  55.626  1.00  0.00     0.043 A 
HETATM   19  C   UNL     1      30.837  44.157  56.444  1.00  0.00     0.116 A 
HETATM   20  F   UNL     1      31.784  44.116  57.390  1.00  0.00    -0.206 F 
HETATM   21  C   UNL     1      30.067  45.302  56.295  1.00  0.00     0.043 A 
HETATM   22  C   UNL     1      29.080  45.342  55.306  1.00  0.00     0.017 A 
ENDBRANCH  14  16
ENDBRANCH   5  10
BRANCH   1  23
HETATM   23  C   UNL     1      22.482  48.594  49.029  1.00  0.00     0.065 A 
HETATM   24  C   UNL     1      23.492  49.446  48.571  1.00  0.00     0.084 A 
HETATM   25  C   UNL     1      23.381  50.824  48.781  1.00  0.00     0.038 A 
HETATM   26  C   UNL     1      22.244  51.349  49.399  1.00  0.00     0.003 A 
HETATM   27  C   UNL     1      21.216  50.502  49.815  1.00  0.00     0.001 A 
HETATM   28  C   UNL     1      21.329  49.124  49.627  1.00  0.00     0.020 A 
BRANCH  24  29
HETATM   29  O   UNL     1      24.614  48.914  47.990  1.00  0.00    -0.350 OA
BRANCH  29  30
HETATM   30  C   UNL     1      25.616  49.911  47.752  1.00  0.00     0.171 C 
HETATM   31  C   UNL     1      26.815  49.604  48.629  1.00  0.00     0.034 C 
ENDBRANCH  29  30
ENDBRANCH  24  29
ENDBRANCH   1  23
TORSDOF 5
ENDMDL
MODEL 3
REMARK VINA RESULT:      -8.7      2.608      4.396
REMARK  5 active torsions:
REMARK  status: ('A' for Active; 'I' for Inactive)
REMARK    1  A    between atoms: C_2  and  O_3 
REMARK    2  A    between atoms: O_3  and  C_4 
REMARK    3  A    between atoms: C_5  and  C_6 
REMARK       I    between atoms: C_6  and  N_7 
REMARK    4  A    between atoms: N_10  and  C_11 
REMARK    5  A    between atoms: C_15  and  C_16 
ROOT
HETATM    1  C   UNL     1      18.813  48.543  48.495  1.00  0.00     0.256 C 
HETATM    2  N   UNL     1      20.032  48.018  48.940  1.00  0.00    -0.346 N 
HETATM    3  C   UNL     1      21.232  48.819  49.238  1.00  0.00     0.146 C 
HETATM    4  C   UNL     1      22.422  48.540  48.299  1.00  0.00     0.144 C 
HETATM    5  N   UNL     1      23.017  47.216  48.549  1.00  0.00    -0.365 N 
HETATM    6  C   UNL     1      22.457  46.066  47.829  1.00  0.00     0.126 C 
HETATM    7  C   UNL     1      20.940  46.119  47.642  1.00  0.00     0.040 C 
HETATM    8  C   UNL     1      20.201  46.565  48.902  1.00  0.00     0.127 C 
HETATM    9  O   UNL     1      17.896  47.850  48.055  1.00  0.00    -0.267 OA
ENDROOT
BRANCH   5  10
HETATM   10  C   UNL     1      24.012  47.075  49.479  1.00  0.00     0.122 A 
HETATM   11  N   UNL     1      24.926  48.057  49.764  1.00  0.00    -0.262 N 
HETATM   12  H   UNL     1      24.970  48.990  49.375  1.00  0.00     0.191 HD
HETATM   13  N   UNL     1      25.855  47.713  50.668  1.00  0.00    -0.173 NA
HETATM   14  C   UNL     1      25.520  46.466  51.032  1.00  0.00     0.090 A 
HETATM   15  C   UNL     1      24.359  46.042  50.325  1.00  0.00     0.084 A 
BRANCH  14  16
HETATM   16  C   UNL     1      26.313  45.717  52.016  1.00  0.00    -0.005 A 
HETATM   17  C   UNL     1      27.036  44.571  51.647  1.00  0.00     0.017 A 
HETATM   18  C   UNL     1      27.796  43.875  52.593  1.00  0.00     0.043 A 
HETATM   19  C   UNL     1      27.837  44.323  53.907  1.00  0.00     0.116 A 
HETATM   20  F   UNL     1      28.570  43.656  54.809  1.00  0.00    -0.206 F 
HETATM   21  C   UNL     1      27.130  45.451  54.298  1.00  0.00     0.043 A 
HETATM   22  C   UNL     1      26.368  46.146  53.354  1.00  0.00     0.017 A 
ENDBRANCH  14  16
ENDBRANCH   5  10
BRANCH   1  23
HETATM   23  C   UNL     1      18.573  49.996  48.615  1.00  0.00     0.065 A 
HETATM   24  C   UNL     1      18.812  50.852  47.535  1.00  0.00     0.084 A 
HETATM   25  C   UNL     1      18.563  52.221  47.671  1.00  0.00     0.038 A 
HETATM   26  C   UNL     1      18.031  52.722  48.862  1.00  0.00     0.003 A 
HETATM   27  C   UNL     1      17.751  51.860  49.923  1.00  0.00     0.001 A 
HETATM   28  C   UNL     1      18.016  50.496  49.801  1.00  0.00     0.020 A 
BRANCH  24  29
HETATM   29  O   UNL     1      19.358  50.349  46.382  1.00  0.00    -0.350 OA
BRANCH  29  30
HETATM   30  C   UNL     1      18.582  50.697  45.228  1.00  0.00     0.171 C 
HETATM   31  C   UNL     1      17.475  49.672  45.068  1.00  0.00     0.034 C 
ENDBRANCH  29  30
ENDBRANCH  24  29
ENDBRANCH   1  23
TORSDOF 5
ENDMDL
MODEL 4
REMARK VINA RESULT:      -8.5      5.463      8.177
REMARK  5 active torsions:
REMARK  status: ('A' for Active; 'I' for Inactive)
REMARK    1  A    between atoms: C_2  and  O_3 
REMARK    2  A    between atoms: O_3  and  C_4 
REMARK    3  A    between atoms: C_5  and  C_6 
REMARK       I    between atoms: C_6  and  N_7 
REMARK    4  A    between atoms: N_10  and  C_11 
REMARK    5  A    between atoms: C_15  and  C_16 
ROOT
HETATM    1  C   UNL     1      26.241  40.401  47.146  1.00  0.00     0.256 C 
HETATM    2  N   UNL     1      26.689  41.070  48.291  1.00  0.00    -0.346 N 
HETATM    3  C   UNL     1      27.577  40.487  49.312  1.00  0.00     0.146 C 
HETATM    4  C   UNL     1      26.919  40.322  50.695  1.00  0.00     0.144 C 
HETATM    5  N   UNL     1      26.705  41.620  51.358  1.00  0.00    -0.365 N 
HETATM    6  C   UNL     1      25.450  42.330  51.084  1.00  0.00     0.126 C 
HETATM    7  C   UNL     1      24.953  42.197  49.644  1.00  0.00     0.040 C 
HETATM    8  C   UNL     1      26.069  42.356  48.613  1.00  0.00     0.127 C 
HETATM    9  O   UNL     1      25.345  40.825  46.420  1.00  0.00    -0.267 OA
ENDROOT
BRANCH   5  10
HETATM   10  C   UNL     1      27.688  42.161  52.143  1.00  0.00     0.122 A 
HETATM   11  N   UNL     1      29.025  41.925  51.951  1.00  0.00    -0.262 N 
HETATM   12  H   UNL     1      29.455  41.377  51.217  1.00  0.00     0.191 HD
HETATM   13  N   UNL     1      29.832  42.502  52.853  1.00  0.00    -0.173 NA
HETATM   14  C   UNL     1      29.000  43.187  53.654  1.00  0.00     0.090 A 
HETATM   15  C   UNL     1      27.653  43.014  53.226  1.00  0.00     0.084 A 
BRANCH  14  16
HETATM   16  C   UNL     1      29.503  43.960  54.797  1.00  0.00    -0.005 A 
HETATM   17  C   UNL     1      28.895  45.165  55.185  1.00  0.00     0.017 A 
HETATM   18  C   UNL     1      29.377  45.884  56.283  1.00  0.00     0.043 A 
HETATM   19  C   UNL     1      30.468  45.402  56.996  1.00  0.00     0.116 A 
HETATM   20  F   UNL     1      30.926  46.092  58.049  1.00  0.00    -0.206 F 
HETATM   21  C   UNL     1      31.089  44.215  56.632  1.00  0.00     0.043 A 
HETATM   22  C   UNL     1      30.608  43.497  55.534  1.00  0.00     0.017 A 
ENDBRANCH  14  16
ENDBRANCH   5  10
BRANCH   1  23
HETATM   23  C   UNL     1      26.918  39.152  46.737  1.00  0.00     0.065 A 
HETATM   24  C   UNL     1      28.012  39.184  45.867  1.00  0.00     0.084 A 
HETATM   25  C   UNL     1      28.643  37.990  45.507  1.00  0.00     0.038 A 
HETATM   26  C   UNL     1      28.214  36.778  46.054  1.00  0.00     0.003 A 
HETATM   27  C   UNL     1      27.151  36.753  46.957  1.00  0.00     0.001 A 
HETATM   28  C   UNL     1      26.504  37.938  47.305  1.00  0.00     0.020 A 
BRANCH  24  29
HETATM   29  O   UNL     1      28.406  40.378  45.319  1.00  0.00    -0.350 OA
BRANCH  29  30
HETATM   30  C   UNL     1      28.182  40.414  43.903  1.00  0.00     0.171 C 
HETATM   31  C   UNL     1      29.501  40.719  43.217  1.00  0.00     0.034 C 
ENDBRANCH  29  30
ENDBRANCH  24  29
ENDBRANCH   1  23
TORSDOF 5
ENDMDL
MODEL 5
REMARK VINA RESULT:      -8.5      5.559      7.990
REMARK  5 active torsions:
REMARK  status: ('A' for Active; 'I' for Inactive)
REMARK    1  A    between atoms: C_2  and  O_3 
REMARK    2  A    between atoms: O_3  and  C_4 
REMARK    3  A    between atoms: C_5  and  C_6 
REMARK       I    between atoms: C_6  and  N_7 
REMARK    4  A    between atoms: N_10  and  C_11 
REMARK    5  A    between atoms: C_15  and  C_16 
ROOT
HETATM    1  C   UNL     1      26.298  40.793  46.743  1.00  0.00     0.256 C 
HETATM    2  N   UNL     1      26.709  41.306  47.977  1.00  0.00    -0.346 N 
HETATM    3  C   UNL     1      27.766  40.721  48.821  1.00  0.00     0.146 C 
HETATM    4  C   UNL     1      27.260  40.175  50.171  1.00  0.00     0.144 C 
HETATM    5  N   UNL     1      26.871  41.260  51.089  1.00  0.00    -0.365 N 
HETATM    6  C   UNL     1      25.491  41.756  51.018  1.00  0.00     0.126 C 
HETATM    7  C   UNL     1      24.914  41.805  49.603  1.00  0.00     0.040 C 
HETATM    8  C   UNL     1      25.897  42.366  48.578  1.00  0.00     0.127 C 
HETATM    9  O   UNL     1      25.285  41.167  46.155  1.00  0.00    -0.267 OA
ENDROOT
BRANCH   5  10
HETATM   10  C   UNL     1      27.801  41.820  51.923  1.00  0.00     0.122 A 
HETATM   11  N   UNL     1      29.115  41.430  51.962  1.00  0.00    -0.262 N 
HETATM   12  H   UNL     1      29.569  40.736  51.383  1.00  0.00     0.191 HD
HETATM   13  N   UNL     1      29.861  42.061  52.880  1.00  0.00    -0.173 NA
HETATM   14  C   UNL     1      29.018  42.939  53.448  1.00  0.00     0.090 A 
HETATM   15  C   UNL     1      27.727  42.831  52.859  1.00  0.00     0.084 A 
BRANCH  14  16
HETATM   16  C   UNL     1      29.457  43.829  54.530  1.00  0.00    -0.005 A 
HETATM   17  C   UNL     1      28.768  45.019  54.818  1.00  0.00     0.017 A 
HETATM   18  C   UNL     1      29.190  45.851  55.860  1.00  0.00     0.043 A 
HETATM   19  C   UNL     1      30.301  45.497  56.616  1.00  0.00     0.116 A 
HETATM   20  F   UNL     1      30.700  46.294  57.615  1.00  0.00    -0.206 F 
HETATM   21  C   UNL     1      31.001  44.328  56.351  1.00  0.00     0.043 A 
HETATM   22  C   UNL     1      30.580  43.497  55.309  1.00  0.00     0.017 A 
ENDBRANCH  14  16
ENDBRANCH   5  10
BRANCH   1  23
HETATM   23  C   UNL     1      27.152  39.796  46.063  1.00  0.00     0.065 A 
HETATM   24  C   UNL     1      27.036  38.434  46.361  1.00  0.00     0.084 A 
HETATM   25  C   UNL     1      27.845  37.510  45.693  1.00  0.00     0.038 A 
HETATM   26  C   UNL     1      28.728  37.940  44.700  1.00  0.00     0.003 A 
HETATM   27  C   UNL     1      28.810  39.294  44.372  1.00  0.00     0.001 A 
HETATM   28  C   UNL     1      28.020  40.224  45.048  1.00  0.00     0.020 A 
BRANCH  24  29
HETATM   29  O   UNL     1      26.185  38.030  47.357  1.00  0.00    -0.350 OA
BRANCH  29  30
HETATM   30  C   UNL     1      26.467  36.693  47.790  1.00  0.00     0.171 C 
HETATM   31  C   UNL     1      26.786  36.726  49.273  1.00  0.00     0.034 C 
ENDBRANCH  29  30
ENDBRANCH  24  29
ENDBRANCH   1  23
TORSDOF 5
ENDMDL
MODEL 6
REMARK VINA RESULT:      -8.4      6.406      7.551
REMARK  5 active torsions:
REMARK  status: ('A' for Active; 'I' for Inactive)
REMARK    1  A    between atoms: C_2  and  O_3 
REMARK    2  A    between atoms: O_3  and  C_4 
REMARK    3  A    between atoms: C_5  and  C_6 
REMARK       I    between atoms: C_6  and  N_7 
REMARK    4  A    between atoms: N_10  and  C_11 
REMARK    5  A    between atoms: C_15  and  C_16 
ROOT
HETATM    1  C   UNL     1      25.772  38.783  47.568  1.00  0.00     0.256 C 
HETATM    2  N   UNL     1      26.305  39.210  48.789  1.00  0.00    -0.346 N 
HETATM    3  C   UNL     1      26.620  40.610  49.125  1.00  0.00     0.146 C 
HETATM    4  C   UNL     1      28.122  40.882  49.339  1.00  0.00     0.144 C 
HETATM    5  N   UNL     1      28.614  40.278  50.590  1.00  0.00    -0.365 N 
HETATM    6  C   UNL     1      29.092  38.891  50.538  1.00  0.00     0.126 C 
HETATM    7  C   UNL     1      28.296  37.985  49.598  1.00  0.00     0.040 C 
HETATM    8  C   UNL     1      26.786  38.186  49.717  1.00  0.00     0.127 C 
HETATM    9  O   UNL     1      25.711  37.602  47.231  1.00  0.00    -0.267 OA
ENDROOT
BRANCH   5  10
HETATM   10  C   UNL     1      28.553  40.981  51.762  1.00  0.00     0.122 A 
HETATM   11  N   UNL     1      27.554  40.823  52.688  1.00  0.00    -0.262 N 
HETATM   12  H   UNL     1      26.781  40.171  52.655  1.00  0.00     0.191 HD
HETATM   13  N   UNL     1      27.639  41.638  53.750  1.00  0.00    -0.173 NA
HETATM   14  C   UNL     1      28.765  42.338  53.543  1.00  0.00     0.090 A 
HETATM   15  C   UNL     1      29.376  41.938  52.321  1.00  0.00     0.084 A 
BRANCH  14  16
HETATM   16  C   UNL     1      29.213  43.364  54.494  1.00  0.00    -0.005 A 
HETATM   17  C   UNL     1      28.468  44.536  54.703  1.00  0.00     0.017 A 
HETATM   18  C   UNL     1      28.900  45.499  55.621  1.00  0.00     0.043 A 
HETATM   19  C   UNL     1      30.077  45.294  56.331  1.00  0.00     0.116 A 
HETATM   20  F   UNL     1      30.486  46.217  57.211  1.00  0.00    -0.206 F 
HETATM   21  C   UNL     1      30.833  44.146  56.140  1.00  0.00     0.043 A 
HETATM   22  C   UNL     1      30.403  43.184  55.222  1.00  0.00     0.017 A 
ENDBRANCH  14  16
ENDBRANCH   5  10
BRANCH   1  23
HETATM   23  C   UNL     1      25.185  39.785  46.654  1.00  0.00     0.065 A 
HETATM   24  C   UNL     1      25.884  40.214  45.521  1.00  0.00     0.084 A 
HETATM   25  C   UNL     1      25.300  41.152  44.665  1.00  0.00     0.038 A 
HETATM   26  C   UNL     1      24.008  41.619  44.913  1.00  0.00     0.003 A 
HETATM   27  C   UNL     1      23.295  41.157  46.020  1.00  0.00     0.001 A 
HETATM   28  C   UNL     1      23.878  40.236  46.889  1.00  0.00     0.020 A 
BRANCH  24  29
HETATM   29  O   UNL     1      27.161  39.766  45.304  1.00  0.00    -0.350 OA
BRANCH  29  30
HETATM   30  C   UNL     1      28.119  40.831  45.371  1.00  0.00     0.171 C 
HETATM   31  C   UNL     1      28.908  40.847  44.075  1.00  0.00     0.034 C 
ENDBRANCH  29  30
ENDBRANCH  24  29
ENDBRANCH   1  23
TORSDOF 5
ENDMDL
MODEL 7
REMARK VINA RESULT:      -8.3      5.091      8.079
REMARK  5 active torsions:
REMARK  status: ('A' for Active; 'I' for Inactive)
REMARK    1  A    between atoms: C_2  and  O_3 
REMARK    2  A    between atoms: O_3  and  C_4 
REMARK    3  A    between atoms: C_5  and  C_6 
REMARK       I    between atoms: C_6  and  N_7 
REMARK    4  A    between atoms: N_10  and  C_11 
REMARK    5  A    between atoms: C_15  and  C_16 
ROOT
HETATM    1  C   UNL     1      16.973  51.982  47.275  1.00  0.00     0.256 C 
HETATM    2  N   UNL     1      18.103  51.324  47.773  1.00  0.00    -0.346 N 
HETATM    3  C   UNL     1      18.842  50.267  47.060  1.00  0.00     0.146 C 
HETATM    4  C   UNL     1      18.780  48.887  47.744  1.00  0.00     0.144 C 
HETATM    5  N   UNL     1      19.568  48.856  48.988  1.00  0.00    -0.365 N 
HETATM    6  C   UNL     1      18.902  49.263  50.231  1.00  0.00     0.126 C 
HETATM    7  C   UNL     1      17.914  50.417  50.066  1.00  0.00     0.040 C 
HETATM    8  C   UNL     1      18.451  51.538  49.179  1.00  0.00     0.127 C 
HETATM    9  O   UNL     1      16.252  52.705  47.959  1.00  0.00    -0.267 OA
ENDROOT
BRANCH   5  10
HETATM   10  C   UNL     1      20.896  48.524  48.951  1.00  0.00     0.122 A 
HETATM   11  N   UNL     1      21.351  47.233  48.865  1.00  0.00    -0.262 N 
HETATM   12  H   UNL     1      20.799  46.389  48.783  1.00  0.00     0.191 HD
HETATM   13  N   UNL     1      22.686  47.106  48.893  1.00  0.00    -0.173 NA
HETATM   14  C   UNL     1      23.139  48.368  48.955  1.00  0.00     0.090 A 
HETATM   15  C   UNL     1      22.048  49.283  48.971  1.00  0.00     0.084 A 
BRANCH  14  16
HETATM   16  C   UNL     1      24.577  48.661  49.015  1.00  0.00    -0.005 A 
HETATM   17  C   UNL     1      25.446  47.887  49.802  1.00  0.00     0.017 A 
HETATM   18  C   UNL     1      26.815  48.171  49.839  1.00  0.00     0.043 A 
HETATM   19  C   UNL     1      27.319  49.228  49.091  1.00  0.00     0.116 A 
HETATM   20  F   UNL     1      28.631  49.495  49.127  1.00  0.00    -0.206 F 
HETATM   21  C   UNL     1      26.482  50.010  48.308  1.00  0.00     0.043 A 
HETATM   22  C   UNL     1      25.114  49.728  48.271  1.00  0.00     0.017 A 
ENDBRANCH  14  16
ENDBRANCH   5  10
BRANCH   1  23
HETATM   23  C   UNL     1      16.655  51.867  45.836  1.00  0.00     0.065 A 
HETATM   24  C   UNL     1      15.808  50.856  45.370  1.00  0.00     0.084 A 
HETATM   25  C   UNL     1      15.512  50.778  44.006  1.00  0.00     0.038 A 
HETATM   26  C   UNL     1      16.018  51.734  43.123  1.00  0.00     0.003 A 
HETATM   27  C   UNL     1      16.826  52.769  43.596  1.00  0.00     0.001 A 
HETATM   28  C   UNL     1      17.143  52.841  44.953  1.00  0.00     0.020 A 
BRANCH  24  29
HETATM   29  O   UNL     1      15.340  49.909  46.245  1.00  0.00    -0.350 OA
BRANCH  29  30
HETATM   30  C   UNL     1      15.220  48.623  45.625  1.00  0.00     0.171 C 
HETATM   31  C   UNL     1      13.786  48.151  45.774  1.00  0.00     0.034 C 
ENDBRANCH  29  30
ENDBRANCH  24  29
ENDBRANCH   1  23
TORSDOF 5
ENDMDL
MODEL 8
REMARK VINA RESULT:      -8.2      5.208      8.586
REMARK  5 active torsions:
REMARK  status: ('A' for Active; 'I' for Inactive)
REMARK    1  A    between atoms: C_2  and  O_3 
REMARK    2  A    between atoms: O_3  and  C_4 
REMARK    3  A    between atoms: C_5  and  C_6 
REMARK       I    between atoms: C_6  and  N_7 
REMARK    4  A    between atoms: N_10  and  C_11 
REMARK    5  A    between atoms: C_15  and  C_16 
ROOT
HETATM    1  C   UNL     1      16.353  51.225  46.431  1.00  0.00     0.256 C 
HETATM    2  N   UNL     1      17.604  50.905  46.968  1.00  0.00    -0.346 N 
HETATM    3  C   UNL     1      18.113  49.535  47.156  1.00  0.00     0.146 C 
HETATM    4  C   UNL     1      18.320  49.139  48.632  1.00  0.00     0.144 C 
HETATM    5  N   UNL     1      19.466  49.845  49.232  1.00  0.00    -0.365 N 
HETATM    6  C   UNL     1      19.219  51.157  49.842  1.00  0.00     0.126 C 
HETATM    7  C   UNL     1      18.190  52.011  49.101  1.00  0.00     0.040 C 
HETATM    8  C   UNL     1      18.375  51.985  47.585  1.00  0.00     0.127 C 
HETATM    9  O   UNL     1      15.864  52.352  46.473  1.00  0.00    -0.267 OA
ENDROOT
BRANCH   5  10
HETATM   10  C   UNL     1      20.722  49.308  49.149  1.00  0.00     0.122 A 
HETATM   11  N   UNL     1      20.965  47.962  49.051  1.00  0.00    -0.262 N 
HETATM   12  H   UNL     1      20.285  47.216  48.991  1.00  0.00     0.191 HD
HETATM   13  N   UNL     1      22.264  47.627  49.031  1.00  0.00    -0.173 NA
HETATM   14  C   UNL     1      22.912  48.801  49.073  1.00  0.00     0.090 A 
HETATM   15  C   UNL     1      21.980  49.876  49.125  1.00  0.00     0.084 A 
BRANCH  14  16
HETATM   16  C   UNL     1      24.379  48.865  49.081  1.00  0.00    -0.005 A 
HETATM   17  C   UNL     1      25.145  47.926  49.793  1.00  0.00     0.017 A 
HETATM   18  C   UNL     1      26.542  47.992  49.781  1.00  0.00     0.043 A 
HETATM   19  C   UNL     1      27.177  48.995  49.059  1.00  0.00     0.116 A 
HETATM   20  F   UNL     1      28.515  49.053  49.047  1.00  0.00    -0.206 F 
HETATM   21  C   UNL     1      26.444  49.936  48.350  1.00  0.00     0.043 A 
HETATM   22  C   UNL     1      25.048  49.872  48.363  1.00  0.00     0.017 A 
ENDBRANCH  14  16
ENDBRANCH   5  10
BRANCH   1  23
HETATM   23  C   UNL     1      15.595  50.179  45.711  1.00  0.00     0.065 A 
HETATM   24  C   UNL     1      15.852  49.911  44.363  1.00  0.00     0.084 A 
HETATM   25  C   UNL     1      15.132  48.907  43.709  1.00  0.00     0.038 A 
HETATM   26  C   UNL     1      14.197  48.144  44.413  1.00  0.00     0.003 A 
HETATM   27  C   UNL     1      13.973  48.383  45.769  1.00  0.00     0.001 A 
HETATM   28  C   UNL     1      14.674  49.396  46.423  1.00  0.00     0.020 A 
BRANCH  24  29
HETATM   29  O   UNL     1      16.754  50.685  43.679  1.00  0.00    -0.350 OA
BRANCH  29  30
HETATM   30  C   UNL     1      17.953  49.962  43.372  1.00  0.00     0.171 C 
HETATM   31  C   UNL     1      18.874  50.875  42.583  1.00  0.00     0.034 C 
ENDBRANCH  29  30
ENDBRANCH  24  29
ENDBRANCH   1  23
TORSDOF 5
ENDMDL
MODEL 9
REMARK VINA RESULT:      -8.0     11.062     13.983
REMARK  5 active torsions:
REMARK  status: ('A' for Active; 'I' for Inactive)
REMARK    1  A    between atoms: C_2  and  O_3 
REMARK    2  A    between atoms: O_3  and  C_4 
REMARK    3  A    between atoms: C_5  and  C_6 
REMARK       I    between atoms: C_6  and  N_7 
REMARK    4  A    between atoms: N_10  and  C_11 
REMARK    5  A    between atoms: C_15  and  C_16 
ROOT
HETATM    1  C   UNL     1      31.791  52.348  40.665  1.00  0.00     0.256 C 
HETATM    2  N   UNL     1      30.730  51.444  40.546  1.00  0.00    -0.346 N 
HETATM    3  C   UNL     1      30.850  50.072  40.021  1.00  0.00     0.146 C 
HETATM    4  C   UNL     1      30.088  49.837  38.702  1.00  0.00     0.144 C 
HETATM    5  N   UNL     1      28.629  49.829  38.906  1.00  0.00    -0.365 N 
HETATM    6  C   UNL     1      27.920  51.112  38.836  1.00  0.00     0.126 C 
HETATM    7  C   UNL     1      28.695  52.292  39.424  1.00  0.00     0.040 C 
HETATM    8  C   UNL     1      29.374  51.955  40.751  1.00  0.00     0.127 C 
HETATM    9  O   UNL     1      31.639  53.544  40.907  1.00  0.00    -0.267 OA
ENDROOT
BRANCH   5  10
HETATM   10  C   UNL     1      27.986  48.661  39.220  1.00  0.00     0.122 A 
HETATM   11  N   UNL     1      26.858  48.222  38.578  1.00  0.00    -0.262 N 
HETATM   12  H   UNL     1      26.385  48.657  37.796  1.00  0.00     0.191 HD
HETATM   13  N   UNL     1      26.345  47.082  39.062  1.00  0.00    -0.173 NA
HETATM   14  C   UNL     1      27.192  46.723  40.039  1.00  0.00     0.090 A 
HETATM   15  C   UNL     1      28.244  47.676  40.152  1.00  0.00     0.084 A 
BRANCH  14  16
HETATM   16  C   UNL     1      26.970  45.510  40.836  1.00  0.00    -0.005 A 
HETATM   17  C   UNL     1      27.613  44.302  40.519  1.00  0.00     0.017 A 
HETATM   18  C   UNL     1      27.401  43.158  41.295  1.00  0.00     0.043 A 
HETATM   19  C   UNL     1      26.547  43.218  42.390  1.00  0.00     0.116 A 
HETATM   20  F   UNL     1      26.349  42.121  43.133  1.00  0.00    -0.206 F 
HETATM   21  C   UNL     1      25.898  44.398  42.724  1.00  0.00     0.043 A 
HETATM   22  C   UNL     1      26.108  45.541  41.947  1.00  0.00     0.017 A 
ENDBRANCH  14  16
ENDBRANCH   5  10
BRANCH   1  23
HETATM   23  C   UNL     1      33.176  51.843  40.566  1.00  0.00     0.065 A 
HETATM   24  C   UNL     1      33.742  51.100  41.607  1.00  0.00     0.084 A 
HETATM   25  C   UNL     1      35.049  50.621  41.482  1.00  0.00     0.038 A 
HETATM   26  C   UNL     1      35.766  50.840  40.303  1.00  0.00     0.003 A 
HETATM   27  C   UNL     1      35.184  51.543  39.248  1.00  0.00     0.001 A 
HETATM   28  C   UNL     1      33.887  52.041  39.374  1.00  0.00     0.020 A 
BRANCH  24  29
HETATM   29  O   UNL     1      33.036  50.916  42.768  1.00  0.00    -0.350 OA
BRANCH  29  30
HETATM   30  C   UNL     1      33.562  51.703  43.844  1.00  0.00     0.171 C 
HETATM   31  C   UNL     1      32.430  52.024  44.802  1.00  0.00     0.034 C 
ENDBRANCH  29  30
ENDBRANCH  24  29
ENDBRANCH   1  23
TORSDOF 5
ENDMDL
MODEL 10
REMARK VINA RESULT:      -8.0     11.933     15.070
REMARK  5 active torsions:
REMARK  status: ('A' for Active; 'I' for Inactive)
REMARK    1  A    between atoms: C_2  and  O_3 
REMARK    2  A    between atoms: O_3  and  C_4 
REMARK    3  A    between atoms: C_5  and  C_6 
REMARK       I    between atoms: C_6  and  N_7 
REMARK    4  A    between atoms: N_10  and  C_11 
REMARK    5  A    between atoms: C_15  and  C_16 
ROOT
HETATM    1  C   UNL     1      29.749  48.578  39.289  1.00  0.00     0.256 C 
HETATM    2  N   UNL     1      28.397  48.827  39.027  1.00  0.00    -0.346 N 
HETATM    3  C   UNL     1      27.456  49.442  39.980  1.00  0.00     0.146 C 
HETATM    4  C   UNL     1      26.323  48.503  40.437  1.00  0.00     0.144 C 
HETATM    5  N   UNL     1      25.352  48.250  39.357  1.00  0.00    -0.365 N 
HETATM    6  C   UNL     1      25.620  47.132  38.444  1.00  0.00     0.126 C 
HETATM    7  C   UNL     1      27.098  46.934  38.108  1.00  0.00     0.040 C 
HETATM    8  C   UNL     1      27.821  48.247  37.813  1.00  0.00     0.127 C 
HETATM    9  O   UNL     1      30.463  47.882  38.569  1.00  0.00    -0.267 OA
ENDROOT
BRANCH   5  10
HETATM   10  C   UNL     1      24.282  49.086  39.187  1.00  0.00     0.122 A 
HETATM   11  N   UNL     1      24.271  50.128  38.296  1.00  0.00    -0.262 N 
HETATM   12  H   UNL     1      24.999  50.391  37.646  1.00  0.00     0.191 HD
HETATM   13  N   UNL     1      23.150  50.866  38.310  1.00  0.00    -0.173 NA
HETATM   14  C   UNL     1      22.366  50.262  39.217  1.00  0.00     0.090 A 
HETATM   15  C   UNL     1      23.032  49.132  39.770  1.00  0.00     0.084 A 
BRANCH  14  16
HETATM   16  C   UNL     1      21.031  50.782  39.538  1.00  0.00    -0.005 A 
HETATM   17  C   UNL     1      20.049  50.933  38.544  1.00  0.00     0.017 A 
HETATM   18  C   UNL     1      18.778  51.418  38.868  1.00  0.00     0.043 A 
HETATM   19  C   UNL     1      18.483  51.753  40.184  1.00  0.00     0.116 A 
HETATM   20  F   UNL     1      17.264  52.214  40.490  1.00  0.00    -0.206 F 
HETATM   21  C   UNL     1      19.435  51.616  41.184  1.00  0.00     0.043 A 
HETATM   22  C   UNL     1      20.706  51.133  40.861  1.00  0.00     0.017 A 
ENDBRANCH  14  16
ENDBRANCH   5  10
BRANCH   1  23
HETATM   23  C   UNL     1      30.385  49.233  40.451  1.00  0.00     0.065 A 
HETATM   24  C   UNL     1      30.713  50.592  40.414  1.00  0.00     0.084 A 
HETATM   25  C   UNL     1      31.301  51.191  41.533  1.00  0.00     0.038 A 
HETATM   26  C   UNL     1      31.512  50.447  42.696  1.00  0.00     0.003 A 
HETATM   27  C   UNL     1      31.142  49.103  42.747  1.00  0.00     0.001 A 
HETATM   28  C   UNL     1      30.574  48.494  41.628  1.00  0.00     0.020 A 
BRANCH  24  29
HETATM   29  O   UNL     1      30.524  51.302  39.257  1.00  0.00    -0.350 OA
BRANCH  29  30
HETATM   30  C   UNL     1      29.682  52.444  39.462  1.00  0.00     0.171 C 
HETATM   31  C   UNL     1      28.828  52.639  38.223  1.00  0.00     0.034 C 
ENDBRANCH  29  30
ENDBRANCH  24  29
ENDBRANCH   1  23
TORSDOF 5
ENDMDL
