MODEL 1
REMARK VINA RESULT:      -8.0      0.000      0.000
REMARK  5 active torsions:
REMARK  status: ('A' for Active; 'I' for Inactive)
REMARK    1  A    between atoms: C_5  and  N_6 
REMARK       I    between atoms: N_6  and  C_7 
REMARK       I    between atoms: C_7  and  N_8 
REMARK    2  A    between atoms: N_8  and  C_9 
REMARK    3  A    between atoms: C_16  and  O_17 
REMARK    4  A    between atoms: O_17  and  C_18 
REMARK    5  A    between atoms: C_18  and  C_19 
ROOT
HETATM    1  C   UNL     1      30.120  45.060  56.497  1.00  0.00     0.026 A 
HETATM    2  C   UNL     1      30.849  43.943  56.086  1.00  0.00     0.036 A 
HETATM    3 CL   UNL     1      32.151  43.381  57.061  1.00  0.00    -0.084 Cl
HETATM    4  C   UNL     1      30.546  43.289  54.889  1.00  0.00     0.056 A 
HETATM    5  C   UNL     1      29.496  43.749  54.093  1.00  0.00     0.071 A 
HETATM    6  C   UNL     1      28.753  44.864  54.524  1.00  0.00     0.096 A 
HETATM    7  C   UNL     1      29.069  45.529  55.711  1.00  0.00     0.041 A 
ENDROOT
BRANCH   5   8
HETATM    8  N   UNL     1      29.134  43.172  52.856  1.00  0.00    -0.306 N 
HETATM    9  C   UNL     1      28.549  41.938  52.639  1.00  0.00     0.325 C 
HETATM   10  N   UNL     1      28.472  41.667  51.283  1.00  0.00    -0.306 N 
HETATM   11  O   UNL     1      28.144  41.192  53.521  1.00  0.00    -0.247 OA
HETATM   12  H   UNL     1      28.985  42.252  50.643  1.00  0.00     0.171 HD
HETATM   13  H   UNL     1      29.179  43.804  52.067  1.00  0.00     0.171 HD
BRANCH  10  14
HETATM   14  C   UNL     1      27.855  40.552  50.750  1.00  0.00     0.072 A 
HETATM   15  C   UNL     1      28.378  39.381  50.160  1.00  0.00     0.169 A 
HETATM   16  N   UNL     1      27.418  38.529  49.781  1.00  0.00    -0.185 NA
HETATM   17  N   UNL     1      26.285  39.161  50.123  1.00  0.00    -0.287 N 
HETATM   18  H   UNL     1      25.402  38.701  49.925  1.00  0.00     0.188 HD
HETATM   19  C   UNL     1      26.492  40.376  50.712  1.00  0.00     0.140 A 
ENDBRANCH  10  14
ENDBRANCH   5   8
BRANCH   6  20
HETATM   20  O   UNL     1      27.731  45.307  53.719  1.00  0.00    -0.340 OA
BRANCH  20  21
HETATM   21  C   UNL     1      26.504  45.468  54.456  1.00  0.00     0.293 C 
BRANCH  21  22
HETATM   22  C   UNL     1      25.687  44.188  54.384  1.00  0.00     0.408 C 
HETATM   23  F   UNL     1      25.634  43.714  53.117  1.00  0.00    -0.169 F 
HETATM   24  F   UNL     1      26.233  43.226  55.160  1.00  0.00    -0.169 F 
HETATM   25  F   UNL     1      24.418  44.381  54.805  1.00  0.00    -0.169 F 
ENDBRANCH  21  22
ENDBRANCH  20  21
ENDBRANCH   6  20
TORSDOF 5
ENDMDL
MODEL 2
REMARK VINA RESULT:      -7.7      1.388      1.573
REMARK  5 active torsions:
REMARK  status: ('A' for Active; 'I' for Inactive)
REMARK    1  A    between atoms: C_5  and  N_6 
REMARK       I    between atoms: N_6  and  C_7 
REMARK       I    between atoms: C_7  and  N_8 
REMARK    2  A    between atoms: N_8  and  C_9 
REMARK    3  A    between atoms: C_16  and  O_17 
REMARK    4  A    between atoms: O_17  and  C_18 
REMARK    5  A    between atoms: C_18  and  C_19 
ROOT
HETATM    1  C   UNL     1      30.283  44.999  56.760  1.00  0.00     0.026 A 
HETATM    2  C   UNL     1      30.962  43.877  56.285  1.00  0.00     0.036 A 
HETATM    3 CL   UNL     1      32.268  43.231  57.204  1.00  0.00    -0.084 Cl
HETATM    4  C   UNL     1      30.608  43.283  55.071  1.00  0.00     0.056 A 
HETATM    5  C   UNL     1      29.556  43.810  54.322  1.00  0.00     0.071 A 
HETATM    6  C   UNL     1      28.862  44.930  54.816  1.00  0.00     0.096 A 
HETATM    7  C   UNL     1      29.230  45.535  56.020  1.00  0.00     0.041 A 
ENDROOT
BRANCH   5   8
HETATM    8  N   UNL     1      29.145  43.297  53.072  1.00  0.00    -0.306 N 
HETATM    9  C   UNL     1      28.614  42.048  52.805  1.00  0.00     0.325 C 
HETATM   10  N   UNL     1      28.463  41.864  51.441  1.00  0.00    -0.306 N 
HETATM   11  O   UNL     1      28.308  41.222  53.656  1.00  0.00    -0.247 OA
HETATM   12  H   UNL     1      28.901  42.520  50.813  1.00  0.00     0.171 HD
HETATM   13  H   UNL     1      29.104  43.981  52.327  1.00  0.00     0.171 HD
BRANCH  10  14
HETATM   14  C   UNL     1      27.872  40.754  50.870  1.00  0.00     0.072 A 
HETATM   15  C   UNL     1      28.421  39.638  50.200  1.00  0.00     0.169 A 
HETATM   16  N   UNL     1      27.483  38.768  49.808  1.00  0.00    -0.185 NA
HETATM   17  N   UNL     1      26.339  39.331  50.223  1.00  0.00    -0.287 N 
HETATM   18  H   UNL     1      25.469  38.845  50.031  1.00  0.00     0.188 HD
HETATM   19  C   UNL     1      26.517  40.521  50.870  1.00  0.00     0.140 A 
ENDBRANCH  10  14
ENDBRANCH   5   8
BRANCH   6  20
HETATM   20  O   UNL     1      27.837  45.440  54.055  1.00  0.00    -0.340 OA
BRANCH  20  21
HETATM   21  C   UNL     1      27.555  46.812  54.393  1.00  0.00     0.293 C 
BRANCH  21  22
HETATM   22  C   UNL     1      26.138  47.165  53.973  1.00  0.00     0.408 C 
HETATM   23  F   UNL     1      26.080  47.464  52.654  1.00  0.00    -0.169 F 
HETATM   24  F   UNL     1      25.298  46.131  54.197  1.00  0.00    -0.169 F 
HETATM   25  F   UNL     1      25.665  48.230  54.657  1.00  0.00    -0.169 F 
ENDBRANCH  21  22
ENDBRANCH  20  21
ENDBRANCH   6  20
TORSDOF 5
ENDMDL
MODEL 3
REMARK VINA RESULT:      -7.6      3.177      4.097
REMARK  5 active torsions:
REMARK  status: ('A' for Active; 'I' for Inactive)
REMARK    1  A    between atoms: C_5  and  N_6 
REMARK       I    between atoms: N_6  and  C_7 
REMARK       I    between atoms: C_7  and  N_8 
REMARK    2  A    between atoms: N_8  and  C_9 
REMARK    3  A    between atoms: C_16  and  O_17 
REMARK    4  A    between atoms: O_17  and  C_18 
REMARK    5  A    between atoms: C_18  and  C_19 
ROOT
HETATM    1  C   UNL     1      28.239  46.867  55.399  1.00  0.00     0.026 A 
HETATM    2  C   UNL     1      27.086  46.613  54.654  1.00  0.00     0.036 A 
HETATM    3 CL   UNL     1      25.933  47.871  54.429  1.00  0.00    -0.084 Cl
HETATM    4  C   UNL     1      26.852  45.350  54.104  1.00  0.00     0.056 A 
HETATM    5  C   UNL     1      27.782  44.327  54.293  1.00  0.00     0.071 A 
HETATM    6  C   UNL     1      28.951  44.597  55.028  1.00  0.00     0.096 A 
HETATM    7  C   UNL     1      29.175  45.854  55.594  1.00  0.00     0.041 A 
ENDROOT
BRANCH   5   8
HETATM    8  N   UNL     1      27.618  43.013  53.801  1.00  0.00    -0.306 N 
HETATM    9  C   UNL     1      27.636  42.597  52.483  1.00  0.00     0.325 C 
HETATM   10  N   UNL     1      27.304  41.256  52.391  1.00  0.00    -0.306 N 
HETATM   11  O   UNL     1      27.919  43.309  51.528  1.00  0.00    -0.247 OA
HETATM   12  H   UNL     1      26.918  40.797  53.201  1.00  0.00     0.171 HD
HETATM   13  H   UNL     1      27.638  42.292  54.511  1.00  0.00     0.171 HD
BRANCH  10  14
HETATM   14  C   UNL     1      27.326  40.531  51.215  1.00  0.00     0.072 A 
HETATM   15  C   UNL     1      28.392  39.970  50.478  1.00  0.00     0.169 A 
HETATM   16  N   UNL     1      27.971  39.324  49.384  1.00  0.00    -0.185 NA
HETATM   17  N   UNL     1      26.639  39.479  49.422  1.00  0.00    -0.287 N 
HETATM   18  H   UNL     1      26.088  39.068  48.675  1.00  0.00     0.188 HD
HETATM   19  C   UNL     1      26.201  40.191  50.503  1.00  0.00     0.140 A 
ENDBRANCH  10  14
ENDBRANCH   5   8
BRANCH   6  20
HETATM   20  O   UNL     1      29.847  43.571  55.212  1.00  0.00    -0.340 OA
BRANCH  20  21
HETATM   21  C   UNL     1      31.099  44.047  55.742  1.00  0.00     0.293 C 
BRANCH  21  22
HETATM   22  C   UNL     1      31.407  43.339  57.051  1.00  0.00     0.408 C 
HETATM   23  F   UNL     1      31.085  44.115  58.113  1.00  0.00    -0.169 F 
HETATM   24  F   UNL     1      30.703  42.190  57.153  1.00  0.00    -0.169 F 
HETATM   25  F   UNL     1      32.717  43.025  57.153  1.00  0.00    -0.169 F 
ENDBRANCH  21  22
ENDBRANCH  20  21
ENDBRANCH   6  20
TORSDOF 5
ENDMDL
MODEL 4
REMARK VINA RESULT:      -7.2      1.658      2.092
REMARK  5 active torsions:
REMARK  status: ('A' for Active; 'I' for Inactive)
REMARK    1  A    between atoms: C_5  and  N_6 
REMARK       I    between atoms: N_6  and  C_7 
REMARK       I    between atoms: C_7  and  N_8 
REMARK    2  A    between atoms: N_8  and  C_9 
REMARK    3  A    between atoms: C_16  and  O_17 
REMARK    4  A    between atoms: O_17  and  C_18 
REMARK    5  A    between atoms: C_18  and  C_19 
ROOT
HETATM    1  C   UNL     1      29.330  44.925  55.446  1.00  0.00     0.026 A 
HETATM    2  C   UNL     1      30.274  43.902  55.363  1.00  0.00     0.036 A 
HETATM    3 CL   UNL     1      31.462  43.748  56.600  1.00  0.00    -0.084 Cl
HETATM    4  C   UNL     1      30.277  43.013  54.284  1.00  0.00     0.056 A 
HETATM    5  C   UNL     1      29.320  43.142  53.277  1.00  0.00     0.071 A 
HETATM    6  C   UNL     1      28.359  44.164  53.377  1.00  0.00     0.096 A 
HETATM    7  C   UNL     1      28.369  45.063  54.445  1.00  0.00     0.041 A 
ENDROOT
BRANCH   5   8
HETATM    8  N   UNL     1      29.262  42.311  52.136  1.00  0.00    -0.306 N 
HETATM    9  C   UNL     1      28.682  41.060  52.032  1.00  0.00     0.325 C 
HETATM   10  N   UNL     1      28.947  40.502  50.792  1.00  0.00    -0.306 N 
HETATM   11  O   UNL     1      28.016  40.523  52.907  1.00  0.00    -0.247 OA
HETATM   12  H   UNL     1      29.644  40.934  50.207  1.00  0.00     0.171 HD
HETATM   13  H   UNL     1      29.550  42.757  51.274  1.00  0.00     0.171 HD
BRANCH  10  14
HETATM   14  C   UNL     1      28.425  39.299  50.357  1.00  0.00     0.072 A 
HETATM   15  C   UNL     1      27.213  38.983  49.705  1.00  0.00     0.169 A 
HETATM   16  N   UNL     1      27.102  37.675  49.443  1.00  0.00    -0.185 NA
HETATM   17  N   UNL     1      28.239  37.160  49.933  1.00  0.00    -0.287 N 
HETATM   18  H   UNL     1      28.384  36.158  49.853  1.00  0.00     0.188 HD
HETATM   19  C   UNL     1      29.070  38.092  50.487  1.00  0.00     0.140 A 
ENDBRANCH  10  14
ENDBRANCH   5   8
BRANCH   6  20
HETATM   20  O   UNL     1      27.434  44.279  52.367  1.00  0.00    -0.340 OA
BRANCH  20  21
HETATM   21  C   UNL     1      26.107  43.945  52.820  1.00  0.00     0.293 C 
BRANCH  21  22
HETATM   22  C   UNL     1      25.117  44.101  51.677  1.00  0.00     0.408 C 
HETATM   23  F   UNL     1      24.210  45.069  51.946  1.00  0.00    -0.169 F 
HETATM   24  F   UNL     1      25.753  44.439  50.534  1.00  0.00    -0.169 F 
HETATM   25  F   UNL     1      24.440  42.956  51.444  1.00  0.00    -0.169 F 
ENDBRANCH  21  22
ENDBRANCH  20  21
ENDBRANCH   6  20
TORSDOF 5
ENDMDL
MODEL 5
REMARK VINA RESULT:      -7.1      3.143      4.161
REMARK  5 active torsions:
REMARK  status: ('A' for Active; 'I' for Inactive)
REMARK    1  A    between atoms: C_5  and  N_6 
REMARK       I    between atoms: N_6  and  C_7 
REMARK       I    between atoms: C_7  and  N_8 
REMARK    2  A    between atoms: N_8  and  C_9 
REMARK    3  A    between atoms: C_16  and  O_17 
REMARK    4  A    between atoms: O_17  and  C_18 
REMARK    5  A    between atoms: C_18  and  C_19 
ROOT
HETATM    1  C   UNL     1      30.534  43.954  55.928  1.00  0.00     0.026 A 
HETATM    2  C   UNL     1      29.605  44.995  55.917  1.00  0.00     0.036 A 
HETATM    3 CL   UNL     1      29.515  46.058  57.269  1.00  0.00    -0.084 Cl
HETATM    4  C   UNL     1      28.741  45.174  54.834  1.00  0.00     0.056 A 
HETATM    5  C   UNL     1      28.807  44.308  53.742  1.00  0.00     0.071 A 
HETATM    6  C   UNL     1      29.760  43.273  53.751  1.00  0.00     0.096 A 
HETATM    7  C   UNL     1      30.611  43.083  54.842  1.00  0.00     0.041 A 
ENDROOT
BRANCH   5   8
HETATM    8  N   UNL     1      27.957  44.392  52.617  1.00  0.00    -0.306 N 
HETATM    9  C   UNL     1      26.617  44.061  52.546  1.00  0.00     0.325 C 
HETATM   10  N   UNL     1      26.162  44.148  51.241  1.00  0.00    -0.306 N 
HETATM   11  O   UNL     1      25.922  43.745  53.504  1.00  0.00    -0.247 OA
HETATM   12  H   UNL     1      26.837  44.242  50.499  1.00  0.00     0.171 HD
HETATM   13  H   UNL     1      28.350  44.887  51.828  1.00  0.00     0.171 HD
BRANCH  10  14
HETATM   14  C   UNL     1      24.845  43.968  50.865  1.00  0.00     0.072 A 
HETATM   15  C   UNL     1      24.059  42.802  50.728  1.00  0.00     0.169 A 
HETATM   16  N   UNL     1      22.805  43.075  50.349  1.00  0.00    -0.185 NA
HETATM   17  N   UNL     1      22.795  44.412  50.239  1.00  0.00    -0.287 N 
HETATM   18  H   UNL     1      21.931  44.861  49.952  1.00  0.00     0.188 HD
HETATM   19  C   UNL     1      23.992  44.996  50.542  1.00  0.00     0.140 A 
ENDBRANCH  10  14
ENDBRANCH   5   8
BRANCH   6  20
HETATM   20  O   UNL     1      29.800  42.425  52.670  1.00  0.00    -0.340 OA
BRANCH  20  21
HETATM   21  C   UNL     1      29.009  41.241  52.893  1.00  0.00     0.293 C 
BRANCH  21  22
HETATM   22  C   UNL     1      28.261  40.873  51.622  1.00  0.00     0.408 C 
HETATM   23  F   UNL     1      28.410  41.830  50.675  1.00  0.00    -0.169 F 
HETATM   24  F   UNL     1      28.727  39.713  51.109  1.00  0.00    -0.169 F 
HETATM   25  F   UNL     1      26.939  40.719  51.847  1.00  0.00    -0.169 F 
ENDBRANCH  21  22
ENDBRANCH  20  21
ENDBRANCH   6  20
TORSDOF 5
ENDMDL
MODEL 6
REMARK VINA RESULT:      -6.8      3.232      4.306
REMARK  5 active torsions:
REMARK  status: ('A' for Active; 'I' for Inactive)
REMARK    1  A    between atoms: C_5  and  N_6 
REMARK       I    between atoms: N_6  and  C_7 
REMARK       I    between atoms: C_7  and  N_8 
REMARK    2  A    between atoms: N_8  and  C_9 
REMARK    3  A    between atoms: C_16  and  O_17 
REMARK    4  A    between atoms: O_17  and  C_18 
REMARK    5  A    between atoms: C_18  and  C_19 
ROOT
HETATM    1  C   UNL     1      26.001  46.981  53.001  1.00  0.00     0.026 A 
HETATM    2  C   UNL     1      25.445  46.395  51.863  1.00  0.00     0.036 A 
HETATM    3 CL   UNL     1      24.554  47.373  50.761  1.00  0.00    -0.084 Cl
HETATM    4  C   UNL     1      25.589  45.027  51.617  1.00  0.00     0.056 A 
HETATM    5  C   UNL     1      26.304  44.232  52.514  1.00  0.00     0.071 A 
HETATM    6  C   UNL     1      26.878  44.833  53.649  1.00  0.00     0.096 A 
HETATM    7  C   UNL     1      26.717  46.197  53.904  1.00  0.00     0.041 A 
ENDROOT
BRANCH   5   8
HETATM    8  N   UNL     1      26.478  42.838  52.365  1.00  0.00    -0.306 N 
HETATM    9  C   UNL     1      26.963  42.162  51.262  1.00  0.00     0.325 C 
HETATM   10  N   UNL     1      26.856  40.793  51.444  1.00  0.00    -0.306 N 
HETATM   11  O   UNL     1      27.434  42.695  50.265  1.00  0.00    -0.247 OA
HETATM   12  H   UNL     1      26.301  40.449  52.210  1.00  0.00     0.171 HD
HETATM   13  H   UNL     1      26.369  42.306  53.219  1.00  0.00     0.171 HD
BRANCH  10  14
HETATM   14  C   UNL     1      27.342  39.853  50.555  1.00  0.00     0.072 A 
HETATM   15  C   UNL     1      28.640  39.335  50.354  1.00  0.00     0.169 A 
HETATM   16  N   UNL     1      28.676  38.414  49.383  1.00  0.00    -0.185 NA
HETATM   17  N   UNL     1      27.403  38.352  48.963  1.00  0.00    -0.287 N 
HETATM   18  H   UNL     1      27.179  37.710  48.209  1.00  0.00     0.188 HD
HETATM   19  C   UNL     1      26.562  39.191  49.637  1.00  0.00     0.140 A 
ENDBRANCH  10  14
ENDBRANCH   5   8
BRANCH   6  20
HETATM   20  O   UNL     1      27.567  44.029  54.525  1.00  0.00    -0.340 OA
BRANCH  20  21
HETATM   21  C   UNL     1      28.976  44.332  54.529  1.00  0.00     0.293 C 
BRANCH  21  22
HETATM   22  C   UNL     1      29.763  43.131  54.028  1.00  0.00     0.408 C 
HETATM   23  F   UNL     1      30.915  42.979  54.724  1.00  0.00    -0.169 F 
HETATM   24  F   UNL     1      29.046  41.995  54.167  1.00  0.00    -0.169 F 
HETATM   25  F   UNL     1      30.084  43.255  52.722  1.00  0.00    -0.169 F 
ENDBRANCH  21  22
ENDBRANCH  20  21
ENDBRANCH   6  20
TORSDOF 5
ENDMDL
MODEL 7
REMARK VINA RESULT:      -6.7      4.154      5.252
REMARK  5 active torsions:
REMARK  status: ('A' for Active; 'I' for Inactive)
REMARK    1  A    between atoms: C_5  and  N_6 
REMARK       I    between atoms: N_6  and  C_7 
REMARK       I    between atoms: C_7  and  N_8 
REMARK    2  A    between atoms: N_8  and  C_9 
REMARK    3  A    between atoms: C_16  and  O_17 
REMARK    4  A    between atoms: O_17  and  C_18 
REMARK    5  A    between atoms: C_18  and  C_19 
ROOT
HETATM    1  C   UNL     1      27.956  46.947  55.625  1.00  0.00     0.026 A 
HETATM    2  C   UNL     1      26.814  47.651  55.239  1.00  0.00     0.036 A 
HETATM    3 CL   UNL     1      26.516  49.207  55.912  1.00  0.00    -0.084 Cl
HETATM    4  C   UNL     1      25.907  47.103  54.328  1.00  0.00     0.056 A 
HETATM    5  C   UNL     1      26.143  45.839  53.788  1.00  0.00     0.071 A 
HETATM    6  C   UNL     1      27.306  45.143  54.167  1.00  0.00     0.096 A 
HETATM    7  C   UNL     1      28.203  45.683  55.092  1.00  0.00     0.041 A 
ENDROOT
BRANCH   5   8
HETATM    8  N   UNL     1      25.271  45.192  52.885  1.00  0.00    -0.306 N 
HETATM    9  C   UNL     1      25.150  45.411  51.525  1.00  0.00     0.325 C 
HETATM   10  N   UNL     1      24.092  44.684  51.006  1.00  0.00    -0.306 N 
HETATM   11  O   UNL     1      25.883  46.137  50.866  1.00  0.00    -0.247 OA
HETATM   12  H   UNL     1      23.441  44.256  51.645  1.00  0.00     0.171 HD
HETATM   13  H   UNL     1      24.794  44.384  53.264  1.00  0.00     0.171 HD
BRANCH  10  14
HETATM   14  C   UNL     1      23.779  44.623  49.662  1.00  0.00     0.072 A 
HETATM   15  C   UNL     1      22.847  45.342  48.882  1.00  0.00     0.169 A 
HETATM   16  N   UNL     1      22.872  44.978  47.595  1.00  0.00    -0.185 NA
HETATM   17  N   UNL     1      23.814  44.023  47.557  1.00  0.00    -0.287 N 
HETATM   18  H   UNL     1      24.012  43.583  46.665  1.00  0.00     0.188 HD
HETATM   19  C   UNL     1      24.392  43.776  48.770  1.00  0.00     0.140 A 
ENDBRANCH  10  14
ENDBRANCH   5   8
BRANCH   6  20
HETATM   20  O   UNL     1      27.512  43.894  53.632  1.00  0.00    -0.340 OA
BRANCH  20  21
HETATM   21  C   UNL     1      28.844  43.757  53.098  1.00  0.00     0.293 C 
BRANCH  21  22
HETATM   22  C   UNL     1      29.530  42.555  53.726  1.00  0.00     0.408 C 
HETATM   23  F   UNL     1      29.842  42.793  55.021  1.00  0.00    -0.169 F 
HETATM   24  F   UNL     1      28.725  41.470  53.690  1.00  0.00    -0.169 F 
HETATM   25  F   UNL     1      30.672  42.238  53.078  1.00  0.00    -0.169 F 
ENDBRANCH  21  22
ENDBRANCH  20  21
ENDBRANCH   6  20
TORSDOF 5
ENDMDL
MODEL 8
REMARK VINA RESULT:      -6.7      9.185     10.332
REMARK  5 active torsions:
REMARK  status: ('A' for Active; 'I' for Inactive)
REMARK    1  A    between atoms: C_5  and  N_6 
REMARK       I    between atoms: N_6  and  C_7 
REMARK       I    between atoms: C_7  and  N_8 
REMARK    2  A    between atoms: N_8  and  C_9 
REMARK    3  A    between atoms: C_16  and  O_17 
REMARK    4  A    between atoms: O_17  and  C_18 
REMARK    5  A    between atoms: C_18  and  C_19 
ROOT
HETATM    1  C   UNL     1      25.786  49.766  48.452  1.00  0.00     0.026 A 
HETATM    2  C   UNL     1      25.763  48.595  49.211  1.00  0.00     0.036 A 
HETATM    3 CL   UNL     1      27.249  47.904  49.738  1.00  0.00    -0.084 Cl
HETATM    4  C   UNL     1      24.555  47.971  49.533  1.00  0.00     0.056 A 
HETATM    5  C   UNL     1      23.350  48.526  49.099  1.00  0.00     0.071 A 
HETATM    6  C   UNL     1      23.380  49.718  48.352  1.00  0.00     0.096 A 
HETATM    7  C   UNL     1      24.589  50.330  48.014  1.00  0.00     0.041 A 
ENDROOT
BRANCH   5   8
HETATM    8  N   UNL     1      22.084  47.954  49.351  1.00  0.00    -0.306 N 
HETATM    9  C   UNL     1      21.265  47.291  48.455  1.00  0.00     0.325 C 
HETATM   10  N   UNL     1      20.044  46.995  49.039  1.00  0.00    -0.306 N 
HETATM   11  O   UNL     1      21.577  46.995  47.308  1.00  0.00    -0.247 OA
HETATM   12  H   UNL     1      19.812  47.427  49.918  1.00  0.00     0.171 HD
HETATM   13  H   UNL     1      21.830  47.903  50.329  1.00  0.00     0.171 HD
BRANCH  10  14
HETATM   14  C   UNL     1      19.052  46.256  48.425  1.00  0.00     0.072 A 
HETATM   15  C   UNL     1      19.065  44.973  47.835  1.00  0.00     0.169 A 
HETATM   16  N   UNL     1      17.866  44.618  47.359  1.00  0.00    -0.185 NA
HETATM   17  N   UNL     1      17.091  45.677  47.641  1.00  0.00    -0.287 N 
HETATM   18  H   UNL     1      16.115  45.642  47.365  1.00  0.00     0.188 HD
HETATM   19  C   UNL     1      17.753  46.684  48.284  1.00  0.00     0.140 A 
ENDBRANCH  10  14
ENDBRANCH   5   8
BRANCH   6  20
HETATM   20  O   UNL     1      22.182  50.240  47.925  1.00  0.00    -0.340 OA
BRANCH  20  21
HETATM   21  C   UNL     1      21.801  51.396  48.696  1.00  0.00     0.293 C 
BRANCH  21  22
HETATM   22  C   UNL     1      20.297  51.394  48.920  1.00  0.00     0.408 C 
HETATM   23  F   UNL     1      19.724  52.500  48.390  1.00  0.00    -0.169 F 
HETATM   24  F   UNL     1      19.726  50.317  48.337  1.00  0.00    -0.169 F 
HETATM   25  F   UNL     1      19.988  51.359  50.234  1.00  0.00    -0.169 F 
ENDBRANCH  21  22
ENDBRANCH  20  21
ENDBRANCH   6  20
TORSDOF 5
ENDMDL
MODEL 9
REMARK VINA RESULT:      -6.7      7.043      8.620
REMARK  5 active torsions:
REMARK  status: ('A' for Active; 'I' for Inactive)
REMARK    1  A    between atoms: C_5  and  N_6 
REMARK       I    between atoms: N_6  and  C_7 
REMARK       I    between atoms: C_7  and  N_8 
REMARK    2  A    between atoms: N_8  and  C_9 
REMARK    3  A    between atoms: C_16  and  O_17 
REMARK    4  A    between atoms: O_17  and  C_18 
REMARK    5  A    between atoms: C_18  and  C_19 
ROOT
HETATM    1  C   UNL     1      22.738  51.250  48.589  1.00  0.00     0.026 A 
HETATM    2  C   UNL     1      21.845  50.395  49.237  1.00  0.00     0.036 A 
HETATM    3 CL   UNL     1      20.314  51.001  49.740  1.00  0.00    -0.084 Cl
HETATM    4  C   UNL     1      22.184  49.065  49.495  1.00  0.00     0.056 A 
HETATM    5  C   UNL     1      23.428  48.575  49.096  1.00  0.00     0.071 A 
HETATM    6  C   UNL     1      24.315  49.437  48.425  1.00  0.00     0.096 A 
HETATM    7  C   UNL     1      23.983  50.772  48.185  1.00  0.00     0.041 A 
ENDROOT
BRANCH   5   8
HETATM    8  N   UNL     1      23.870  47.256  49.338  1.00  0.00    -0.306 N 
HETATM    9  C   UNL     1      24.551  46.784  50.444  1.00  0.00     0.325 C 
HETATM   10  N   UNL     1      24.932  45.466  50.256  1.00  0.00    -0.306 N 
HETATM   11  O   UNL     1      24.776  47.434  51.457  1.00  0.00    -0.247 OA
HETATM   12  H   UNL     1      24.861  45.069  49.333  1.00  0.00     0.171 HD
HETATM   13  H   UNL     1      23.514  46.566  48.689  1.00  0.00     0.171 HD
BRANCH  10  14
HETATM   14  C   UNL     1      25.547  44.692  51.221  1.00  0.00     0.072 A 
HETATM   15  C   UNL     1      26.812  44.065  51.257  1.00  0.00     0.169 A 
HETATM   16  N   UNL     1      27.025  43.411  52.405  1.00  0.00    -0.185 NA
HETATM   17  N   UNL     1      25.893  43.616  53.097  1.00  0.00    -0.287 N 
HETATM   18  H   UNL     1      25.816  43.203  54.020  1.00  0.00     0.188 HD
HETATM   19  C   UNL     1      24.977  44.382  52.433  1.00  0.00     0.140 A 
ENDBRANCH  10  14
ENDBRANCH   5   8
BRANCH   6  20
HETATM   20  O   UNL     1      25.540  48.937  48.051  1.00  0.00    -0.340 OA
BRANCH  20  21
HETATM   21  C   UNL     1      26.614  49.814  48.440  1.00  0.00     0.293 C 
BRANCH  21  22
HETATM   22  C   UNL     1      27.667  49.032  49.208  1.00  0.00     0.408 C 
HETATM   23  F   UNL     1      27.182  48.599  50.396  1.00  0.00    -0.169 F 
HETATM   24  F   UNL     1      28.066  47.948  48.508  1.00  0.00    -0.169 F 
HETATM   25  F   UNL     1      28.762  49.782  49.459  1.00  0.00    -0.169 F 
ENDBRANCH  21  22
ENDBRANCH  20  21
ENDBRANCH   6  20
TORSDOF 5
ENDMDL
MODEL 10
REMARK VINA RESULT:      -6.4     13.622     15.510
REMARK  5 active torsions:
REMARK  status: ('A' for Active; 'I' for Inactive)
REMARK    1  A    between atoms: C_5  and  N_6 
REMARK       I    between atoms: N_6  and  C_7 
REMARK       I    between atoms: C_7  and  N_8 
REMARK    2  A    between atoms: N_8  and  C_9 
REMARK    3  A    between atoms: C_16  and  O_17 
REMARK    4  A    between atoms: O_17  and  C_18 
REMARK    5  A    between atoms: C_18  and  C_19 
ROOT
HETATM    1  C   UNL     1      21.043  49.618  47.687  1.00  0.00     0.026 A 
HETATM    2  C   UNL     1      21.355  50.800  48.361  1.00  0.00     0.036 A 
HETATM    3 CL   UNL     1      22.952  51.031  48.962  1.00  0.00    -0.084 Cl
HETATM    4  C   UNL     1      20.387  51.786  48.566  1.00  0.00     0.056 A 
HETATM    5  C   UNL     1      19.090  51.596  48.086  1.00  0.00     0.071 A 
HETATM    6  C   UNL     1      18.788  50.411  47.391  1.00  0.00     0.096 A 
HETATM    7  C   UNL     1      19.752  49.417  47.203  1.00  0.00     0.041 A 
ENDROOT
BRANCH   5   8
HETATM    8  N   UNL     1      18.039  52.522  48.270  1.00  0.00    -0.306 N 
HETATM    9  C   UNL     1      17.141  52.581  49.319  1.00  0.00     0.325 C 
HETATM   10  N   UNL     1      16.172  53.541  49.077  1.00  0.00    -0.306 N 
HETATM   11  O   UNL     1      17.198  51.891  50.329  1.00  0.00    -0.247 OA
HETATM   12  H   UNL     1      16.101  53.933  48.152  1.00  0.00     0.171 HD
HETATM   13  H   UNL     1      18.052  53.306  47.631  1.00  0.00     0.171 HD
BRANCH  10  14
HETATM   14  C   UNL     1      15.191  53.897  49.982  1.00  0.00     0.072 A 
HETATM   15  C   UNL     1      14.089  53.183  50.502  1.00  0.00     0.169 A 
HETATM   16  N   UNL     1      13.384  53.905  51.381  1.00  0.00    -0.185 NA
HETATM   17  N   UNL     1      14.032  55.079  51.415  1.00  0.00    -0.287 N 
HETATM   18  H   UNL     1      13.671  55.807  52.022  1.00  0.00     0.188 HD
HETATM   19  C   UNL     1      15.126  55.124  50.598  1.00  0.00     0.140 A 
ENDBRANCH  10  14
ENDBRANCH   5   8
BRANCH   6  20
HETATM   20  O   UNL     1      17.502  50.240  46.938  1.00  0.00    -0.340 OA
BRANCH  20  21
HETATM   21  C   UNL     1      17.123  48.850  46.923  1.00  0.00     0.293 C 
BRANCH  21  22
HETATM   22  C   UNL     1      15.875  48.646  47.766  1.00  0.00     0.408 C 
HETATM   23  F   UNL     1      14.857  48.155  47.020  1.00  0.00    -0.169 F 
HETATM   24  F   UNL     1      16.109  47.771  48.768  1.00  0.00    -0.169 F 
HETATM   25  F   UNL     1      15.455  49.803  48.324  1.00  0.00    -0.169 F 
ENDBRANCH  21  22
ENDBRANCH  20  21
ENDBRANCH   6  20
TORSDOF 5
ENDMDL
