MODEL 1
REMARK VINA RESULT:      -8.5      0.000      0.000
REMARK  8 active torsions:
REMARK  status: ('A' for Active; 'I' for Inactive)
REMARK    1  A    between atoms: O_2  and  C_3 
REMARK    2  A    between atoms: C_4  and  N_5 
REMARK    3  A    between atoms: N_5  and  C_6 
REMARK    4  A    between atoms: C_6  and  C_7 
REMARK       I    between atoms: C_7  and  N_8 
REMARK    5  A    between atoms: N_8  and  N_9 
REMARK    6  A    between atoms: N_9  and  C_10 
REMARK    7  A    between atoms: C_10  and  C_11 
REMARK       I    between atoms: C_11  and  N_12 
REMARK    8  A    between atoms: N_12  and  C_13 
ROOT
HETATM    1  C   UNL     1      24.010  44.452  50.538  1.00  0.00     0.245 C 
HETATM    2  N   UNL     1      25.293  44.385  51.077  1.00  0.00    -0.290 N 
HETATM    3  O   UNL     1      23.134  43.605  50.722  1.00  0.00    -0.271 OA
HETATM    4  H   UNL     1      26.014  44.992  50.687  1.00  0.00     0.183 HD
ENDROOT
BRANCH   2   5
HETATM    5  N   UNL     1      25.661  43.290  51.895  1.00  0.00    -0.229 NA
HETATM    6  H   UNL     1      25.334  43.465  52.851  1.00  0.00     0.147 HD
BRANCH   5   7
HETATM    7  C   UNL     1      27.128  43.118  51.914  1.00  0.00     0.213 C 
BRANCH   7   8
HETATM    8  C   UNL     1      27.637  43.162  53.357  1.00  0.00     0.236 C 
HETATM    9  N   UNL     1      28.550  44.182  53.572  1.00  0.00    -0.326 N 
HETATM   10  H   UNL     1      28.789  44.721  52.741  1.00  0.00     0.169 HD
HETATM   11  O   UNL     1      27.220  42.365  54.195  1.00  0.00    -0.272 OA
BRANCH   9  12
HETATM   12  C   UNL     1      29.197  44.519  54.778  1.00  0.00     0.036 A 
HETATM   13  C   UNL     1      30.258  43.788  55.324  1.00  0.00     0.056 A 
HETATM   14  C   UNL     1      30.850  44.194  56.525  1.00  0.00     0.074 A 
HETATM   15 CL   UNL     1      32.157  43.281  57.177  1.00  0.00    -0.081 Cl
HETATM   16  C   UNL     1      30.384  45.327  57.183  1.00  0.00     0.138 A 
HETATM   17  F   UNL     1      30.940  45.732  58.334  1.00  0.00    -0.204 F 
HETATM   18  C   UNL     1      29.330  46.063  56.655  1.00  0.00     0.046 A 
HETATM   19  C   UNL     1      28.738  45.659  55.455  1.00  0.00     0.032 A 
ENDBRANCH   9  12
ENDBRANCH   7   8
ENDBRANCH   5   7
ENDBRANCH   2   5
BRANCH   1  20
HETATM   20  C   UNL     1      23.795  45.655  49.610  1.00  0.00     0.196 C 
BRANCH  20  21
HETATM   21  N   UNL     1      24.147  46.892  50.333  1.00  0.00    -0.282 NA
HETATM   22  H   UNL     1      25.100  46.799  50.688  1.00  0.00     0.128 HD
BRANCH  21  23
HETATM   23  C   UNL     1      24.098  48.016  49.460  1.00  0.00     0.042 A 
HETATM   24  C   UNL     1      25.255  48.750  49.120  1.00  0.00     0.089 A 
HETATM   25  C   UNL     1      25.135  49.891  48.316  1.00  0.00     0.038 A 
HETATM   26  C   UNL     1      23.883  50.309  47.858  1.00  0.00     0.003 A 
HETATM   27  C   UNL     1      22.740  49.598  48.206  1.00  0.00     0.002 A 
HETATM   28  C   UNL     1      22.846  48.462  49.006  1.00  0.00     0.026 A 
BRANCH  24  29
HETATM   29  O   UNL     1      26.451  48.293  49.623  1.00  0.00    -0.354 OA
HETATM   30  C   UNL     1      27.625  48.892  49.082  1.00  0.00     0.210 C 
ENDBRANCH  24  29
ENDBRANCH  21  23
ENDBRANCH  20  21
ENDBRANCH   1  20
TORSDOF 8
ENDMDL
MODEL 2
REMARK VINA RESULT:      -8.5      1.987      2.502
REMARK  8 active torsions:
REMARK  status: ('A' for Active; 'I' for Inactive)
REMARK    1  A    between atoms: O_2  and  C_3 
REMARK    2  A    between atoms: C_4  and  N_5 
REMARK    3  A    between atoms: N_5  and  C_6 
REMARK    4  A    between atoms: C_6  and  C_7 
REMARK       I    between atoms: C_7  and  N_8 
REMARK    5  A    between atoms: N_8  and  N_9 
REMARK    6  A    between atoms: N_9  and  C_10 
REMARK    7  A    between atoms: C_10  and  C_11 
REMARK       I    between atoms: C_11  and  N_12 
REMARK    8  A    between atoms: N_12  and  C_13 
ROOT
HETATM    1  C   UNL     1      25.531  45.580  50.002  1.00  0.00     0.245 C 
HETATM    2  N   UNL     1      25.764  44.543  49.102  1.00  0.00    -0.290 N 
HETATM    3  O   UNL     1      26.294  45.889  50.919  1.00  0.00    -0.271 OA
HETATM    4  H   UNL     1      24.984  44.209  48.536  1.00  0.00     0.183 HD
ENDROOT
BRANCH   2   5
HETATM    5  N   UNL     1      26.942  43.764  49.209  1.00  0.00    -0.229 NA
HETATM    6  H   UNL     1      27.357  43.661  48.277  1.00  0.00     0.147 HD
BRANCH   5   7
HETATM    7  C   UNL     1      26.636  42.423  49.747  1.00  0.00     0.213 C 
BRANCH   7   8
HETATM    8  C   UNL     1      27.242  42.274  51.144  1.00  0.00     0.236 C 
HETATM    9  N   UNL     1      27.974  43.385  51.533  1.00  0.00    -0.326 N 
HETATM   10  H   UNL     1      28.048  44.114  50.824  1.00  0.00     0.169 HD
HETATM   11  O   UNL     1      27.040  41.262  51.813  1.00  0.00    -0.272 OA
BRANCH   9  12
HETATM   12  C   UNL     1      28.645  43.591  52.755  1.00  0.00     0.036 A 
HETATM   13  C   UNL     1      28.214  44.487  53.739  1.00  0.00     0.056 A 
HETATM   14  C   UNL     1      28.936  44.629  54.929  1.00  0.00     0.074 A 
HETATM   15 CL   UNL     1      28.385  45.735  56.129  1.00  0.00    -0.081 Cl
HETATM   16  C   UNL     1      30.089  43.879  55.138  1.00  0.00     0.138 A 
HETATM   17  F   UNL     1      30.793  44.000  56.273  1.00  0.00    -0.204 F 
HETATM   18  C   UNL     1      30.531  42.986  54.170  1.00  0.00     0.046 A 
HETATM   19  C   UNL     1      29.811  42.843  52.980  1.00  0.00     0.032 A 
ENDBRANCH   9  12
ENDBRANCH   7   8
ENDBRANCH   5   7
ENDBRANCH   2   5
BRANCH   1  20
HETATM   20  C   UNL     1      24.177  46.274  49.804  1.00  0.00     0.196 C 
BRANCH  20  21
HETATM   21  N   UNL     1      24.300  47.693  50.187  1.00  0.00    -0.282 NA
HETATM   22  H   UNL     1      25.288  47.953  50.156  1.00  0.00     0.128 HD
BRANCH  21  23
HETATM   23  C   UNL     1      23.587  48.524  49.277  1.00  0.00     0.042 A 
HETATM   24  C   UNL     1      24.139  49.718  48.764  1.00  0.00     0.089 A 
HETATM   25  C   UNL     1      23.362  50.532  47.930  1.00  0.00     0.038 A 
HETATM   26  C   UNL     1      22.049  50.177  47.612  1.00  0.00     0.003 A 
HETATM   27  C   UNL     1      21.497  49.011  48.130  1.00  0.00     0.002 A 
HETATM   28  C   UNL     1      22.259  48.193  48.962  1.00  0.00     0.026 A 
BRANCH  24  29
HETATM   29  O   UNL     1      25.430  50.016  49.135  1.00  0.00    -0.354 OA
HETATM   30  C   UNL     1      26.428  49.807  48.141  1.00  0.00     0.210 C 
ENDBRANCH  24  29
ENDBRANCH  21  23
ENDBRANCH  20  21
ENDBRANCH   1  20
TORSDOF 8
ENDMDL
MODEL 3
REMARK VINA RESULT:      -8.4      1.744      2.682
REMARK  8 active torsions:
REMARK  status: ('A' for Active; 'I' for Inactive)
REMARK    1  A    between atoms: O_2  and  C_3 
REMARK    2  A    between atoms: C_4  and  N_5 
REMARK    3  A    between atoms: N_5  and  C_6 
REMARK    4  A    between atoms: C_6  and  C_7 
REMARK       I    between atoms: C_7  and  N_8 
REMARK    5  A    between atoms: N_8  and  N_9 
REMARK    6  A    between atoms: N_9  and  C_10 
REMARK    7  A    between atoms: C_10  and  C_11 
REMARK       I    between atoms: C_11  and  N_12 
REMARK    8  A    between atoms: N_12  and  C_13 
ROOT
HETATM    1  C   UNL     1      23.440  44.590  49.888  1.00  0.00     0.245 C 
HETATM    2  N   UNL     1      24.514  44.178  50.673  1.00  0.00    -0.290 N 
HETATM    3  O   UNL     1      22.401  43.945  49.738  1.00  0.00    -0.271 OA
HETATM    4  H   UNL     1      25.410  44.648  50.553  1.00  0.00     0.183 HD
ENDROOT
BRANCH   2   5
HETATM    5  N   UNL     1      24.453  42.943  51.364  1.00  0.00    -0.229 NA
HETATM    6  H   UNL     1      24.320  43.128  52.363  1.00  0.00     0.147 HD
BRANCH   5   7
HETATM    7  C   UNL     1      25.703  42.177  51.181  1.00  0.00     0.213 C 
BRANCH   7   8
HETATM    8  C   UNL     1      26.887  42.977  51.729  1.00  0.00     0.236 C 
HETATM    9  N   UNL     1      27.128  42.727  53.071  1.00  0.00    -0.326 N 
HETATM   10  H   UNL     1      26.462  42.093  53.511  1.00  0.00     0.169 HD
HETATM   11  O   UNL     1      27.533  43.725  50.997  1.00  0.00    -0.272 OA
BRANCH   9  12
HETATM   12  C   UNL     1      28.144  43.273  53.880  1.00  0.00     0.036 A 
HETATM   13  C   UNL     1      27.998  44.445  54.630  1.00  0.00     0.056 A 
HETATM   14  C   UNL     1      29.056  44.918  55.413  1.00  0.00     0.074 A 
HETATM   15 CL   UNL     1      28.853  46.362  56.331  1.00  0.00    -0.081 Cl
HETATM   16  C   UNL     1      30.261  44.224  55.448  1.00  0.00     0.138 A 
HETATM   17  F   UNL     1      31.286  44.662  56.195  1.00  0.00    -0.204 F 
HETATM   18  C   UNL     1      30.423  43.060  54.708  1.00  0.00     0.046 A 
HETATM   19  C   UNL     1      29.366  42.585  53.925  1.00  0.00     0.032 A 
ENDBRANCH   9  12
ENDBRANCH   7   8
ENDBRANCH   5   7
ENDBRANCH   2   5
BRANCH   1  20
HETATM   20  C   UNL     1      23.693  45.908  49.143  1.00  0.00     0.196 C 
BRANCH  20  21
HETATM   21  N   UNL     1      23.912  46.985  50.126  1.00  0.00    -0.282 NA
HETATM   22  H   UNL     1      24.256  46.567  50.993  1.00  0.00     0.128 HD
BRANCH  21  23
HETATM   23  C   UNL     1      24.888  47.907  49.653  1.00  0.00     0.042 A 
HETATM   24  C   UNL     1      24.541  49.033  48.877  1.00  0.00     0.089 A 
HETATM   25  C   UNL     1      25.552  49.864  48.378  1.00  0.00     0.038 A 
HETATM   26  C   UNL     1      26.896  49.582  48.635  1.00  0.00     0.003 A 
HETATM   27  C   UNL     1      27.243  48.463  49.385  1.00  0.00     0.002 A 
HETATM   28  C   UNL     1      26.246  47.628  49.886  1.00  0.00     0.026 A 
BRANCH  24  29
HETATM   29  O   UNL     1      23.200  49.239  48.646  1.00  0.00    -0.354 OA
HETATM   30  C   UNL     1      22.880  50.232  47.678  1.00  0.00     0.210 C 
ENDBRANCH  24  29
ENDBRANCH  21  23
ENDBRANCH  20  21
ENDBRANCH   1  20
TORSDOF 8
ENDMDL
MODEL 4
REMARK VINA RESULT:      -8.4      5.536     10.419
REMARK  8 active torsions:
REMARK  status: ('A' for Active; 'I' for Inactive)
REMARK    1  A    between atoms: O_2  and  C_3 
REMARK    2  A    between atoms: C_4  and  N_5 
REMARK    3  A    between atoms: N_5  and  C_6 
REMARK    4  A    between atoms: C_6  and  C_7 
REMARK       I    between atoms: C_7  and  N_8 
REMARK    5  A    between atoms: N_8  and  N_9 
REMARK    6  A    between atoms: N_9  and  C_10 
REMARK    7  A    between atoms: C_10  and  C_11 
REMARK       I    between atoms: C_11  and  N_12 
REMARK    8  A    between atoms: N_12  and  C_13 
ROOT
HETATM    1  C   UNL     1      25.764  46.670  52.650  1.00  0.00     0.245 C 
HETATM    2  N   UNL     1      25.169  46.582  51.393  1.00  0.00    -0.290 N 
HETATM    3  O   UNL     1      25.621  47.619  53.422  1.00  0.00    -0.271 OA
HETATM    4  H   UNL     1      25.524  45.889  50.736  1.00  0.00     0.183 HD
ENDROOT
BRANCH   2   5
HETATM    5  N   UNL     1      24.337  47.631  50.929  1.00  0.00    -0.229 NA
HETATM    6  H   UNL     1      23.367  47.301  50.910  1.00  0.00     0.147 HD
BRANCH   5   7
HETATM    7  C   UNL     1      24.728  48.048  49.567  1.00  0.00     0.213 C 
BRANCH   7   8
HETATM    8  C   UNL     1      23.527  48.665  48.848  1.00  0.00     0.236 C 
HETATM    9  N   UNL     1      22.360  48.591  49.592  1.00  0.00    -0.326 N 
HETATM   10  H   UNL     1      22.453  48.098  50.479  1.00  0.00     0.169 HD
HETATM   11  O   UNL     1      23.656  49.182  47.740  1.00  0.00    -0.272 OA
BRANCH   9  12
HETATM   12  C   UNL     1      21.083  49.075  49.243  1.00  0.00     0.036 A 
HETATM   13  C   UNL     1      20.781  50.432  49.085  1.00  0.00     0.056 A 
HETATM   14  C   UNL     1      19.486  50.829  48.733  1.00  0.00     0.074 A 
HETATM   15 CL   UNL     1      19.136  52.505  48.540  1.00  0.00    -0.081 Cl
HETATM   16  C   UNL     1      18.493  49.875  48.538  1.00  0.00     0.138 A 
HETATM   17  F   UNL     1      17.247  50.237  48.198  1.00  0.00    -0.204 F 
HETATM   18  C   UNL     1      18.777  48.524  48.693  1.00  0.00     0.046 A 
HETATM   19  C   UNL     1      20.070  48.125  49.045  1.00  0.00     0.032 A 
ENDBRANCH   9  12
ENDBRANCH   7   8
ENDBRANCH   5   7
ENDBRANCH   2   5
BRANCH   1  20
HETATM   20  C   UNL     1      26.697  45.495  52.971  1.00  0.00     0.196 C 
BRANCH  20  21
HETATM   21  N   UNL     1      26.982  45.485  54.418  1.00  0.00    -0.282 NA
HETATM   22  H   UNL     1      26.210  45.016  54.896  1.00  0.00     0.128 HD
BRANCH  21  23
HETATM   23  C   UNL     1      28.181  44.768  54.690  1.00  0.00     0.042 A 
HETATM   24  C   UNL     1      29.120  45.215  55.644  1.00  0.00     0.089 A 
HETATM   25  C   UNL     1      30.317  44.507  55.816  1.00  0.00     0.038 A 
HETATM   26  C   UNL     1      30.590  43.374  55.046  1.00  0.00     0.003 A 
HETATM   27  C   UNL     1      29.675  42.941  54.093  1.00  0.00     0.002 A 
HETATM   28  C   UNL     1      28.481  43.637  53.912  1.00  0.00     0.026 A 
BRANCH  24  29
HETATM   29  O   UNL     1      28.796  46.349  56.351  1.00  0.00    -0.354 OA
HETATM   30  C   UNL     1      28.832  46.231  57.770  1.00  0.00     0.210 C 
ENDBRANCH  24  29
ENDBRANCH  21  23
ENDBRANCH  20  21
ENDBRANCH   1  20
TORSDOF 8
ENDMDL
MODEL 5
REMARK VINA RESULT:      -8.4      2.307      3.513
REMARK  8 active torsions:
REMARK  status: ('A' for Active; 'I' for Inactive)
REMARK    1  A    between atoms: O_2  and  C_3 
REMARK    2  A    between atoms: C_4  and  N_5 
REMARK    3  A    between atoms: N_5  and  C_6 
REMARK    4  A    between atoms: C_6  and  C_7 
REMARK       I    between atoms: C_7  and  N_8 
REMARK    5  A    between atoms: N_8  and  N_9 
REMARK    6  A    between atoms: N_9  and  C_10 
REMARK    7  A    between atoms: C_10  and  C_11 
REMARK       I    between atoms: C_11  and  N_12 
REMARK    8  A    between atoms: N_12  and  C_13 
ROOT
HETATM    1  C   UNL     1      25.860  41.958  50.433  1.00  0.00     0.245 C 
HETATM    2  N   UNL     1      26.214  40.962  51.341  1.00  0.00    -0.290 N 
HETATM    3  O   UNL     1      26.462  42.186  49.382  1.00  0.00    -0.271 OA
HETATM    4  H   UNL     1      25.815  40.999  52.279  1.00  0.00     0.183 HD
ENDROOT
BRANCH   2   5
HETATM    5  N   UNL     1      27.334  40.134  51.083  1.00  0.00    -0.229 NA
HETATM    6  H   UNL     1      27.313  39.339  51.729  1.00  0.00     0.147 HD
BRANCH   5   7
HETATM    7  C   UNL     1      28.594  40.879  51.280  1.00  0.00     0.213 C 
BRANCH   7   8
HETATM    8  C   UNL     1      28.660  41.418  52.711  1.00  0.00     0.236 C 
HETATM    9  N   UNL     1      29.414  42.577  52.813  1.00  0.00    -0.326 N 
HETATM   10  H   UNL     1      29.855  42.875  51.943  1.00  0.00     0.169 HD
HETATM   11  O   UNL     1      28.061  40.853  53.624  1.00  0.00    -0.272 OA
BRANCH   9  12
HETATM   12  C   UNL     1      29.665  43.343  53.969  1.00  0.00     0.036 A 
HETATM   13  C   UNL     1      30.660  43.039  54.905  1.00  0.00     0.056 A 
HETATM   14  C   UNL     1      30.847  43.856  56.025  1.00  0.00     0.074 A 
HETATM   15 CL   UNL     1      32.080  43.465  57.163  1.00  0.00    -0.081 Cl
HETATM   16  C   UNL     1      30.043  44.975  56.214  1.00  0.00     0.138 A 
HETATM   17  F   UNL     1      30.209  45.770  57.281  1.00  0.00    -0.204 F 
HETATM   18  C   UNL     1      29.050  45.289  55.294  1.00  0.00     0.046 A 
HETATM   19  C   UNL     1      28.861  44.474  54.174  1.00  0.00     0.032 A 
ENDBRANCH   9  12
ENDBRANCH   7   8
ENDBRANCH   5   7
ENDBRANCH   2   5
BRANCH   1  20
HETATM   20  C   UNL     1      24.677  42.819  50.894  1.00  0.00     0.196 C 
BRANCH  20  21
HETATM   21  N   UNL     1      24.934  44.226  50.536  1.00  0.00    -0.282 NA
HETATM   22  H   UNL     1      24.111  44.592  50.052  1.00  0.00     0.128 HD
BRANCH  21  23
HETATM   23  C   UNL     1      25.157  45.010  51.703  1.00  0.00     0.042 A 
HETATM   24  C   UNL     1      25.355  46.407  51.640  1.00  0.00     0.089 A 
HETATM   25  C   UNL     1      25.643  47.115  52.814  1.00  0.00     0.038 A 
HETATM   26  C   UNL     1      25.744  46.450  54.038  1.00  0.00     0.003 A 
HETATM   27  C   UNL     1      25.567  45.072  54.101  1.00  0.00     0.002 A 
HETATM   28  C   UNL     1      25.281  44.356  52.940  1.00  0.00     0.026 A 
BRANCH  24  29
HETATM   29  O   UNL     1      25.261  46.992  50.399  1.00  0.00    -0.354 OA
HETATM   30  C   UNL     1      26.449  47.606  49.908  1.00  0.00     0.210 C 
ENDBRANCH  24  29
ENDBRANCH  21  23
ENDBRANCH  20  21
ENDBRANCH   1  20
TORSDOF 8
ENDMDL
MODEL 6
REMARK VINA RESULT:      -8.4      4.250      8.433
REMARK  8 active torsions:
REMARK  status: ('A' for Active; 'I' for Inactive)
REMARK    1  A    between atoms: O_2  and  C_3 
REMARK    2  A    between atoms: C_4  and  N_5 
REMARK    3  A    between atoms: N_5  and  C_6 
REMARK    4  A    between atoms: C_6  and  C_7 
REMARK       I    between atoms: C_7  and  N_8 
REMARK    5  A    between atoms: N_8  and  N_9 
REMARK    6  A    between atoms: N_9  and  C_10 
REMARK    7  A    between atoms: C_10  and  C_11 
REMARK       I    between atoms: C_11  and  N_12 
REMARK    8  A    between atoms: N_12  and  C_13 
ROOT
HETATM    1  C   UNL     1      25.731  45.819  53.804  1.00  0.00     0.245 C 
HETATM    2  N   UNL     1      25.219  44.608  53.344  1.00  0.00    -0.290 N 
HETATM    3  O   UNL     1      25.545  46.906  53.254  1.00  0.00    -0.271 OA
HETATM    4  H   UNL     1      25.612  43.744  53.716  1.00  0.00     0.183 HD
ENDROOT
BRANCH   2   5
HETATM    5  N   UNL     1      24.428  44.574  52.169  1.00  0.00    -0.229 NA
HETATM    6  H   UNL     1      23.576  44.037  52.359  1.00  0.00     0.147 HD
BRANCH   5   7
HETATM    7  C   UNL     1      25.163  43.933  51.060  1.00  0.00     0.213 C 
BRANCH   7   8
HETATM    8  C   UNL     1      25.766  45.004  50.149  1.00  0.00     0.236 C 
HETATM    9  N   UNL     1      25.205  46.255  50.348  1.00  0.00    -0.326 N 
HETATM   10  H   UNL     1      24.446  46.277  51.027  1.00  0.00     0.169 HD
HETATM   11  O   UNL     1      26.670  44.724  49.364  1.00  0.00    -0.272 OA
BRANCH   9  12
HETATM   12  C   UNL     1      25.536  47.461  49.698  1.00  0.00     0.036 A 
HETATM   13  C   UNL     1      24.591  48.343  49.163  1.00  0.00     0.056 A 
HETATM   14  C   UNL     1      25.004  49.524  48.536  1.00  0.00     0.074 A 
HETATM   15 CL   UNL     1      23.822  50.597  47.887  1.00  0.00    -0.081 Cl
HETATM   16  C   UNL     1      26.358  49.826  48.442  1.00  0.00     0.138 A 
HETATM   17  F   UNL     1      26.772  50.955  47.847  1.00  0.00    -0.204 F 
HETATM   18  C   UNL     1      27.309  48.961  48.967  1.00  0.00     0.046 A 
HETATM   19  C   UNL     1      26.899  47.780  49.594  1.00  0.00     0.032 A 
ENDBRANCH   9  12
ENDBRANCH   7   8
ENDBRANCH   5   7
ENDBRANCH   2   5
BRANCH   1  20
HETATM   20  C   UNL     1      26.631  45.677  55.038  1.00  0.00     0.196 C 
BRANCH  20  21
HETATM   21  N   UNL     1      27.996  46.117  54.695  1.00  0.00    -0.282 NA
HETATM   22  H   UNL     1      28.244  46.904  55.298  1.00  0.00     0.128 HD
BRANCH  21  23
HETATM   23  C   UNL     1      28.934  45.069  54.913  1.00  0.00     0.042 A 
HETATM   24  C   UNL     1      29.889  45.123  55.951  1.00  0.00     0.089 A 
HETATM   25  C   UNL     1      30.834  44.095  56.072  1.00  0.00     0.038 A 
HETATM   26  C   UNL     1      30.842  43.028  55.171  1.00  0.00     0.003 A 
HETATM   27  C   UNL     1      29.914  42.981  54.137  1.00  0.00     0.002 A 
HETATM   28  C   UNL     1      28.969  43.997  54.006  1.00  0.00     0.026 A 
BRANCH  24  29
HETATM   29  O   UNL     1      29.836  46.213  56.789  1.00  0.00    -0.354 OA
HETATM   30  C   UNL     1      29.298  45.977  58.086  1.00  0.00     0.210 C 
ENDBRANCH  24  29
ENDBRANCH  21  23
ENDBRANCH  20  21
ENDBRANCH   1  20
TORSDOF 8
ENDMDL
MODEL 7
REMARK VINA RESULT:      -8.3      1.738      2.130
REMARK  8 active torsions:
REMARK  status: ('A' for Active; 'I' for Inactive)
REMARK    1  A    between atoms: O_2  and  C_3 
REMARK    2  A    between atoms: C_4  and  N_5 
REMARK    3  A    between atoms: N_5  and  C_6 
REMARK    4  A    between atoms: C_6  and  C_7 
REMARK       I    between atoms: C_7  and  N_8 
REMARK    5  A    between atoms: N_8  and  N_9 
REMARK    6  A    between atoms: N_9  and  C_10 
REMARK    7  A    between atoms: C_10  and  C_11 
REMARK       I    between atoms: C_11  and  N_12 
REMARK    8  A    between atoms: N_12  and  C_13 
ROOT
HETATM    1  C   UNL     1      22.334  44.796  49.079  1.00  0.00     0.245 C 
HETATM    2  N   UNL     1      23.086  45.031  50.228  1.00  0.00    -0.290 N 
HETATM    3  O   UNL     1      21.945  43.683  48.720  1.00  0.00    -0.271 OA
HETATM    4  H   UNL     1      23.559  45.930  50.321  1.00  0.00     0.183 HD
ENDROOT
BRANCH   2   5
HETATM    5  N   UNL     1      23.453  43.952  51.069  1.00  0.00    -0.229 NA
HETATM    6  H   UNL     1      23.138  44.153  52.023  1.00  0.00     0.147 HD
BRANCH   5   7
HETATM    7  C   UNL     1      24.918  43.767  51.077  1.00  0.00     0.213 C 
BRANCH   7   8
HETATM    8  C   UNL     1      25.474  44.087  52.466  1.00  0.00     0.236 C 
HETATM    9  N   UNL     1      26.832  44.366  52.449  1.00  0.00    -0.326 N 
HETATM   10  H   UNL     1      27.273  44.271  51.535  1.00  0.00     0.169 HD
HETATM   11  O   UNL     1      24.737  44.106  53.449  1.00  0.00    -0.272 OA
BRANCH   9  12
HETATM   12  C   UNL     1      27.654  44.718  53.538  1.00  0.00     0.036 A 
HETATM   13  C   UNL     1      28.715  43.932  53.999  1.00  0.00     0.056 A 
HETATM   14  C   UNL     1      29.486  44.356  55.087  1.00  0.00     0.074 A 
HETATM   15 CL   UNL     1      30.791  43.374  55.636  1.00  0.00    -0.081 Cl
HETATM   16  C   UNL     1      29.200  45.564  55.715  1.00  0.00     0.138 A 
HETATM   17  F   UNL     1      29.930  45.987  56.758  1.00  0.00    -0.204 F 
HETATM   18  C   UNL     1      28.148  46.355  55.270  1.00  0.00     0.046 A 
HETATM   19  C   UNL     1      27.376  45.933  54.184  1.00  0.00     0.032 A 
ENDBRANCH   9  12
ENDBRANCH   7   8
ENDBRANCH   5   7
ENDBRANCH   2   5
BRANCH   1  20
HETATM   20  C   UNL     1      22.090  46.054  48.236  1.00  0.00     0.196 C 
BRANCH  20  21
HETATM   21  N   UNL     1      21.690  47.161  49.124  1.00  0.00    -0.282 NA
HETATM   22  H   UNL     1      21.986  46.936  50.076  1.00  0.00     0.128 HD
BRANCH  21  23
HETATM   23  C   UNL     1      22.322  48.375  48.731  1.00  0.00     0.042 A 
HETATM   24  C   UNL     1      23.557  48.786  49.275  1.00  0.00     0.089 A 
HETATM   25  C   UNL     1      24.095  50.026  48.904  1.00  0.00     0.038 A 
HETATM   26  C   UNL     1      23.414  50.857  48.011  1.00  0.00     0.003 A 
HETATM   27  C   UNL     1      22.188  50.463  47.487  1.00  0.00     0.002 A 
HETATM   28  C   UNL     1      21.643  49.232  47.848  1.00  0.00     0.026 A 
BRANCH  24  29
HETATM   29  O   UNL     1      24.161  47.927  50.164  1.00  0.00    -0.354 OA
HETATM   30  C   UNL     1      25.513  47.583  49.877  1.00  0.00     0.210 C 
ENDBRANCH  24  29
ENDBRANCH  21  23
ENDBRANCH  20  21
ENDBRANCH   1  20
TORSDOF 8
ENDMDL
MODEL 8
REMARK VINA RESULT:      -8.2      1.455      2.399
REMARK  8 active torsions:
REMARK  status: ('A' for Active; 'I' for Inactive)
REMARK    1  A    between atoms: O_2  and  C_3 
REMARK    2  A    between atoms: C_4  and  N_5 
REMARK    3  A    between atoms: N_5  and  C_6 
REMARK    4  A    between atoms: C_6  and  C_7 
REMARK       I    between atoms: C_7  and  N_8 
REMARK    5  A    between atoms: N_8  and  N_9 
REMARK    6  A    between atoms: N_9  and  C_10 
REMARK    7  A    between atoms: C_10  and  C_11 
REMARK       I    between atoms: C_11  and  N_12 
REMARK    8  A    between atoms: N_12  and  C_13 
ROOT
HETATM    1  C   UNL     1      24.868  45.103  51.375  1.00  0.00     0.245 C 
HETATM    2  N   UNL     1      25.912  44.474  52.050  1.00  0.00    -0.290 N 
HETATM    3  O   UNL     1      23.981  44.510  50.759  1.00  0.00    -0.271 OA
HETATM    4  H   UNL     1      26.718  45.035  52.324  1.00  0.00     0.183 HD
ENDROOT
BRANCH   2   5
HETATM    5  N   UNL     1      26.001  43.061  52.056  1.00  0.00    -0.229 NA
HETATM    6  H   UNL     1      25.634  42.709  52.946  1.00  0.00     0.147 HD
BRANCH   5   7
HETATM    7  C   UNL     1      27.404  42.623  51.909  1.00  0.00     0.213 C 
BRANCH   7   8
HETATM    8  C   UNL     1      28.069  42.542  53.285  1.00  0.00     0.236 C 
HETATM    9  N   UNL     1      28.796  43.681  53.597  1.00  0.00    -0.326 N 
HETATM   10  H   UNL     1      28.826  44.381  52.857  1.00  0.00     0.169 HD
HETATM   11  O   UNL     1      27.914  41.555  54.001  1.00  0.00    -0.272 OA
BRANCH   9  12
HETATM   12  C   UNL     1      29.512  43.948  54.781  1.00  0.00     0.036 A 
HETATM   13  C   UNL     1      29.168  44.954  55.690  1.00  0.00     0.056 A 
HETATM   14  C   UNL     1      29.930  45.152  56.845  1.00  0.00     0.074 A 
HETATM   15 CL   UNL     1      29.486  46.394  57.953  1.00  0.00    -0.081 Cl
HETATM   16  C   UNL     1      31.037  44.348  57.095  1.00  0.00     0.138 A 
HETATM   17  F   UNL     1      31.779  44.522  58.200  1.00  0.00    -0.204 F 
HETATM   18  C   UNL     1      31.394  43.346  56.202  1.00  0.00     0.046 A 
HETATM   19  C   UNL     1      30.633  43.147  55.046  1.00  0.00     0.032 A 
ENDBRANCH   9  12
ENDBRANCH   7   8
ENDBRANCH   5   7
ENDBRANCH   2   5
BRANCH   1  20
HETATM   20  C   UNL     1      24.958  46.635  51.395  1.00  0.00     0.196 C 
BRANCH  20  21
HETATM   21  N   UNL     1      24.367  47.171  50.155  1.00  0.00    -0.282 NA
HETATM   22  H   UNL     1      23.469  47.602  50.384  1.00  0.00     0.128 HD
BRANCH  21  23
HETATM   23  C   UNL     1      25.210  48.165  49.583  1.00  0.00     0.042 A 
HETATM   24  C   UNL     1      24.714  49.155  48.709  1.00  0.00     0.089 A 
HETATM   25  C   UNL     1      25.604  50.062  48.119  1.00  0.00     0.038 A 
HETATM   26  C   UNL     1      26.974  49.987  48.383  1.00  0.00     0.003 A 
HETATM   27  C   UNL     1      27.468  49.001  49.229  1.00  0.00     0.002 A 
HETATM   28  C   UNL     1      26.593  48.093  49.821  1.00  0.00     0.026 A 
BRANCH  24  29
HETATM   29  O   UNL     1      23.357  49.158  48.478  1.00  0.00    -0.354 OA
HETATM   30  C   UNL     1      22.862  50.229  47.681  1.00  0.00     0.210 C 
ENDBRANCH  24  29
ENDBRANCH  21  23
ENDBRANCH  20  21
ENDBRANCH   1  20
TORSDOF 8
ENDMDL
MODEL 9
REMARK VINA RESULT:      -8.1      3.120      4.779
REMARK  8 active torsions:
REMARK  status: ('A' for Active; 'I' for Inactive)
REMARK    1  A    between atoms: O_2  and  C_3 
REMARK    2  A    between atoms: C_4  and  N_5 
REMARK    3  A    between atoms: N_5  and  C_6 
REMARK    4  A    between atoms: C_6  and  C_7 
REMARK       I    between atoms: C_7  and  N_8 
REMARK    5  A    between atoms: N_8  and  N_9 
REMARK    6  A    between atoms: N_9  and  C_10 
REMARK    7  A    between atoms: C_10  and  C_11 
REMARK       I    between atoms: C_11  and  N_12 
REMARK    8  A    between atoms: N_12  and  C_13 
ROOT
HETATM    1  C   UNL     1      23.806  48.916  49.391  1.00  0.00     0.245 C 
HETATM    2  N   UNL     1      23.248  47.648  49.536  1.00  0.00    -0.290 N 
HETATM    3  O   UNL     1      25.005  49.130  49.201  1.00  0.00    -0.271 OA
HETATM    4  H   UNL     1      22.307  47.575  49.920  1.00  0.00     0.183 HD
ENDROOT
BRANCH   2   5
HETATM    5  N   UNL     1      24.074  46.499  49.470  1.00  0.00    -0.229 NA
HETATM    6  H   UNL     1      23.670  45.839  48.797  1.00  0.00     0.147 HD
BRANCH   5   7
HETATM    7  C   UNL     1      24.166  45.842  50.789  1.00  0.00     0.213 C 
BRANCH   7   8
HETATM    8  C   UNL     1      25.514  46.165  51.437  1.00  0.00     0.236 C 
HETATM    9  N   UNL     1      25.648  45.611  52.701  1.00  0.00    -0.326 N 
HETATM   10  H   UNL     1      24.823  45.117  53.037  1.00  0.00     0.169 HD
HETATM   11  O   UNL     1      26.358  46.826  50.836  1.00  0.00    -0.272 OA
BRANCH   9  12
HETATM   12  C   UNL     1      26.759  45.693  53.564  1.00  0.00     0.036 A 
HETATM   13  C   UNL     1      27.719  44.684  53.696  1.00  0.00     0.056 A 
HETATM   14  C   UNL     1      28.796  44.846  54.574  1.00  0.00     0.074 A 
HETATM   15 CL   UNL     1      29.969  43.592  54.719  1.00  0.00    -0.081 Cl
HETATM   16  C   UNL     1      28.917  46.013  55.321  1.00  0.00     0.138 A 
HETATM   17  F   UNL     1      29.944  46.186  56.166  1.00  0.00    -0.204 F 
HETATM   18  C   UNL     1      27.971  47.024  55.202  1.00  0.00     0.046 A 
HETATM   19  C   UNL     1      26.894  46.864  54.325  1.00  0.00     0.032 A 
ENDBRANCH   9  12
ENDBRANCH   7   8
ENDBRANCH   5   7
ENDBRANCH   2   5
BRANCH   1  20
HETATM   20  C   UNL     1      22.796  50.057  49.568  1.00  0.00     0.196 C 
BRANCH  20  21
HETATM   21  N   UNL     1      21.457  49.484  49.805  1.00  0.00    -0.282 NA
HETATM   22  H   UNL     1      21.404  49.178  50.778  1.00  0.00     0.128 HD
BRANCH  21  23
HETATM   23  C   UNL     1      20.446  50.462  49.585  1.00  0.00     0.042 A 
HETATM   24  C   UNL     1      19.231  50.458  50.304  1.00  0.00     0.089 A 
HETATM   25  C   UNL     1      18.243  51.401  49.993  1.00  0.00     0.038 A 
HETATM   26  C   UNL     1      18.448  52.335  48.974  1.00  0.00     0.003 A 
HETATM   27  C   UNL     1      19.636  52.330  48.252  1.00  0.00     0.002 A 
HETATM   28  C   UNL     1      20.626  51.397  48.552  1.00  0.00     0.026 A 
BRANCH  24  29
HETATM   29  O   UNL     1      19.090  49.497  51.279  1.00  0.00    -0.354 OA
HETATM   30  C   UNL     1      18.325  48.351  50.918  1.00  0.00     0.210 C 
ENDBRANCH  24  29
ENDBRANCH  21  23
ENDBRANCH  20  21
ENDBRANCH   1  20
TORSDOF 8
ENDMDL
MODEL 10
REMARK VINA RESULT:      -8.1      3.707      7.849
REMARK  8 active torsions:
REMARK  status: ('A' for Active; 'I' for Inactive)
REMARK    1  A    between atoms: O_2  and  C_3 
REMARK    2  A    between atoms: C_4  and  N_5 
REMARK    3  A    between atoms: N_5  and  C_6 
REMARK    4  A    between atoms: C_6  and  C_7 
REMARK       I    between atoms: C_7  and  N_8 
REMARK    5  A    between atoms: N_8  and  N_9 
REMARK    6  A    between atoms: N_9  and  C_10 
REMARK    7  A    between atoms: C_10  and  C_11 
REMARK       I    between atoms: C_11  and  N_12 
REMARK    8  A    between atoms: N_12  and  C_13 
ROOT
HETATM    1  C   UNL     1      28.352  40.919  52.283  1.00  0.00     0.245 C 
HETATM    2  N   UNL     1      26.982  41.168  52.256  1.00  0.00    -0.290 N 
HETATM    3  O   UNL     1      28.919  40.076  51.586  1.00  0.00    -0.271 OA
HETATM    4  H   UNL     1      26.572  41.704  53.021  1.00  0.00     0.183 HD
ENDROOT
BRANCH   2   5
HETATM    5  N   UNL     1      26.144  40.428  51.387  1.00  0.00    -0.229 NA
HETATM    6  H   UNL     1      26.612  39.549  51.145  1.00  0.00     0.147 HD
BRANCH   5   7
HETATM    7  C   UNL     1      25.875  41.184  50.147  1.00  0.00     0.213 C 
BRANCH   7   8
HETATM    8  C   UNL     1      25.362  42.584  50.494  1.00  0.00     0.236 C 
HETATM    9  N   UNL     1      25.750  43.541  49.570  1.00  0.00    -0.326 N 
HETATM   10  H   UNL     1      26.356  43.194  48.828  1.00  0.00     0.169 HD
HETATM   11  O   UNL     1      24.659  42.768  51.486  1.00  0.00    -0.272 OA
BRANCH   9  12
HETATM   12  C   UNL     1      25.439  44.916  49.571  1.00  0.00     0.036 A 
HETATM   13  C   UNL     1      26.391  45.930  49.717  1.00  0.00     0.056 A 
HETATM   14  C   UNL     1      25.998  47.273  49.702  1.00  0.00     0.074 A 
HETATM   15 CL   UNL     1      27.188  48.507  49.880  1.00  0.00    -0.081 Cl
HETATM   16  C   UNL     1      24.657  47.605  49.542  1.00  0.00     0.138 A 
HETATM   17  F   UNL     1      24.263  48.887  49.524  1.00  0.00    -0.204 F 
HETATM   18  C   UNL     1      23.699  46.609  49.398  1.00  0.00     0.046 A 
HETATM   19  C   UNL     1      24.090  45.267  49.412  1.00  0.00     0.032 A 
ENDBRANCH   9  12
ENDBRANCH   7   8
ENDBRANCH   5   7
ENDBRANCH   2   5
BRANCH   1  20
HETATM   20  C   UNL     1      29.107  41.745  53.333  1.00  0.00     0.196 C 
BRANCH  20  21
HETATM   21  N   UNL     1      28.683  43.154  53.236  1.00  0.00    -0.282 NA
HETATM   22  H   UNL     1      27.662  43.188  53.269  1.00  0.00     0.128 HD
BRANCH  21  23
HETATM   23  C   UNL     1      29.193  43.909  54.330  1.00  0.00     0.042 A 
HETATM   24  C   UNL     1      28.641  45.154  54.703  1.00  0.00     0.089 A 
HETATM   25  C   UNL     1      29.232  45.886  55.740  1.00  0.00     0.038 A 
HETATM   26  C   UNL     1      30.364  45.399  56.399  1.00  0.00     0.003 A 
HETATM   27  C   UNL     1      30.921  44.182  56.022  1.00  0.00     0.002 A 
HETATM   28  C   UNL     1      30.343  43.445  54.991  1.00  0.00     0.026 A 
BRANCH  24  29
HETATM   29  O   UNL     1      27.540  45.581  53.998  1.00  0.00    -0.354 OA
HETATM   30  C   UNL     1      26.758  46.597  54.619  1.00  0.00     0.210 C 
ENDBRANCH  24  29
ENDBRANCH  21  23
ENDBRANCH  20  21
ENDBRANCH   1  20
TORSDOF 8
ENDMDL
