MODEL 1
REMARK VINA RESULT:      -9.1      0.000      0.000
REMARK  5 active torsions:
REMARK  status: ('A' for Active; 'I' for Inactive)
REMARK    1  A    between atoms: C_4  and  N_5 
REMARK    2  A    between atoms: C_8  and  N_9 
REMARK    3  A    between atoms: C_14  and  N_15 
REMARK    4  A    between atoms: N_15  and  C_16 
REMARK    5  A    between atoms: C_19  and  C_20 
REMARK       I    between atoms: C_20  and  N_21 
ROOT
HETATM    1  C   UNL     1      26.334  48.801  55.973  1.00  0.00     0.071 C 
HETATM    2  C   UNL     1      26.736  47.626  55.134  1.00  0.00     0.053 A 
HETATM    3  N   UNL     1      27.736  46.854  55.589  1.00  0.00    -0.066 NA
HETATM    4  C   UNL     1      28.108  45.813  54.816  1.00  0.00     0.751 A 
HETATM    5  N   UNL     1      27.551  45.512  53.622  1.00  0.00    -0.043 NA
HETATM    6  C   UNL     1      26.545  46.291  53.196  1.00  0.00     0.149 A 
HETATM    7  C   UNL     1      26.097  47.368  53.940  1.00  0.00     0.078 A 
ENDROOT
BRANCH   6   8
HETATM    8  N   UNL     1      25.906  46.040  51.961  1.00  0.00    -0.340 N 
HETATM    9  H   UNL     1      26.111  45.100  51.643  1.00  0.00     0.167 HD
BRANCH   8  10
HETATM   10  C   UNL     1      25.647  46.937  50.905  1.00  0.00     0.033 A 
HETATM   11  C   UNL     1      24.318  47.183  50.525  1.00  0.00     0.030 A 
HETATM   12  C   UNL     1      24.004  48.140  49.551  1.00  0.00     0.019 A 
HETATM   13  C   UNL     1      25.023  48.885  48.950  1.00  0.00     0.032 A 
HETATM   14  C   UNL     1      26.348  48.670  49.340  1.00  0.00     0.019 A 
HETATM   15  C   UNL     1      26.652  47.707  50.309  1.00  0.00     0.030 A 
BRANCH  13  16
HETATM   16  C   UNL     1      24.746  49.943  47.942  1.00  0.00     0.249 C 
HETATM   17  N   UNL     1      23.447  50.334  47.775  1.00  0.00    -0.366 N 
HETATM   18  H   UNL     1      22.667  49.795  48.120  1.00  0.00     0.159 HD
HETATM   19  H   UNL     1      23.273  50.976  47.012  1.00  0.00     0.159 HD
HETATM   20  O   UNL     1      25.639  50.432  47.261  1.00  0.00    -0.268 OA
ENDBRANCH  13  16
ENDBRANCH   8  10
ENDBRANCH   6   8
BRANCH   4  21
HETATM   21  N   UNL     1      29.150  44.945  55.296  1.00  0.00    -0.069 N 
HETATM   22  N   UNL     1      29.581  43.849  54.597  1.00  0.00    -0.163 NA
HETATM   23  C   UNL     1      30.556  43.334  55.349  1.00  0.00     0.177 A 
HETATM   24  C   UNL     1      30.772  44.069  56.522  1.00  0.00     0.140 A 
HETATM   25  C   UNL     1      29.854  45.095  56.477  1.00  0.00     0.175 A 
BRANCH  24  26
HETATM   26  N   UNL     1      31.739  43.817  57.543  1.00  0.00    -0.113 N 
HETATM   27  O   UNL     1      31.766  44.611  58.491  1.00  0.00    -0.532 OA
HETATM   28  O   UNL     1      32.466  42.827  57.400  1.00  0.00    -0.532 OA
ENDBRANCH  24  26
ENDBRANCH   4  21
TORSDOF 5
ENDMDL
MODEL 2
REMARK VINA RESULT:      -8.4      2.467      8.964
REMARK  5 active torsions:
REMARK  status: ('A' for Active; 'I' for Inactive)
REMARK    1  A    between atoms: C_4  and  N_5 
REMARK    2  A    between atoms: C_8  and  N_9 
REMARK    3  A    between atoms: C_14  and  N_15 
REMARK    4  A    between atoms: N_15  and  C_16 
REMARK    5  A    between atoms: C_19  and  C_20 
REMARK       I    between atoms: C_20  and  N_21 
ROOT
HETATM    1  C   UNL     1      24.023  42.363  49.846  1.00  0.00     0.071 C 
HETATM    2  C   UNL     1      25.186  43.247  50.184  1.00  0.00     0.053 A 
HETATM    3  N   UNL     1      25.143  44.518  49.751  1.00  0.00    -0.066 NA
HETATM    4  C   UNL     1      26.203  45.301  50.038  1.00  0.00     0.751 A 
HETATM    5  N   UNL     1      27.297  44.885  50.713  1.00  0.00    -0.043 NA
HETATM    6  C   UNL     1      27.310  43.614  51.146  1.00  0.00     0.149 A 
HETATM    7  C   UNL     1      26.253  42.755  50.904  1.00  0.00     0.078 A 
ENDROOT
BRANCH   6   8
HETATM    8  N   UNL     1      28.415  43.103  51.864  1.00  0.00    -0.340 N 
HETATM    9  H   UNL     1      28.534  42.115  51.671  1.00  0.00     0.167 HD
BRANCH   8  10
HETATM   10  C   UNL     1      28.889  43.479  53.137  1.00  0.00     0.033 A 
HETATM   11  C   UNL     1      30.079  42.913  53.620  1.00  0.00     0.030 A 
HETATM   12  C   UNL     1      30.643  43.329  54.833  1.00  0.00     0.019 A 
HETATM   13  C   UNL     1      30.029  44.339  55.579  1.00  0.00     0.032 A 
HETATM   14  C   UNL     1      28.859  44.932  55.095  1.00  0.00     0.019 A 
HETATM   15  C   UNL     1      28.299  44.505  53.885  1.00  0.00     0.030 A 
BRANCH  13  16
HETATM   16  C   UNL     1      30.604  44.850  56.852  1.00  0.00     0.249 C 
HETATM   17  N   UNL     1      31.369  43.990  57.591  1.00  0.00    -0.366 N 
HETATM   18  H   UNL     1      31.367  42.992  57.440  1.00  0.00     0.159 HD
HETATM   19  H   UNL     1      31.659  44.326  58.500  1.00  0.00     0.159 HD
HETATM   20  O   UNL     1      30.385  45.988  57.247  1.00  0.00    -0.268 OA
ENDBRANCH  13  16
ENDBRANCH   8  10
ENDBRANCH   6   8
BRANCH   4  21
HETATM   21  N   UNL     1      26.168  46.677  49.622  1.00  0.00    -0.069 N 
HETATM   22  N   UNL     1      27.297  47.386  49.313  1.00  0.00    -0.163 NA
HETATM   23  C   UNL     1      26.850  48.592  48.955  1.00  0.00     0.177 A 
HETATM   24  C   UNL     1      25.454  48.685  49.022  1.00  0.00     0.140 A 
HETATM   25  C   UNL     1      25.032  47.449  49.461  1.00  0.00     0.175 A 
BRANCH  24  26
HETATM   26  N   UNL     1      24.639  49.812  48.697  1.00  0.00    -0.113 N 
HETATM   27  O   UNL     1      23.725  50.083  49.486  1.00  0.00    -0.532 OA
HETATM   28  O   UNL     1      24.913  50.428  47.660  1.00  0.00    -0.532 OA
ENDBRANCH  24  26
ENDBRANCH   4  21
TORSDOF 5
ENDMDL
MODEL 3
REMARK VINA RESULT:      -8.3      2.693      9.648
REMARK  5 active torsions:
REMARK  status: ('A' for Active; 'I' for Inactive)
REMARK    1  A    between atoms: C_4  and  N_5 
REMARK    2  A    between atoms: C_8  and  N_9 
REMARK    3  A    between atoms: C_14  and  N_15 
REMARK    4  A    between atoms: N_15  and  C_16 
REMARK    5  A    between atoms: C_19  and  C_20 
REMARK       I    between atoms: C_20  and  N_21 
ROOT
HETATM    1  C   UNL     1      27.589  49.353  48.813  1.00  0.00     0.071 C 
HETATM    2  C   UNL     1      26.424  48.658  49.451  1.00  0.00     0.053 A 
HETATM    3  N   UNL     1      25.194  49.104  49.147  1.00  0.00    -0.066 NA
HETATM    4  C   UNL     1      24.153  48.489  49.744  1.00  0.00     0.751 A 
HETATM    5  N   UNL     1      24.272  47.475  50.628  1.00  0.00    -0.043 NA
HETATM    6  C   UNL     1      25.510  47.039  50.906  1.00  0.00     0.149 A 
HETATM    7  C   UNL     1      26.628  47.609  50.321  1.00  0.00     0.078 A 
ENDROOT
BRANCH   6   8
HETATM    8  N   UNL     1      25.720  45.978  51.816  1.00  0.00    -0.340 N 
HETATM    9  H   UNL     1      24.884  45.409  51.891  1.00  0.00     0.167 HD
BRANCH   8  10
HETATM   10  C   UNL     1      26.508  45.962  52.985  1.00  0.00     0.033 A 
HETATM   11  C   UNL     1      27.296  44.835  53.265  1.00  0.00     0.030 A 
HETATM   12  C   UNL     1      28.171  44.812  54.359  1.00  0.00     0.019 A 
HETATM   13  C   UNL     1      28.285  45.934  55.185  1.00  0.00     0.032 A 
HETATM   14  C   UNL     1      27.527  47.073  54.901  1.00  0.00     0.019 A 
HETATM   15  C   UNL     1      26.650  47.084  53.810  1.00  0.00     0.030 A 
BRANCH  13  16
HETATM   16  C   UNL     1      29.227  45.982  56.335  1.00  0.00     0.249 C 
HETATM   17  N   UNL     1      28.696  46.159  57.582  1.00  0.00    -0.366 N 
HETATM   18  H   UNL     1      27.752  46.484  57.731  1.00  0.00     0.159 HD
HETATM   19  H   UNL     1      29.362  46.293  58.332  1.00  0.00     0.159 HD
HETATM   20  O   UNL     1      30.439  45.893  56.179  1.00  0.00    -0.268 OA
ENDBRANCH  13  16
ENDBRANCH   8  10
ENDBRANCH   6   8
BRANCH   4  21
HETATM   21  N   UNL     1      22.823  48.919  49.408  1.00  0.00    -0.069 N 
HETATM   22  N   UNL     1      21.905  48.093  48.817  1.00  0.00    -0.163 NA
HETATM   23  C   UNL     1      20.807  48.842  48.696  1.00  0.00     0.177 A 
HETATM   24  C   UNL     1      20.987  50.139  49.194  1.00  0.00     0.140 A 
HETATM   25  C   UNL     1      22.290  50.174  49.639  1.00  0.00     0.175 A 
BRANCH  24  26
HETATM   26  N   UNL     1      20.028  51.196  49.241  1.00  0.00    -0.113 N 
HETATM   27  O   UNL     1      20.160  52.103  48.411  1.00  0.00    -0.532 OA
HETATM   28  O   UNL     1      19.142  51.117  50.101  1.00  0.00    -0.532 OA
ENDBRANCH  24  26
ENDBRANCH   4  21
TORSDOF 5
ENDMDL
MODEL 4
REMARK VINA RESULT:      -8.1      2.110      3.221
REMARK  5 active torsions:
REMARK  status: ('A' for Active; 'I' for Inactive)
REMARK    1  A    between atoms: C_4  and  N_5 
REMARK    2  A    between atoms: C_8  and  N_9 
REMARK    3  A    between atoms: C_14  and  N_15 
REMARK    4  A    between atoms: N_15  and  C_16 
REMARK    5  A    between atoms: C_19  and  C_20 
REMARK       I    between atoms: C_20  and  N_21 
ROOT
HETATM    1  C   UNL     1      28.686  40.523  51.524  1.00  0.00     0.071 C 
HETATM    2  C   UNL     1      28.290  41.860  52.076  1.00  0.00     0.053 A 
HETATM    3  N   UNL     1      28.974  42.319  53.137  1.00  0.00    -0.066 NA
HETATM    4  C   UNL     1      28.595  43.510  53.643  1.00  0.00     0.751 A 
HETATM    5  N   UNL     1      27.574  44.253  53.161  1.00  0.00    -0.043 NA
HETATM    6  C   UNL     1      26.915  43.779  52.093  1.00  0.00     0.149 A 
HETATM    7  C   UNL     1      27.255  42.571  51.509  1.00  0.00     0.078 A 
ENDROOT
BRANCH   6   8
HETATM    8  N   UNL     1      25.839  44.498  51.526  1.00  0.00    -0.340 N 
HETATM    9  H   UNL     1      25.097  43.863  51.251  1.00  0.00     0.167 HD
BRANCH   8  10
HETATM   10  C   UNL     1      25.876  45.674  50.750  1.00  0.00     0.033 A 
HETATM   11  C   UNL     1      24.758  46.522  50.737  1.00  0.00     0.030 A 
HETATM   12  C   UNL     1      24.784  47.751  50.064  1.00  0.00     0.019 A 
HETATM   13  C   UNL     1      25.945  48.161  49.403  1.00  0.00     0.032 A 
HETATM   14  C   UNL     1      27.075  47.338  49.432  1.00  0.00     0.019 A 
HETATM   15  C   UNL     1      27.037  46.109  50.101  1.00  0.00     0.030 A 
BRANCH  13  16
HETATM   16  C   UNL     1      26.043  49.472  48.707  1.00  0.00     0.249 C 
HETATM   17  N   UNL     1      27.294  49.939  48.413  1.00  0.00    -0.366 N 
HETATM   18  H   UNL     1      28.129  49.567  48.839  1.00  0.00     0.159 HD
HETATM   19  H   UNL     1      27.337  50.878  48.036  1.00  0.00     0.159 HD
HETATM   20  O   UNL     1      25.048  50.128  48.427  1.00  0.00    -0.268 OA
ENDBRANCH  13  16
ENDBRANCH   8  10
ENDBRANCH   6   8
BRANCH   4  21
HETATM   21  N   UNL     1      29.334  44.046  54.754  1.00  0.00    -0.069 N 
HETATM   22  N   UNL     1      29.190  45.337  55.186  1.00  0.00    -0.163 NA
HETATM   23  C   UNL     1      30.011  45.435  56.234  1.00  0.00     0.177 A 
HETATM   24  C   UNL     1      30.688  44.236  56.496  1.00  0.00     0.140 A 
HETATM   25  C   UNL     1      30.248  43.358  55.531  1.00  0.00     0.175 A 
BRANCH  24  26
HETATM   26  N   UNL     1      31.625  43.975  57.541  1.00  0.00    -0.113 N 
HETATM   27  O   UNL     1      31.615  44.752  58.504  1.00  0.00    -0.532 OA
HETATM   28  O   UNL     1      32.366  42.994  57.404  1.00  0.00    -0.532 OA
ENDBRANCH  24  26
ENDBRANCH   4  21
TORSDOF 5
ENDMDL
MODEL 5
REMARK VINA RESULT:      -8.0      3.142      4.060
REMARK  5 active torsions:
REMARK  status: ('A' for Active; 'I' for Inactive)
REMARK    1  A    between atoms: C_4  and  N_5 
REMARK    2  A    between atoms: C_8  and  N_9 
REMARK    3  A    between atoms: C_14  and  N_15 
REMARK    4  A    between atoms: N_15  and  C_16 
REMARK    5  A    between atoms: C_19  and  C_20 
REMARK       I    between atoms: C_20  and  N_21 
ROOT
HETATM    1  C   UNL     1      26.398  48.951  55.868  1.00  0.00     0.071 C 
HETATM    2  C   UNL     1      26.739  47.722  55.079  1.00  0.00     0.053 A 
HETATM    3  N   UNL     1      27.744  46.955  55.532  1.00  0.00    -0.066 NA
HETATM    4  C   UNL     1      28.061  45.865  54.803  1.00  0.00     0.751 A 
HETATM    5  N   UNL     1      27.445  45.510  53.654  1.00  0.00    -0.043 NA
HETATM    6  C   UNL     1      26.435  46.286  53.230  1.00  0.00     0.149 A 
HETATM    7  C   UNL     1      26.042  47.412  53.931  1.00  0.00     0.078 A 
ENDROOT
BRANCH   6   8
HETATM    8  N   UNL     1      25.736  45.981  52.040  1.00  0.00    -0.340 N 
HETATM    9  H   UNL     1      24.847  46.468  52.020  1.00  0.00     0.167 HD
BRANCH   8  10
HETATM   10  C   UNL     1      25.724  44.776  51.309  1.00  0.00     0.033 A 
HETATM   11  C   UNL     1      24.654  43.884  51.476  1.00  0.00     0.030 A 
HETATM   12  C   UNL     1      24.545  42.723  50.699  1.00  0.00     0.019 A 
HETATM   13  C   UNL     1      25.505  42.445  49.721  1.00  0.00     0.032 A 
HETATM   14  C   UNL     1      26.561  43.340  49.525  1.00  0.00     0.019 A 
HETATM   15  C   UNL     1      26.664  44.494  50.311  1.00  0.00     0.030 A 
BRANCH  13  16
HETATM   16  C   UNL     1      25.419  41.250  48.839  1.00  0.00     0.249 C 
HETATM   17  N   UNL     1      25.641  40.027  49.407  1.00  0.00    -0.366 N 
HETATM   18  H   UNL     1      26.078  39.917  50.310  1.00  0.00     0.159 HD
HETATM   19  H   UNL     1      25.681  39.244  48.768  1.00  0.00     0.159 HD
HETATM   20  O   UNL     1      25.185  41.350  47.641  1.00  0.00    -0.268 OA
ENDBRANCH  13  16
ENDBRANCH   8  10
ENDBRANCH   6   8
BRANCH   4  21
HETATM   21  N   UNL     1      29.107  45.003  55.284  1.00  0.00    -0.069 N 
HETATM   22  N   UNL     1      29.545  43.910  54.587  1.00  0.00    -0.163 NA
HETATM   23  C   UNL     1      30.522  43.400  55.340  1.00  0.00     0.177 A 
HETATM   24  C   UNL     1      30.732  44.135  56.513  1.00  0.00     0.140 A 
HETATM   25  C   UNL     1      29.808  45.156  56.467  1.00  0.00     0.175 A 
BRANCH  24  26
HETATM   26  N   UNL     1      31.698  43.890  57.536  1.00  0.00    -0.113 N 
HETATM   27  O   UNL     1      32.447  42.919  57.371  1.00  0.00    -0.532 OA
HETATM   28  O   UNL     1      31.712  44.666  58.499  1.00  0.00    -0.532 OA
ENDBRANCH  24  26
ENDBRANCH   4  21
TORSDOF 5
ENDMDL
MODEL 6
REMARK VINA RESULT:      -8.0      4.114      6.168
REMARK  5 active torsions:
REMARK  status: ('A' for Active; 'I' for Inactive)
REMARK    1  A    between atoms: C_4  and  N_5 
REMARK    2  A    between atoms: C_8  and  N_9 
REMARK    3  A    between atoms: C_14  and  N_15 
REMARK    4  A    between atoms: N_15  and  C_16 
REMARK    5  A    between atoms: C_19  and  C_20 
REMARK       I    between atoms: C_20  and  N_21 
ROOT
HETATM    1  C   UNL     1      27.274  49.729  48.508  1.00  0.00     0.071 C 
HETATM    2  C   UNL     1      26.145  49.005  49.178  1.00  0.00     0.053 A 
HETATM    3  N   UNL     1      26.425  48.326  50.302  1.00  0.00    -0.066 NA
HETATM    4  C   UNL     1      25.409  47.657  50.885  1.00  0.00     0.751 A 
HETATM    5  N   UNL     1      24.147  47.619  50.405  1.00  0.00    -0.043 NA
HETATM    6  C   UNL     1      23.890  48.316  49.287  1.00  0.00     0.149 A 
HETATM    7  C   UNL     1      24.876  49.040  48.640  1.00  0.00     0.078 A 
ENDROOT
BRANCH   6   8
HETATM    8  N   UNL     1      22.594  48.332  48.723  1.00  0.00    -0.340 N 
HETATM    9  H   UNL     1      22.623  48.004  47.765  1.00  0.00     0.167 HD
BRANCH   8  10
HETATM   10  C   UNL     1      21.537  49.232  48.968  1.00  0.00     0.033 A 
HETATM   11  C   UNL     1      21.695  50.584  48.627  1.00  0.00     0.030 A 
HETATM   12  C   UNL     1      20.639  51.496  48.757  1.00  0.00     0.019 A 
HETATM   13  C   UNL     1      19.393  51.061  49.217  1.00  0.00     0.032 A 
HETATM   14  C   UNL     1      19.214  49.711  49.533  1.00  0.00     0.019 A 
HETATM   15  C   UNL     1      20.277  48.809  49.406  1.00  0.00     0.030 A 
BRANCH  13  16
HETATM   16  C   UNL     1      18.225  51.975  49.336  1.00  0.00     0.249 C 
HETATM   17  N   UNL     1      18.114  52.982  48.418  1.00  0.00    -0.366 N 
HETATM   18  H   UNL     1      18.881  53.270  47.829  1.00  0.00     0.159 HD
HETATM   19  H   UNL     1      17.372  53.650  48.583  1.00  0.00     0.159 HD
HETATM   20  O   UNL     1      17.402  51.855  50.235  1.00  0.00    -0.268 OA
ENDBRANCH  13  16
ENDBRANCH   8  10
ENDBRANCH   6   8
BRANCH   4  21
HETATM   21  N   UNL     1      25.670  46.954  52.111  1.00  0.00    -0.069 N 
HETATM   22  N   UNL     1      26.322  47.527  53.169  1.00  0.00    -0.163 NA
HETATM   23  C   UNL     1      26.342  46.577  54.107  1.00  0.00     0.177 A 
HETATM   24  C   UNL     1      25.716  45.397  53.685  1.00  0.00     0.140 A 
HETATM   25  C   UNL     1      25.298  45.653  52.398  1.00  0.00     0.175 A 
BRANCH  24  26
HETATM   26  N   UNL     1      25.539  44.190  54.429  1.00  0.00    -0.113 N 
HETATM   27  O   UNL     1      26.525  43.451  54.532  1.00  0.00    -0.532 OA
HETATM   28  O   UNL     1      24.419  43.984  54.913  1.00  0.00    -0.532 OA
ENDBRANCH  24  26
ENDBRANCH   4  21
TORSDOF 5
ENDMDL
MODEL 7
REMARK VINA RESULT:      -8.0      2.667      9.185
REMARK  5 active torsions:
REMARK  status: ('A' for Active; 'I' for Inactive)
REMARK    1  A    between atoms: C_4  and  N_5 
REMARK    2  A    between atoms: C_8  and  N_9 
REMARK    3  A    between atoms: C_14  and  N_15 
REMARK    4  A    between atoms: N_15  and  C_16 
REMARK    5  A    between atoms: C_19  and  C_20 
REMARK       I    between atoms: C_20  and  N_21 
ROOT
HETATM    1  C   UNL     1      25.057  41.959  48.508  1.00  0.00     0.071 C 
HETATM    2  C   UNL     1      24.894  43.102  49.465  1.00  0.00     0.053 A 
HETATM    3  N   UNL     1      24.450  44.268  48.967  1.00  0.00    -0.066 NA
HETATM    4  C   UNL     1      24.330  45.298  49.830  1.00  0.00     0.751 A 
HETATM    5  N   UNL     1      24.637  45.232  51.144  1.00  0.00    -0.043 NA
HETATM    6  C   UNL     1      25.067  44.052  51.619  1.00  0.00     0.149 A 
HETATM    7  C   UNL     1      25.201  42.945  50.799  1.00  0.00     0.078 A 
ENDROOT
BRANCH   6   8
HETATM    8  N   UNL     1      25.404  43.899  52.983  1.00  0.00    -0.340 N 
HETATM    9  H   UNL     1      24.623  44.167  53.571  1.00  0.00     0.167 HD
BRANCH   8  10
HETATM   10  C   UNL     1      26.655  44.080  53.607  1.00  0.00     0.033 A 
HETATM   11  C   UNL     1      26.944  45.309  54.219  1.00  0.00     0.030 A 
HETATM   12  C   UNL     1      28.130  45.503  54.939  1.00  0.00     0.019 A 
HETATM   13  C   UNL     1      29.045  44.454  55.074  1.00  0.00     0.032 A 
HETATM   14  C   UNL     1      28.755  43.216  54.493  1.00  0.00     0.019 A 
HETATM   15  C   UNL     1      27.571  43.034  53.770  1.00  0.00     0.030 A 
BRANCH  13  16
HETATM   16  C   UNL     1      30.300  44.590  55.860  1.00  0.00     0.249 C 
HETATM   17  N   UNL     1      30.474  45.738  56.582  1.00  0.00    -0.366 N 
HETATM   18  H   UNL     1      29.923  46.568  56.426  1.00  0.00     0.159 HD
HETATM   19  H   UNL     1      31.379  45.850  57.021  1.00  0.00     0.159 HD
HETATM   20  O   UNL     1      31.164  43.722  55.847  1.00  0.00    -0.268 OA
ENDBRANCH  13  16
ENDBRANCH   8  10
ENDBRANCH   6   8
BRANCH   4  21
HETATM   21  N   UNL     1      23.820  46.547  49.334  1.00  0.00    -0.069 N 
HETATM   22  N   UNL     1      22.573  46.671  48.781  1.00  0.00    -0.163 NA
HETATM   23  C   UNL     1      22.468  47.966  48.475  1.00  0.00     0.177 A 
HETATM   24  C   UNL     1      23.617  48.691  48.817  1.00  0.00     0.140 A 
HETATM   25  C   UNL     1      24.479  47.763  49.358  1.00  0.00     0.175 A 
BRANCH  24  26
HETATM   26  N   UNL     1      23.847  50.090  48.649  1.00  0.00    -0.113 N 
HETATM   27  O   UNL     1      24.464  50.435  47.635  1.00  0.00    -0.532 OA
HETATM   28  O   UNL     1      23.407  50.844  49.527  1.00  0.00    -0.532 OA
ENDBRANCH  24  26
ENDBRANCH   4  21
TORSDOF 5
ENDMDL
MODEL 8
REMARK VINA RESULT:      -7.9      4.553      6.985
REMARK  5 active torsions:
REMARK  status: ('A' for Active; 'I' for Inactive)
REMARK    1  A    between atoms: C_4  and  N_5 
REMARK    2  A    between atoms: C_8  and  N_9 
REMARK    3  A    between atoms: C_14  and  N_15 
REMARK    4  A    between atoms: N_15  and  C_16 
REMARK    5  A    between atoms: C_19  and  C_20 
REMARK       I    between atoms: C_20  and  N_21 
ROOT
HETATM    1  C   UNL     1      26.957  50.073  48.447  1.00  0.00     0.071 C 
HETATM    2  C   UNL     1      25.680  49.392  48.840  1.00  0.00     0.053 A 
HETATM    3  N   UNL     1      25.775  48.292  49.605  1.00  0.00    -0.066 NA
HETATM    4  C   UNL     1      24.623  47.671  49.933  1.00  0.00     0.751 A 
HETATM    5  N   UNL     1      23.398  48.076  49.532  1.00  0.00    -0.043 NA
HETATM    6  C   UNL     1      23.329  49.184  48.779  1.00  0.00     0.149 A 
HETATM    7  C   UNL     1      24.465  49.885  48.414  1.00  0.00     0.078 A 
ENDROOT
BRANCH   6   8
HETATM    8  N   UNL     1      22.085  49.676  48.324  1.00  0.00    -0.340 N 
HETATM    9  H   UNL     1      22.035  50.681  48.454  1.00  0.00     0.167 HD
BRANCH   8  10
HETATM   10  C   UNL     1      20.823  49.050  48.359  1.00  0.00     0.033 A 
HETATM   11  C   UNL     1      20.451  48.196  47.309  1.00  0.00     0.030 A 
HETATM   12  C   UNL     1      19.252  47.473  47.349  1.00  0.00     0.019 A 
HETATM   13  C   UNL     1      18.407  47.581  48.457  1.00  0.00     0.032 A 
HETATM   14  C   UNL     1      18.779  48.406  49.523  1.00  0.00     0.019 A 
HETATM   15  C   UNL     1      19.976  49.130  49.471  1.00  0.00     0.030 A 
BRANCH  13  16
HETATM   16  C   UNL     1      17.143  46.806  48.572  1.00  0.00     0.249 C 
HETATM   17  N   UNL     1      17.205  45.458  48.356  1.00  0.00    -0.366 N 
HETATM   18  H   UNL     1      17.991  45.014  47.906  1.00  0.00     0.159 HD
HETATM   19  H   UNL     1      16.317  44.972  48.336  1.00  0.00     0.159 HD
HETATM   20  O   UNL     1      16.075  47.350  48.825  1.00  0.00    -0.268 OA
ENDBRANCH  13  16
ENDBRANCH   8  10
ENDBRANCH   6   8
BRANCH   4  21
HETATM   21  N   UNL     1      24.690  46.514  50.784  1.00  0.00    -0.069 N 
HETATM   22  N   UNL     1      24.208  45.289  50.408  1.00  0.00    -0.163 NA
HETATM   23  C   UNL     1      24.478  44.489  51.442  1.00  0.00     0.177 A 
HETATM   24  C   UNL     1      25.127  45.164  52.484  1.00  0.00     0.140 A 
HETATM   25  C   UNL     1      25.247  46.465  52.049  1.00  0.00     0.175 A 
BRANCH  24  26
HETATM   26  N   UNL     1      25.577  44.623  53.727  1.00  0.00    -0.113 N 
HETATM   27  O   UNL     1      24.709  44.171  54.483  1.00  0.00    -0.532 OA
HETATM   28  O   UNL     1      26.795  44.643  53.945  1.00  0.00    -0.532 OA
ENDBRANCH  24  26
ENDBRANCH   4  21
TORSDOF 5
ENDMDL
MODEL 9
REMARK VINA RESULT:      -7.8      3.024      9.859
REMARK  5 active torsions:
REMARK  status: ('A' for Active; 'I' for Inactive)
REMARK    1  A    between atoms: C_4  and  N_5 
REMARK    2  A    between atoms: C_8  and  N_9 
REMARK    3  A    between atoms: C_14  and  N_15 
REMARK    4  A    between atoms: N_15  and  C_16 
REMARK    5  A    between atoms: C_19  and  C_20 
REMARK       I    between atoms: C_20  and  N_21 
ROOT
HETATM    1  C   UNL     1      27.619  49.510  48.942  1.00  0.00     0.071 C 
HETATM    2  C   UNL     1      26.354  48.829  49.372  1.00  0.00     0.053 A 
HETATM    3  N   UNL     1      25.196  49.321  48.902  1.00  0.00    -0.066 NA
HETATM    4  C   UNL     1      24.062  48.718  49.313  1.00  0.00     0.751 A 
HETATM    5  N   UNL     1      24.020  47.672  50.167  1.00  0.00    -0.043 NA
HETATM    6  C   UNL     1      25.192  47.192  50.612  1.00  0.00     0.149 A 
HETATM    7  C   UNL     1      26.398  47.747  50.224  1.00  0.00     0.078 A 
ENDROOT
BRANCH   6   8
HETATM    8  N   UNL     1      25.235  46.096  51.504  1.00  0.00    -0.340 N 
HETATM    9  H   UNL     1      24.462  46.145  52.159  1.00  0.00     0.167 HD
BRANCH   8  10
HETATM   10  C   UNL     1      26.361  45.428  52.026  1.00  0.00     0.033 A 
HETATM   11  C   UNL     1      26.742  45.664  53.357  1.00  0.00     0.030 A 
HETATM   12  C   UNL     1      27.790  44.950  53.951  1.00  0.00     0.019 A 
HETATM   13  C   UNL     1      28.467  43.967  53.222  1.00  0.00     0.032 A 
HETATM   14  C   UNL     1      28.079  43.703  51.906  1.00  0.00     0.019 A 
HETATM   15  C   UNL     1      27.034  44.427  51.318  1.00  0.00     0.030 A 
BRANCH  13  16
HETATM   16  C   UNL     1      29.560  43.150  53.814  1.00  0.00     0.249 C 
HETATM   17  N   UNL     1      30.368  42.457  52.955  1.00  0.00    -0.366 N 
HETATM   18  H   UNL     1      30.122  42.290  51.991  1.00  0.00     0.159 HD
HETATM   19  H   UNL     1      31.034  41.828  53.386  1.00  0.00     0.159 HD
HETATM   20  O   UNL     1      29.723  43.072  55.025  1.00  0.00    -0.268 OA
ENDBRANCH  13  16
ENDBRANCH   8  10
ENDBRANCH   6   8
BRANCH   4  21
HETATM   21  N   UNL     1      22.809  49.198  48.795  1.00  0.00    -0.069 N 
HETATM   22  N   UNL     1      22.726  50.194  47.860  1.00  0.00    -0.163 NA
HETATM   23  C   UNL     1      21.419  50.328  47.625  1.00  0.00     0.177 A 
HETATM   24  C   UNL     1      20.646  49.440  48.385  1.00  0.00     0.140 A 
HETATM   25  C   UNL     1      21.554  48.728  49.137  1.00  0.00     0.175 A 
BRANCH  24  26
HETATM   26  N   UNL     1      19.225  49.295  48.377  1.00  0.00    -0.113 N 
HETATM   27  O   UNL     1      18.662  49.392  47.280  1.00  0.00    -0.532 OA
HETATM   28  O   UNL     1      18.674  49.080  49.464  1.00  0.00    -0.532 OA
ENDBRANCH  24  26
ENDBRANCH   4  21
TORSDOF 5
ENDMDL
MODEL 10
REMARK VINA RESULT:      -7.8      3.996      6.042
REMARK  5 active torsions:
REMARK  status: ('A' for Active; 'I' for Inactive)
REMARK    1  A    between atoms: C_4  and  N_5 
REMARK    2  A    between atoms: C_8  and  N_9 
REMARK    3  A    between atoms: C_14  and  N_15 
REMARK    4  A    between atoms: N_15  and  C_16 
REMARK    5  A    between atoms: C_19  and  C_20 
REMARK       I    between atoms: C_20  and  N_21 
ROOT
HETATM    1  C   UNL     1      26.458  50.184  48.131  1.00  0.00     0.071 C 
HETATM    2  C   UNL     1      25.660  49.103  48.797  1.00  0.00     0.053 A 
HETATM    3  N   UNL     1      26.336  48.067  49.319  1.00  0.00    -0.066 NA
HETATM    4  C   UNL     1      25.609  47.087  49.895  1.00  0.00     0.751 A 
HETATM    5  N   UNL     1      24.259  47.080  49.965  1.00  0.00    -0.043 NA
HETATM    6  C   UNL     1      23.608  48.133  49.448  1.00  0.00     0.149 A 
HETATM    7  C   UNL     1      24.285  49.185  48.855  1.00  0.00     0.078 A 
ENDROOT
BRANCH   6   8
HETATM    8  N   UNL     1      22.197  48.205  49.486  1.00  0.00    -0.340 N 
HETATM    9  H   UNL     1      21.795  47.280  49.379  1.00  0.00     0.167 HD
BRANCH   8  10
HETATM   10  C   UNL     1      21.354  49.233  49.019  1.00  0.00     0.033 A 
HETATM   11  C   UNL     1      20.607  49.028  47.848  1.00  0.00     0.030 A 
HETATM   12  C   UNL     1      19.680  49.979  47.401  1.00  0.00     0.019 A 
HETATM   13  C   UNL     1      19.471  51.150  48.134  1.00  0.00     0.032 A 
HETATM   14  C   UNL     1      20.188  51.353  49.318  1.00  0.00     0.019 A 
HETATM   15  C   UNL     1      21.117  50.401  49.753  1.00  0.00     0.030 A 
BRANCH  13  16
HETATM   16  C   UNL     1      18.471  52.175  47.730  1.00  0.00     0.249 C 
HETATM   17  N   UNL     1      18.019  53.033  48.693  1.00  0.00    -0.366 N 
HETATM   18  H   UNL     1      18.147  52.861  49.679  1.00  0.00     0.159 HD
HETATM   19  H   UNL     1      17.265  53.648  48.418  1.00  0.00     0.159 HD
HETATM   20  O   UNL     1      18.042  52.238  46.585  1.00  0.00    -0.268 OA
ENDBRANCH  13  16
ENDBRANCH   8  10
ENDBRANCH   6   8
BRANCH   4  21
HETATM   21  N   UNL     1      26.307  45.984  50.497  1.00  0.00    -0.069 N 
HETATM   22  N   UNL     1      26.958  45.030  49.762  1.00  0.00    -0.163 NA
HETATM   23  C   UNL     1      27.491  44.211  50.672  1.00  0.00     0.177 A 
HETATM   24  C   UNL     1      27.203  44.609  51.984  1.00  0.00     0.140 A 
HETATM   25  C   UNL     1      26.434  45.744  51.853  1.00  0.00     0.175 A 
BRANCH  24  26
HETATM   26  N   UNL     1      27.621  43.982  53.197  1.00  0.00    -0.113 N 
HETATM   27  O   UNL     1      26.944  43.025  53.590  1.00  0.00    -0.532 OA
HETATM   28  O   UNL     1      28.627  44.441  53.752  1.00  0.00    -0.532 OA
ENDBRANCH  24  26
ENDBRANCH   4  21
TORSDOF 5
ENDMDL
