MODEL 1
REMARK VINA RESULT:      -8.4      0.000      0.000
REMARK  5 active torsions:
REMARK  status: ('A' for Active; 'I' for Inactive)
REMARK    1  A    between atoms: C_7  and  N_8 
REMARK       I    between atoms: N_8  and  C_9 
REMARK       I    between atoms: C_9  and  N_10 
REMARK    2  A    between atoms: N_10  and  C_11 
REMARK    3  A    between atoms: C_18  and  C_19 
REMARK       I    between atoms: C_19  and  N_20 
REMARK    4  A    between atoms: N_20  and  C_21 
REMARK    5  A    between atoms: C_21  and  C_22 
ROOT
HETATM    1  C   UNL     1      18.416  48.260  49.028  1.00  0.00     0.104 C 
HETATM    2  C   UNL     1      17.165  48.969  48.440  1.00  0.00     0.150 C 
HETATM    3  N   UNL     1      17.454  49.633  47.173  1.00  0.00    -0.354 N 
HETATM    4  C   UNL     1      17.091  48.908  45.963  1.00  0.00     0.152 C 
HETATM    5  C   UNL     1      18.114  50.840  47.070  1.00  0.00     0.220 C 
HETATM    6  O   UNL     1      18.418  51.345  45.985  1.00  0.00    -0.273 OA
HETATM    7  C   UNL     1      18.523  51.562  48.339  1.00  0.00     0.117 C 
HETATM    8  C   UNL     1      19.959  51.352  48.846  1.00  0.00     0.086 C 
HETATM    9  C   UNL     1      19.988  50.939  50.344  1.00  0.00     0.014 C 
HETATM   10  C   UNL     1      19.909  49.461  50.768  1.00  0.00     0.003 C 
HETATM   11  C   UNL     1      18.618  48.678  50.500  1.00  0.00     0.027 C 
ENDROOT
BRANCH   1  12
HETATM   12  N   UNL     1      18.270  46.807  48.858  1.00  0.00    -0.337 N 
HETATM   13  C   UNL     1      19.026  45.872  48.221  1.00  0.00     0.321 C 
HETATM   14  N   UNL     1      20.205  46.295  47.694  1.00  0.00    -0.305 N 
HETATM   15  O   UNL     1      18.585  44.729  48.216  1.00  0.00    -0.247 OA
HETATM   16  H   UNL     1      20.321  47.287  47.568  1.00  0.00     0.171 HD
HETATM   17  H   UNL     1      17.412  46.372  49.182  1.00  0.00     0.164 HD
BRANCH  14  18
HETATM   18  C   UNL     1      21.242  45.501  47.218  1.00  0.00     0.094 A 
HETATM   19  C   UNL     1      21.596  45.353  45.842  1.00  0.00     0.087 A 
HETATM   20  C   UNL     1      20.980  45.987  44.654  1.00  0.00     0.075 C 
HETATM   21  N   UNL     1      22.652  44.549  45.685  1.00  0.00    -0.131 NA
HETATM   22  O   UNL     1      23.009  44.156  46.955  1.00  0.00    -0.216 OA
HETATM   23  C   UNL     1      22.178  44.726  47.873  1.00  0.00     0.103 A 
HETATM   24  C   UNL     1      22.495  44.372  49.270  1.00  0.00     0.081 C 
ENDBRANCH  14  18
ENDBRANCH   1  12
BRANCH   8  25
HETATM   25  C   UNL     1      20.972  50.577  47.988  1.00  0.00     0.222 C 
HETATM   26  N   UNL     1      22.280  50.982  48.072  1.00  0.00    -0.356 N 
HETATM   27  H   UNL     1      22.512  51.885  48.479  1.00  0.00     0.162 HD
HETATM   28  O   UNL     1      20.644  49.584  47.339  1.00  0.00    -0.273 OA
BRANCH  26  29
HETATM   29  C   UNL     1      23.340  50.314  47.350  1.00  0.00     0.161 C 
BRANCH  29  30
HETATM   30  C   UNL     1      24.264  49.545  48.259  1.00  0.00    -0.035 A 
HETATM   31  C   UNL     1      25.638  49.817  48.297  1.00  0.00     0.051 A 
HETATM   32  C   UNL     1      26.472  49.080  49.137  1.00  0.00     0.119 A 
HETATM   33  F   UNL     1      27.784  49.348  49.155  1.00  0.00    -0.206 F 
HETATM   34  C   UNL     1      25.972  48.069  49.945  1.00  0.00     0.084 A 
HETATM   35  C   UNL     1      24.613  47.796  49.904  1.00  0.00     0.119 A 
HETATM   36  F   UNL     1      24.109  46.824  50.674  1.00  0.00    -0.206 F 
HETATM   37  C   UNL     1      23.760  48.518  49.072  1.00  0.00     0.051 A 
ENDBRANCH  29  30
ENDBRANCH  26  29
ENDBRANCH   8  25
TORSDOF 5
ENDMDL
MODEL 2
REMARK VINA RESULT:      -8.2      1.320      2.037
REMARK  5 active torsions:
REMARK  status: ('A' for Active; 'I' for Inactive)
REMARK    1  A    between atoms: C_7  and  N_8 
REMARK       I    between atoms: N_8  and  C_9 
REMARK       I    between atoms: C_9  and  N_10 
REMARK    2  A    between atoms: N_10  and  C_11 
REMARK    3  A    between atoms: C_18  and  C_19 
REMARK       I    between atoms: C_19  and  N_20 
REMARK    4  A    between atoms: N_20  and  C_21 
REMARK    5  A    between atoms: C_21  and  C_22 
ROOT
HETATM    1  C   UNL     1      17.623  48.270  48.077  1.00  0.00     0.104 C 
HETATM    2  C   UNL     1      16.494  49.298  47.797  1.00  0.00     0.150 C 
HETATM    3  N   UNL     1      16.956  50.413  46.976  1.00  0.00    -0.354 N 
HETATM    4  C   UNL     1      16.661  50.336  45.552  1.00  0.00     0.152 C 
HETATM    5  C   UNL     1      17.712  51.462  47.459  1.00  0.00     0.220 C 
HETATM    6  O   UNL     1      18.160  52.353  46.731  1.00  0.00    -0.273 OA
HETATM    7  C   UNL     1      18.047  51.505  48.937  1.00  0.00     0.117 C 
HETATM    8  C   UNL     1      19.405  50.936  49.377  1.00  0.00     0.086 C 
HETATM    9  C   UNL     1      19.254  49.908  50.533  1.00  0.00     0.014 C 
HETATM   10  C   UNL     1      19.022  48.413  50.249  1.00  0.00     0.003 C 
HETATM   11  C   UNL     1      17.709  47.976  49.590  1.00  0.00     0.027 C 
ENDROOT
BRANCH   1  12
HETATM   12  N   UNL     1      17.386  47.063  47.270  1.00  0.00    -0.337 N 
HETATM   13  C   UNL     1      18.114  46.442  46.303  1.00  0.00     0.321 C 
HETATM   14  N   UNL     1      19.352  46.944  46.054  1.00  0.00    -0.305 N 
HETATM   15  O   UNL     1      17.594  45.467  45.774  1.00  0.00    -0.247 OA
HETATM   16  H   UNL     1      19.547  47.872  46.389  1.00  0.00     0.171 HD
HETATM   17  H   UNL     1      16.480  46.612  47.340  1.00  0.00     0.164 HD
BRANCH  14  18
HETATM   18  C   UNL     1      20.360  46.350  45.301  1.00  0.00     0.094 A 
HETATM   19  C   UNL     1      21.595  45.861  45.825  1.00  0.00     0.087 A 
HETATM   20  C   UNL     1      22.070  45.859  47.228  1.00  0.00     0.075 C 
HETATM   21  N   UNL     1      22.357  45.316  44.872  1.00  0.00    -0.131 NA
HETATM   22  O   UNL     1      21.636  45.439  43.707  1.00  0.00    -0.216 OA
HETATM   23  C   UNL     1      20.441  46.046  43.957  1.00  0.00     0.103 A 
HETATM   24  C   UNL     1      19.589  46.208  42.763  1.00  0.00     0.081 C 
ENDBRANCH  14  18
ENDBRANCH   1  12
BRANCH   8  25
HETATM   25  C   UNL     1      20.437  50.507  48.321  1.00  0.00     0.222 C 
HETATM   26  N   UNL     1      21.722  50.951  48.506  1.00  0.00    -0.356 N 
HETATM   27  H   UNL     1      21.913  51.711  49.156  1.00  0.00     0.162 HD
HETATM   28  O   UNL     1      20.149  49.726  47.414  1.00  0.00    -0.273 OA
BRANCH  26  29
HETATM   29  C   UNL     1      22.798  50.588  47.612  1.00  0.00     0.161 C 
BRANCH  29  30
HETATM   30  C   UNL     1      23.869  49.777  48.294  1.00  0.00    -0.035 A 
HETATM   31  C   UNL     1      25.227  50.069  48.113  1.00  0.00     0.051 A 
HETATM   32  C   UNL     1      26.198  49.292  48.745  1.00  0.00     0.119 A 
HETATM   33  F   UNL     1      27.493  49.580  48.555  1.00  0.00    -0.206 F 
HETATM   34  C   UNL     1      25.850  48.223  49.558  1.00  0.00     0.084 A 
HETATM   35  C   UNL     1      24.506  47.930  49.733  1.00  0.00     0.119 A 
HETATM   36  F   UNL     1      24.148  46.903  50.512  1.00  0.00    -0.206 F 
HETATM   37  C   UNL     1      23.519  48.691  49.111  1.00  0.00     0.051 A 
ENDBRANCH  29  30
ENDBRANCH  26  29
ENDBRANCH   8  25
TORSDOF 5
ENDMDL
MODEL 3
REMARK VINA RESULT:      -8.2      4.291      6.656
REMARK  5 active torsions:
REMARK  status: ('A' for Active; 'I' for Inactive)
REMARK    1  A    between atoms: C_7  and  N_8 
REMARK       I    between atoms: N_8  and  C_9 
REMARK       I    between atoms: C_9  and  N_10 
REMARK    2  A    between atoms: N_10  and  C_11 
REMARK    3  A    between atoms: C_18  and  C_19 
REMARK       I    between atoms: C_19  and  N_20 
REMARK    4  A    between atoms: N_20  and  C_21 
REMARK    5  A    between atoms: C_21  and  C_22 
ROOT
HETATM    1  C   UNL     1      20.221  48.676  49.002  1.00  0.00     0.104 C 
HETATM    2  C   UNL     1      19.030  48.361  49.946  1.00  0.00     0.150 C 
HETATM    3  N   UNL     1      17.760  48.299  49.229  1.00  0.00    -0.354 N 
HETATM    4  C   UNL     1      17.281  46.972  48.871  1.00  0.00     0.152 C 
HETATM    5  C   UNL     1      17.059  49.412  48.811  1.00  0.00     0.220 C 
HETATM    6  O   UNL     1      16.028  49.337  48.136  1.00  0.00    -0.273 OA
HETATM    7  C   UNL     1      17.594  50.788  49.155  1.00  0.00     0.117 C 
HETATM    8  C   UNL     1      18.447  51.506  48.096  1.00  0.00     0.086 C 
HETATM    9  C   UNL     1      19.795  52.007  48.684  1.00  0.00     0.014 C 
HETATM   10  C   UNL     1      21.046  51.110  48.695  1.00  0.00     0.003 C 
HETATM   11  C   UNL     1      21.050  49.849  49.568  1.00  0.00     0.027 C 
ENDROOT
BRANCH   1  12
HETATM   12  N   UNL     1      21.015  47.454  48.805  1.00  0.00    -0.337 N 
HETATM   13  C   UNL     1      22.355  47.214  48.811  1.00  0.00     0.321 C 
HETATM   14  N   UNL     1      23.161  48.255  49.145  1.00  0.00    -0.305 N 
HETATM   15  O   UNL     1      22.701  46.068  48.548  1.00  0.00    -0.247 OA
HETATM   16  H   UNL     1      22.760  49.177  49.103  1.00  0.00     0.171 HD
HETATM   17  H   UNL     1      20.531  46.610  48.518  1.00  0.00     0.164 HD
BRANCH  14  18
HETATM   18  C   UNL     1      24.517  48.199  49.451  1.00  0.00     0.094 A 
HETATM   19  C   UNL     1      25.522  49.033  48.872  1.00  0.00     0.087 A 
HETATM   20  C   UNL     1      25.368  50.108  47.866  1.00  0.00     0.075 C 
HETATM   21  N   UNL     1      26.732  48.774  49.378  1.00  0.00    -0.131 NA
HETATM   22  O   UNL     1      26.541  47.767  50.297  1.00  0.00    -0.216 OA
HETATM   23  C   UNL     1      25.222  47.426  50.351  1.00  0.00     0.103 A 
HETATM   24  C   UNL     1      24.918  46.360  51.324  1.00  0.00     0.081 C 
ENDBRANCH  14  18
ENDBRANCH   1  12
BRANCH   8  25
HETATM   25  C   UNL     1      18.590  50.905  46.688  1.00  0.00     0.222 C 
HETATM   26  N   UNL     1      17.456  50.883  45.916  1.00  0.00    -0.356 N 
HETATM   27  H   UNL     1      16.542  51.025  46.342  1.00  0.00     0.162 HD
HETATM   28  O   UNL     1      19.681  50.556  46.241  1.00  0.00    -0.273 OA
BRANCH  26  29
HETATM   29  C   UNL     1      17.458  50.384  44.559  1.00  0.00     0.161 C 
BRANCH  29  30
HETATM   30  C   UNL     1      17.567  51.486  43.538  1.00  0.00    -0.035 A 
HETATM   31  C   UNL     1      16.895  52.703  43.709  1.00  0.00     0.051 A 
HETATM   32  C   UNL     1      17.001  53.701  42.739  1.00  0.00     0.119 A 
HETATM   33  F   UNL     1      16.346  54.856  42.914  1.00  0.00    -0.206 F 
HETATM   34  C   UNL     1      17.764  53.517  41.594  1.00  0.00     0.084 A 
HETATM   35  C   UNL     1      18.424  52.310  41.422  1.00  0.00     0.119 A 
HETATM   36  F   UNL     1      19.163  52.110  40.325  1.00  0.00    -0.206 F 
HETATM   37  C   UNL     1      18.332  51.298  42.375  1.00  0.00     0.051 A 
ENDBRANCH  29  30
ENDBRANCH  26  29
ENDBRANCH   8  25
TORSDOF 5
ENDMDL
MODEL 4
REMARK VINA RESULT:      -7.9     23.009     25.915
REMARK  5 active torsions:
REMARK  status: ('A' for Active; 'I' for Inactive)
REMARK    1  A    between atoms: C_7  and  N_8 
REMARK       I    between atoms: N_8  and  C_9 
REMARK       I    between atoms: C_9  and  N_10 
REMARK    2  A    between atoms: N_10  and  C_11 
REMARK    3  A    between atoms: C_18  and  C_19 
REMARK       I    between atoms: C_19  and  N_20 
REMARK    4  A    between atoms: N_20  and  C_21 
REMARK    5  A    between atoms: C_21  and  C_22 
ROOT
HETATM    1  C   UNL     1      39.126  48.079  66.818  1.00  0.00     0.104 C 
HETATM    2  C   UNL     1      38.092  47.760  67.931  1.00  0.00     0.150 C 
HETATM    3  N   UNL     1      37.638  46.373  67.879  1.00  0.00    -0.354 N 
HETATM    4  C   UNL     1      38.283  45.445  68.797  1.00  0.00     0.152 C 
HETATM    5  C   UNL     1      36.717  45.899  66.967  1.00  0.00     0.220 C 
HETATM    6  O   UNL     1      36.407  44.706  66.890  1.00  0.00    -0.273 OA
HETATM    7  C   UNL     1      36.086  46.871  65.990  1.00  0.00     0.117 C 
HETATM    8  C   UNL     1      36.714  46.983  64.591  1.00  0.00     0.086 C 
HETATM    9  C   UNL     1      37.018  48.459  64.211  1.00  0.00     0.014 C 
HETATM   10  C   UNL     1      38.362  49.118  64.574  1.00  0.00     0.003 C 
HETATM   11  C   UNL     1      38.702  49.350  66.050  1.00  0.00     0.027 C 
ENDROOT
BRANCH   1  12
HETATM   12  N   UNL     1      40.463  48.191  67.421  1.00  0.00    -0.337 N 
HETATM   13  C   UNL     1      41.575  47.409  67.349  1.00  0.00     0.321 C 
HETATM   14  N   UNL     1      41.524  46.351  66.499  1.00  0.00    -0.305 N 
HETATM   15  O   UNL     1      42.528  47.760  68.035  1.00  0.00    -0.247 OA
HETATM   16  H   UNL     1      40.614  46.055  66.189  1.00  0.00     0.171 HD
HETATM   17  H   UNL     1      40.620  48.925  68.102  1.00  0.00     0.164 HD
BRANCH  14  18
HETATM   18  C   UNL     1      42.591  45.564  66.078  1.00  0.00     0.094 A 
HETATM   19  C   UNL     1      42.585  44.136  66.025  1.00  0.00     0.087 A 
HETATM   20  C   UNL     1      41.494  43.200  66.378  1.00  0.00     0.075 C 
HETATM   21  N   UNL     1      43.739  43.653  65.553  1.00  0.00    -0.131 NA
HETATM   22  O   UNL     1      44.520  44.755  65.289  1.00  0.00    -0.216 OA
HETATM   23  C   UNL     1      43.839  45.897  65.591  1.00  0.00     0.103 A 
HETATM   24  C   UNL     1      44.596  47.135  65.325  1.00  0.00     0.081 C 
ENDBRANCH  14  18
ENDBRANCH   1  12
BRANCH   8  25
HETATM   25  C   UNL     1      37.827  46.011  64.169  1.00  0.00     0.222 C 
HETATM   26  N   UNL     1      37.569  45.225  63.074  1.00  0.00    -0.356 N 
HETATM   27  H   UNL     1      36.617  45.123  62.729  1.00  0.00     0.162 HD
HETATM   28  O   UNL     1      38.928  46.007  64.719  1.00  0.00    -0.273 OA
BRANCH  26  29
HETATM   29  C   UNL     1      38.544  44.297  62.545  1.00  0.00     0.161 C 
BRANCH  29  30
HETATM   30  C   UNL     1      38.540  42.977  63.272  1.00  0.00    -0.035 A 
HETATM   31  C   UNL     1      39.652  42.125  63.235  1.00  0.00     0.051 A 
HETATM   32  C   UNL     1      39.616  40.902  63.905  1.00  0.00     0.119 A 
HETATM   33  F   UNL     1      40.684  40.095  63.854  1.00  0.00    -0.206 F 
HETATM   34  C   UNL     1      38.493  40.500  64.615  1.00  0.00     0.084 A 
HETATM   35  C   UNL     1      37.390  41.341  64.647  1.00  0.00     0.119 A 
HETATM   36  F   UNL     1      36.297  40.973  65.324  1.00  0.00    -0.206 F 
HETATM   37  C   UNL     1      37.403  42.566  63.985  1.00  0.00     0.051 A 
ENDBRANCH  29  30
ENDBRANCH  26  29
ENDBRANCH   8  25
TORSDOF 5
ENDMDL
MODEL 5
REMARK VINA RESULT:      -7.8     10.140     12.482
REMARK  5 active torsions:
REMARK  status: ('A' for Active; 'I' for Inactive)
REMARK    1  A    between atoms: C_7  and  N_8 
REMARK       I    between atoms: N_8  and  C_9 
REMARK       I    between atoms: C_9  and  N_10 
REMARK    2  A    between atoms: N_10  and  C_11 
REMARK    3  A    between atoms: C_18  and  C_19 
REMARK       I    between atoms: C_19  and  N_20 
REMARK    4  A    between atoms: N_20  and  C_21 
REMARK    5  A    between atoms: C_21  and  C_22 
ROOT
HETATM    1  C   UNL     1      29.217  50.345  39.053  1.00  0.00     0.104 C 
HETATM    2  C   UNL     1      29.865  51.368  38.081  1.00  0.00     0.150 C 
HETATM    3  N   UNL     1      31.144  51.866  38.578  1.00  0.00    -0.354 N 
HETATM    4  C   UNL     1      32.340  51.234  38.039  1.00  0.00     0.152 C 
HETATM    5  C   UNL     1      31.265  52.819  39.569  1.00  0.00     0.220 C 
HETATM    6  O   UNL     1      32.356  53.167  40.031  1.00  0.00    -0.273 OA
HETATM    7  C   UNL     1      30.008  53.437  40.150  1.00  0.00     0.117 C 
HETATM    8  C   UNL     1      29.452  52.831  41.449  1.00  0.00     0.086 C 
HETATM    9  C   UNL     1      27.942  52.487  41.325  1.00  0.00     0.014 C 
HETATM   10  C   UNL     1      27.473  51.118  40.802  1.00  0.00     0.003 C 
HETATM   11  C   UNL     1      27.754  50.742  39.342  1.00  0.00     0.027 C 
ENDROOT
BRANCH   1  12
HETATM   12  N   UNL     1      29.344  48.995  38.485  1.00  0.00    -0.337 N 
HETATM   13  C   UNL     1      28.671  47.833  38.707  1.00  0.00     0.321 C 
HETATM   14  N   UNL     1      27.604  47.897  39.546  1.00  0.00    -0.305 N 
HETATM   15  O   UNL     1      29.072  46.848  38.098  1.00  0.00    -0.247 OA
HETATM   16  H   UNL     1      27.539  48.703  40.146  1.00  0.00     0.171 HD
HETATM   17  H   UNL     1      30.126  48.808  37.866  1.00  0.00     0.164 HD
BRANCH  14  18
HETATM   18  C   UNL     1      26.631  46.921  39.739  1.00  0.00     0.094 A 
HETATM   19  C   UNL     1      25.225  47.124  39.592  1.00  0.00     0.087 A 
HETATM   20  C   UNL     1      24.503  48.359  39.208  1.00  0.00     0.075 C 
HETATM   21  N   UNL     1      24.536  46.001  39.812  1.00  0.00    -0.131 NA
HETATM   22  O   UNL     1      25.477  45.042  40.108  1.00  0.00    -0.216 OA
HETATM   23  C   UNL     1      26.729  45.581  40.057  1.00  0.00     0.103 A 
HETATM   24  C   UNL     1      27.809  44.619  40.347  1.00  0.00     0.081 C 
ENDBRANCH  14  18
ENDBRANCH   1  12
BRANCH   8  25
HETATM   25  C   UNL     1      30.254  51.757  42.201  1.00  0.00     0.222 C 
HETATM   26  N   UNL     1      31.316  52.200  42.950  1.00  0.00    -0.356 N 
HETATM   27  H   UNL     1      31.686  53.138  42.811  1.00  0.00     0.162 HD
HETATM   28  O   UNL     1      29.905  50.577  42.214  1.00  0.00    -0.273 OA
BRANCH  26  29
HETATM   29  C   UNL     1      32.129  51.302  43.740  1.00  0.00     0.161 C 
BRANCH  29  30
HETATM   30  C   UNL     1      33.588  51.369  43.372  1.00  0.00    -0.035 A 
HETATM   31  C   UNL     1      34.097  50.649  42.283  1.00  0.00     0.051 A 
HETATM   32  C   UNL     1      35.456  50.717  41.975  1.00  0.00     0.119 A 
HETATM   33  F   UNL     1      35.927  50.017  40.935  1.00  0.00    -0.206 F 
HETATM   34  C   UNL     1      36.329  51.488  42.729  1.00  0.00     0.084 A 
HETATM   35  C   UNL     1      35.827  52.197  43.810  1.00  0.00     0.119 A 
HETATM   36  F   UNL     1      36.652  52.946  44.551  1.00  0.00    -0.206 F 
HETATM   37  C   UNL     1      34.474  52.143  44.138  1.00  0.00     0.051 A 
ENDBRANCH  29  30
ENDBRANCH  26  29
ENDBRANCH   8  25
TORSDOF 5
ENDMDL
MODEL 6
REMARK VINA RESULT:      -7.6      2.201      3.077
REMARK  5 active torsions:
REMARK  status: ('A' for Active; 'I' for Inactive)
REMARK    1  A    between atoms: C_7  and  N_8 
REMARK       I    between atoms: N_8  and  C_9 
REMARK       I    between atoms: C_9  and  N_10 
REMARK    2  A    between atoms: N_10  and  C_11 
REMARK    3  A    between atoms: C_18  and  C_19 
REMARK       I    between atoms: C_19  and  N_20 
REMARK    4  A    between atoms: N_20  and  C_21 
REMARK    5  A    between atoms: C_21  and  C_22 
ROOT
HETATM    1  C   UNL     1      16.905  49.118  47.332  1.00  0.00     0.104 C 
HETATM    2  C   UNL     1      16.312  50.529  47.591  1.00  0.00     0.150 C 
HETATM    3  N   UNL     1      17.309  51.583  47.430  1.00  0.00    -0.354 N 
HETATM    4  C   UNL     1      17.315  52.282  46.153  1.00  0.00     0.152 C 
HETATM    5  C   UNL     1      18.274  51.879  48.372  1.00  0.00     0.220 C 
HETATM    6  O   UNL     1      19.157  52.721  48.181  1.00  0.00    -0.273 OA
HETATM    7  C   UNL     1      18.281  51.113  49.680  1.00  0.00     0.117 C 
HETATM    8  C   UNL     1      19.215  49.897  49.789  1.00  0.00     0.086 C 
HETATM    9  C   UNL     1      18.461  48.632  50.285  1.00  0.00     0.014 C 
HETATM   10  C   UNL     1      17.768  47.674  49.299  1.00  0.00     0.003 C 
HETATM   11  C   UNL     1      16.557  48.174  48.503  1.00  0.00     0.027 C 
ENDROOT
BRANCH   1  12
HETATM   12  N   UNL     1      16.423  48.625  46.033  1.00  0.00    -0.337 N 
HETATM   13  C   UNL     1      16.983  47.827  45.083  1.00  0.00     0.321 C 
HETATM   14  N   UNL     1      18.191  47.281  45.380  1.00  0.00    -0.305 N 
HETATM   15  O   UNL     1      16.324  47.652  44.065  1.00  0.00    -0.247 OA
HETATM   16  H   UNL     1      18.709  47.696  46.136  1.00  0.00     0.171 HD
HETATM   17  H   UNL     1      15.542  48.986  45.682  1.00  0.00     0.164 HD
BRANCH  14  18
HETATM   18  C   UNL     1      18.841  46.263  44.690  1.00  0.00     0.094 A 
HETATM   19  C   UNL     1      19.403  46.388  43.383  1.00  0.00     0.087 A 
HETATM   20  C   UNL     1      19.435  47.574  42.497  1.00  0.00     0.075 C 
HETATM   21  N   UNL     1      19.990  45.255  42.985  1.00  0.00    -0.131 NA
HETATM   22  O   UNL     1      19.824  44.368  44.024  1.00  0.00    -0.216 OA
HETATM   23  C   UNL     1      19.148  44.965  45.047  1.00  0.00     0.103 A 
HETATM   24  C   UNL     1      18.934  44.091  46.216  1.00  0.00     0.081 C 
ENDBRANCH  14  18
ENDBRANCH   1  12
BRANCH   8  25
HETATM   25  C   UNL     1      20.218  49.597  48.663  1.00  0.00     0.222 C 
HETATM   26  N   UNL     1      21.380  50.327  48.671  1.00  0.00    -0.356 N 
HETATM   27  H   UNL     1      21.451  51.173  49.233  1.00  0.00     0.162 HD
HETATM   28  O   UNL     1      20.037  48.683  47.860  1.00  0.00    -0.273 OA
BRANCH  26  29
HETATM   29  C   UNL     1      22.427  50.118  47.695  1.00  0.00     0.161 C 
BRANCH  29  30
HETATM   30  C   UNL     1      23.668  49.512  48.299  1.00  0.00    -0.035 A 
HETATM   31  C   UNL     1      23.593  48.403  49.153  1.00  0.00     0.051 A 
HETATM   32  C   UNL     1      24.757  47.873  49.710  1.00  0.00     0.119 A 
HETATM   33  F   UNL     1      24.667  46.817  50.530  1.00  0.00    -0.206 F 
HETATM   34  C   UNL     1      26.002  48.422  49.440  1.00  0.00     0.084 A 
HETATM   35  C   UNL     1      26.075  49.523  48.600  1.00  0.00     0.119 A 
HETATM   36  F   UNL     1      27.266  50.070  48.327  1.00  0.00    -0.206 F 
HETATM   37  C   UNL     1      24.927  50.071  48.033  1.00  0.00     0.051 A 
ENDBRANCH  29  30
ENDBRANCH  26  29
ENDBRANCH   8  25
TORSDOF 5
ENDMDL
MODEL 7
REMARK VINA RESULT:      -7.5      9.486     12.119
REMARK  5 active torsions:
REMARK  status: ('A' for Active; 'I' for Inactive)
REMARK    1  A    between atoms: C_7  and  N_8 
REMARK       I    between atoms: N_8  and  C_9 
REMARK       I    between atoms: C_9  and  N_10 
REMARK    2  A    between atoms: N_10  and  C_11 
REMARK    3  A    between atoms: C_18  and  C_19 
REMARK       I    between atoms: C_19  and  N_20 
REMARK    4  A    between atoms: N_20  and  C_21 
REMARK    5  A    between atoms: C_21  and  C_22 
ROOT
HETATM    1  C   UNL     1      27.725  50.609  40.337  1.00  0.00     0.104 C 
HETATM    2  C   UNL     1      28.208  52.085  40.352  1.00  0.00     0.150 C 
HETATM    3  N   UNL     1      29.238  52.337  39.349  1.00  0.00    -0.354 N 
HETATM    4  C   UNL     1      28.794  52.936  38.099  1.00  0.00     0.152 C 
HETATM    5  C   UNL     1      30.559  51.964  39.494  1.00  0.00     0.220 C 
HETATM    6  O   UNL     1      31.397  52.115  38.600  1.00  0.00    -0.273 OA
HETATM    7  C   UNL     1      30.997  51.302  40.786  1.00  0.00     0.117 C 
HETATM    8  C   UNL     1      31.047  49.766  40.817  1.00  0.00     0.086 C 
HETATM    9  C   UNL     1      30.271  49.187  42.033  1.00  0.00     0.014 C 
HETATM   10  C   UNL     1      28.767  48.870  41.946  1.00  0.00     0.003 C 
HETATM   11  C   UNL     1      27.772  50.022  41.764  1.00  0.00     0.027 C 
ENDROOT
BRANCH   1  12
HETATM   12  N   UNL     1      26.385  50.547  39.735  1.00  0.00    -0.337 N 
HETATM   13  C   UNL     1      25.690  49.545  39.132  1.00  0.00     0.321 C 
HETATM   14  N   UNL     1      26.265  48.314  39.137  1.00  0.00    -0.305 N 
HETATM   15  O   UNL     1      24.593  49.844  38.673  1.00  0.00    -0.247 OA
HETATM   16  H   UNL     1      27.251  48.269  39.333  1.00  0.00     0.171 HD
HETATM   17  H   UNL     1      25.862  51.412  39.642  1.00  0.00     0.164 HD
BRANCH  14  18
HETATM   18  C   UNL     1      25.660  47.106  38.806  1.00  0.00     0.094 A 
HETATM   19  C   UNL     1      24.734  46.399  39.633  1.00  0.00     0.087 A 
HETATM   20  C   UNL     1      24.215  46.771  40.969  1.00  0.00     0.075 C 
HETATM   21  N   UNL     1      24.295  45.283  39.044  1.00  0.00    -0.131 NA
HETATM   22  O   UNL     1      24.925  45.238  37.821  1.00  0.00    -0.216 OA
HETATM   23  C   UNL     1      25.733  46.326  37.669  1.00  0.00     0.103 A 
HETATM   24  C   UNL     1      26.442  46.371  36.376  1.00  0.00     0.081 C 
ENDBRANCH  14  18
ENDBRANCH   1  12
BRANCH   8  25
HETATM   25  C   UNL     1      30.825  48.963  39.525  1.00  0.00     0.222 C 
HETATM   26  N   UNL     1      30.295  47.706  39.671  1.00  0.00    -0.356 N 
HETATM   27  H   UNL     1      30.287  47.255  40.583  1.00  0.00     0.162 HD
HETATM   28  O   UNL     1      31.018  49.457  38.414  1.00  0.00    -0.273 OA
BRANCH  26  29
HETATM   29  C   UNL     1      29.997  46.860  38.536  1.00  0.00     0.161 C 
BRANCH  29  30
HETATM   30  C   UNL     1      29.221  45.628  38.921  1.00  0.00    -0.035 A 
HETATM   31  C   UNL     1      29.224  44.485  38.110  1.00  0.00     0.051 A 
HETATM   32  C   UNL     1      28.483  43.363  38.484  1.00  0.00     0.119 A 
HETATM   33  F   UNL     1      28.491  42.281  37.694  1.00  0.00    -0.206 F 
HETATM   34  C   UNL     1      27.732  43.349  39.651  1.00  0.00     0.084 A 
HETATM   35  C   UNL     1      27.725  44.482  40.450  1.00  0.00     0.119 A 
HETATM   36  F   UNL     1      27.007  44.491  41.579  1.00  0.00    -0.206 F 
HETATM   37  C   UNL     1      28.455  45.615  40.097  1.00  0.00     0.051 A 
ENDBRANCH  29  30
ENDBRANCH  26  29
ENDBRANCH   8  25
TORSDOF 5
ENDMDL
MODEL 8
REMARK VINA RESULT:      -7.4     13.904     17.903
REMARK  5 active torsions:
REMARK  status: ('A' for Active; 'I' for Inactive)
REMARK    1  A    between atoms: C_7  and  N_8 
REMARK       I    between atoms: N_8  and  C_9 
REMARK       I    between atoms: C_9  and  N_10 
REMARK    2  A    between atoms: N_10  and  C_11 
REMARK    3  A    between atoms: C_18  and  C_19 
REMARK       I    between atoms: C_19  and  N_20 
REMARK    4  A    between atoms: N_20  and  C_21 
REMARK    5  A    between atoms: C_21  and  C_22 
ROOT
HETATM    1  C   UNL     1      37.242  53.573  41.749  1.00  0.00     0.104 C 
HETATM    2  C   UNL     1      37.373  53.554  40.202  1.00  0.00     0.150 C 
HETATM    3  N   UNL     1      36.073  53.498  39.540  1.00  0.00    -0.354 N 
HETATM    4  C   UNL     1      35.536  54.762  39.057  1.00  0.00     0.152 C 
HETATM    5  C   UNL     1      35.314  52.351  39.432  1.00  0.00     0.220 C 
HETATM    6  O   UNL     1      34.182  52.343  38.939  1.00  0.00    -0.273 OA
HETATM    7  C   UNL     1      35.870  51.050  39.978  1.00  0.00     0.117 C 
HETATM    8  C   UNL     1      35.448  50.635  41.397  1.00  0.00     0.086 C 
HETATM    9  C   UNL     1      36.675  50.292  42.287  1.00  0.00     0.014 C 
HETATM   10  C   UNL     1      37.396  51.376  43.108  1.00  0.00     0.003 C 
HETATM   11  C   UNL     1      38.149  52.490  42.371  1.00  0.00     0.027 C 
ENDROOT
BRANCH   1  12
HETATM   12  N   UNL     1      37.543  54.926  42.240  1.00  0.00    -0.337 N 
HETATM   13  C   UNL     1      38.173  55.383  43.357  1.00  0.00     0.321 C 
HETATM   14  N   UNL     1      38.729  54.448  44.171  1.00  0.00    -0.305 N 
HETATM   15  O   UNL     1      38.207  56.600  43.500  1.00  0.00    -0.247 OA
HETATM   16  H   UNL     1      38.421  53.497  44.054  1.00  0.00     0.171 HD
HETATM   17  H   UNL     1      37.154  55.716  41.735  1.00  0.00     0.164 HD
BRANCH  14  18
HETATM   18  C   UNL     1      39.614  54.672  45.220  1.00  0.00     0.094 A 
HETATM   19  C   UNL     1      40.981  55.056  45.072  1.00  0.00     0.087 A 
HETATM   20  C   UNL     1      41.743  55.306  43.827  1.00  0.00     0.075 C 
HETATM   21  N   UNL     1      41.580  55.227  46.254  1.00  0.00    -0.131 NA
HETATM   22  O   UNL     1      40.616  54.958  47.199  1.00  0.00    -0.216 OA
HETATM   23  C   UNL     1      39.439  54.635  46.589  1.00  0.00     0.103 A 
HETATM   24  C   UNL     1      38.338  54.343  47.527  1.00  0.00     0.081 C 
ENDBRANCH  14  18
ENDBRANCH   1  12
BRANCH   8  25
HETATM   25  C   UNL     1      34.368  51.436  42.143  1.00  0.00     0.222 C 
HETATM   26  N   UNL     1      33.076  51.265  41.714  1.00  0.00    -0.356 N 
HETATM   27  H   UNL     1      32.888  50.834  40.812  1.00  0.00     0.162 HD
HETATM   28  O   UNL     1      34.634  52.116  43.134  1.00  0.00    -0.273 OA
BRANCH  26  29
HETATM   29  C   UNL     1      31.960  51.926  42.353  1.00  0.00     0.161 C 
BRANCH  29  30
HETATM   30  C   UNL     1      30.794  52.126  41.419  1.00  0.00    -0.035 A 
HETATM   31  C   UNL     1      30.960  52.068  40.028  1.00  0.00     0.051 A 
HETATM   32  C   UNL     1      29.866  52.272  39.187  1.00  0.00     0.119 A 
HETATM   33  F   UNL     1      30.043  52.221  37.860  1.00  0.00    -0.206 F 
HETATM   34  C   UNL     1      28.603  52.538  39.696  1.00  0.00     0.084 A 
HETATM   35  C   UNL     1      28.440  52.601  41.072  1.00  0.00     0.119 A 
HETATM   36  F   UNL     1      27.231  52.857  41.584  1.00  0.00    -0.206 F 
HETATM   37  C   UNL     1      29.517  52.402  41.932  1.00  0.00     0.051 A 
ENDBRANCH  29  30
ENDBRANCH  26  29
ENDBRANCH   8  25
TORSDOF 5
ENDMDL
MODEL 9
REMARK VINA RESULT:      -7.4     11.007     13.706
REMARK  5 active torsions:
REMARK  status: ('A' for Active; 'I' for Inactive)
REMARK    1  A    between atoms: C_7  and  N_8 
REMARK       I    between atoms: N_8  and  C_9 
REMARK       I    between atoms: C_9  and  N_10 
REMARK    2  A    between atoms: N_10  and  C_11 
REMARK    3  A    between atoms: C_18  and  C_19 
REMARK       I    between atoms: C_19  and  N_20 
REMARK    4  A    between atoms: N_20  and  C_21 
REMARK    5  A    between atoms: C_21  and  C_22 
ROOT
HETATM    1  C   UNL     1      29.966  49.835  40.629  1.00  0.00     0.104 C 
HETATM    2  C   UNL     1      29.080  51.092  40.846  1.00  0.00     0.150 C 
HETATM    3  N   UNL     1      29.739  52.314  40.396  1.00  0.00    -0.354 N 
HETATM    4  C   UNL     1      29.371  52.801  39.074  1.00  0.00     0.152 C 
HETATM    5  C   UNL     1      30.729  52.961  41.108  1.00  0.00     0.220 C 
HETATM    6  O   UNL     1      31.328  53.948  40.672  1.00  0.00    -0.273 OA
HETATM    7  C   UNL     1      31.130  52.416  42.465  1.00  0.00     0.117 C 
HETATM    8  C   UNL     1      32.349  51.481  42.525  1.00  0.00     0.086 C 
HETATM    9  C   UNL     1      32.027  50.161  43.280  1.00  0.00     0.014 C 
HETATM   10  C   UNL     1      31.459  48.935  42.542  1.00  0.00     0.003 C 
HETATM   11  C   UNL     1      30.053  49.017  41.935  1.00  0.00     0.027 C 
ENDROOT
BRANCH   1  12
HETATM   12  N   UNL     1      29.433  49.059  39.499  1.00  0.00    -0.337 N 
HETATM   13  C   UNL     1      28.298  48.325  39.339  1.00  0.00     0.321 C 
HETATM   14  N   UNL     1      27.405  48.349  40.362  1.00  0.00    -0.305 N 
HETATM   15  O   UNL     1      28.178  47.740  38.269  1.00  0.00    -0.247 OA
HETATM   16  H   UNL     1      27.739  48.671  41.255  1.00  0.00     0.171 HD
HETATM   17  H   UNL     1      30.022  48.938  38.682  1.00  0.00     0.164 HD
BRANCH  14  18
HETATM   18  C   UNL     1      26.093  47.887  40.339  1.00  0.00     0.094 A 
HETATM   19  C   UNL     1      25.635  46.690  40.970  1.00  0.00     0.087 A 
HETATM   20  C   UNL     1      26.406  45.710  41.768  1.00  0.00     0.075 C 
HETATM   21  N   UNL     1      24.320  46.515  40.805  1.00  0.00    -0.131 NA
HETATM   22  O   UNL     1      23.894  47.592  40.063  1.00  0.00    -0.216 OA
HETATM   23  C   UNL     1      24.944  48.418  39.789  1.00  0.00     0.103 A 
HETATM   24  C   UNL     1      24.578  49.615  39.007  1.00  0.00     0.081 C 
ENDBRANCH  14  18
ENDBRANCH   1  12
BRANCH   8  25
HETATM   25  C   UNL     1      33.212  51.262  41.271  1.00  0.00     0.222 C 
HETATM   26  N   UNL     1      33.958  52.334  40.850  1.00  0.00    -0.356 N 
HETATM   27  H   UNL     1      33.756  53.268  41.198  1.00  0.00     0.162 HD
HETATM   28  O   UNL     1      33.307  50.159  40.734  1.00  0.00    -0.273 OA
BRANCH  26  29
HETATM   29  C   UNL     1      34.844  52.253  39.710  1.00  0.00     0.161 C 
BRANCH  29  30
HETATM   30  C   UNL     1      35.455  53.585  39.357  1.00  0.00    -0.035 A 
HETATM   31  C   UNL     1      34.700  54.764  39.399  1.00  0.00     0.051 A 
HETATM   32  C   UNL     1      35.288  55.981  39.053  1.00  0.00     0.119 A 
HETATM   33  F   UNL     1      34.550  57.098  39.091  1.00  0.00    -0.206 F 
HETATM   34  C   UNL     1      36.617  56.055  38.660  1.00  0.00     0.084 A 
HETATM   35  C   UNL     1      37.363  54.887  38.614  1.00  0.00     0.119 A 
HETATM   36  F   UNL     1      38.645  54.936  38.237  1.00  0.00    -0.206 F 
HETATM   37  C   UNL     1      36.797  53.660  38.953  1.00  0.00     0.051 A 
ENDBRANCH  29  30
ENDBRANCH  26  29
ENDBRANCH   8  25
TORSDOF 5
ENDMDL
MODEL 10
REMARK VINA RESULT:      -7.3      2.418      5.953
REMARK  5 active torsions:
REMARK  status: ('A' for Active; 'I' for Inactive)
REMARK    1  A    between atoms: C_7  and  N_8 
REMARK       I    between atoms: N_8  and  C_9 
REMARK       I    between atoms: C_9  and  N_10 
REMARK    2  A    between atoms: N_10  and  C_11 
REMARK    3  A    between atoms: C_18  and  C_19 
REMARK       I    between atoms: C_19  and  N_20 
REMARK    4  A    between atoms: N_20  and  C_21 
REMARK    5  A    between atoms: C_21  and  C_22 
ROOT
HETATM    1  C   UNL     1      18.791  47.475  45.293  1.00  0.00     0.104 C 
HETATM    2  C   UNL     1      17.558  46.721  45.861  1.00  0.00     0.150 C 
HETATM    3  N   UNL     1      17.855  46.055  47.125  1.00  0.00    -0.354 N 
HETATM    4  C   UNL     1      17.457  46.756  48.338  1.00  0.00     0.152 C 
HETATM    5  C   UNL     1      18.553  44.868  47.224  1.00  0.00     0.220 C 
HETATM    6  O   UNL     1      18.863  44.363  48.307  1.00  0.00    -0.273 OA
HETATM    7  C   UNL     1      18.998  44.172  45.952  1.00  0.00     0.117 C 
HETATM    8  C   UNL     1      20.432  44.432  45.462  1.00  0.00     0.086 C 
HETATM    9  C   UNL     1      20.462  44.860  43.968  1.00  0.00     0.014 C 
HETATM   10  C   UNL     1      20.339  46.339  43.557  1.00  0.00     0.003 C 
HETATM   11  C   UNL     1      19.021  47.077  43.819  1.00  0.00     0.027 C 
ENDROOT
BRANCH   1  12
HETATM   12  N   UNL     1      18.597  48.921  45.474  1.00  0.00    -0.337 N 
HETATM   13  C   UNL     1      18.958  49.783  46.463  1.00  0.00     0.321 C 
HETATM   14  N   UNL     1      19.727  49.279  47.463  1.00  0.00    -0.305 N 
HETATM   15  O   UNL     1      18.582  50.943  46.335  1.00  0.00    -0.247 OA
HETATM   16  H   UNL     1      19.756  48.277  47.558  1.00  0.00     0.171 HD
HETATM   17  H   UNL     1      18.010  49.412  44.808  1.00  0.00     0.164 HD
BRANCH  14  18
HETATM   18  C   UNL     1      20.410  49.998  48.438  1.00  0.00     0.094 A 
HETATM   19  C   UNL     1      19.848  50.440  49.675  1.00  0.00     0.087 A 
HETATM   20  C   UNL     1      18.476  50.240  50.193  1.00  0.00     0.075 C 
HETATM   21  N   UNL     1      20.748  51.082  50.426  1.00  0.00    -0.131 NA
HETATM   22  O   UNL     1      21.914  51.072  49.696  1.00  0.00    -0.216 OA
HETATM   23  C   UNL     1      21.722  50.420  48.514  1.00  0.00     0.103 A 
HETATM   24  C   UNL     1      22.928  50.346  47.667  1.00  0.00     0.081 C 
ENDBRANCH  14  18
ENDBRANCH   1  12
BRANCH   8  25
HETATM   25  C   UNL     1      21.410  45.232  46.338  1.00  0.00     0.222 C 
HETATM   26  N   UNL     1      21.835  44.621  47.491  1.00  0.00    -0.356 N 
HETATM   27  H   UNL     1      21.342  43.808  47.853  1.00  0.00     0.162 HD
HETATM   28  O   UNL     1      21.865  46.316  45.977  1.00  0.00    -0.273 OA
BRANCH  26  29
HETATM   29  C   UNL     1      22.787  45.243  48.384  1.00  0.00     0.161 C 
BRANCH  29  30
HETATM   30  C   UNL     1      23.929  44.328  48.742  1.00  0.00    -0.035 A 
HETATM   31  C   UNL     1      25.149  44.836  49.209  1.00  0.00     0.051 A 
HETATM   32  C   UNL     1      26.194  43.966  49.518  1.00  0.00     0.119 A 
HETATM   33  F   UNL     1      27.356  44.468  49.956  1.00  0.00    -0.206 F 
HETATM   34  C   UNL     1      26.058  42.592  49.371  1.00  0.00     0.084 A 
HETATM   35  C   UNL     1      24.854  42.090  48.903  1.00  0.00     0.119 A 
HETATM   36  F   UNL     1      24.701  40.769  48.753  1.00  0.00    -0.206 F 
HETATM   37  C   UNL     1      23.796  42.939  48.587  1.00  0.00     0.051 A 
ENDBRANCH  29  30
ENDBRANCH  26  29
ENDBRANCH   8  25
TORSDOF 5
ENDMDL
