MODEL 1
REMARK VINA RESULT:      -9.9      0.000      0.000
REMARK  8 active torsions:
REMARK  status: ('A' for Active; 'I' for Inactive)
REMARK    1  A    between atoms: C_4  and  C_5 
REMARK    2  A    between atoms: C_5  and  N_6 
REMARK    3  A    between atoms: C_5  and  C_33 
REMARK    4  A    between atoms: N_10  and  C_11 
REMARK    5  A    between atoms: C_13  and  N_14 
REMARK    6  A    between atoms: N_14  and  C_15 
REMARK    7  A    between atoms: C_22  and  N_23 
REMARK    8  A    between atoms: N_23  and  C_24 
ROOT
HETATM    1  C   UNL     1      24.942  46.229  52.264  1.00  0.00     0.756 A 
HETATM    2  N   UNL     1      24.405  45.073  52.016  1.00  0.00     0.131 NA
HETATM    3  C   UNL     1      23.834  44.866  50.793  1.00  0.00     0.757 A 
HETATM    4  N   UNL     1      23.855  45.892  49.904  1.00  0.00    -0.016 N 
HETATM    5  C   UNL     1      24.491  47.053  50.175  1.00  0.00     0.735 A 
HETATM    6  N   UNL     1      25.058  47.228  51.329  1.00  0.00     0.129 NA
HETATM    7  H   UNL     1      23.562  45.687  48.962  1.00  0.00     0.203 HD
ENDROOT
BRANCH   1   8
HETATM    8  N   UNL     1      25.474  46.480  53.524  1.00  0.00    -0.210 N 
HETATM    9  C   UNL     1      26.696  47.287  53.635  1.00  0.00     0.169 C 
HETATM   10  C   UNL     1      27.922  46.377  53.425  1.00  0.00     0.256 C 
HETATM   11  N   UNL     1      27.888  45.230  54.448  1.00  0.00    -0.056 N 
HETATM   12  H   UNL     1      27.875  45.674  55.371  1.00  0.00     0.281 HD
HETATM   13  C   UNL     1      26.567  44.452  54.373  1.00  0.00     0.256 C 
HETATM   14  C   UNL     1      25.380  45.427  54.549  1.00  0.00     0.169 C 
BRANCH  11  15
HETATM   15  C   UNL     1      29.170  44.401  54.449  1.00  0.00     0.254 C 
BRANCH  15  16
HETATM   16  C   UNL     1      29.064  43.024  53.800  1.00  0.00    -0.023 A 
HETATM   17  C   UNL     1      29.464  42.872  52.454  1.00  0.00     0.009 A 
HETATM   18  C   UNL     1      29.352  41.643  51.800  1.00  0.00     0.001 A 
HETATM   19  C   UNL     1      28.847  40.538  52.475  1.00  0.00     0.000 A 
HETATM   20  C   UNL     1      28.457  40.659  53.805  1.00  0.00     0.001 A 
HETATM   21  C   UNL     1      28.564  41.889  54.461  1.00  0.00     0.009 A 
ENDBRANCH  15  16
BRANCH  15  22
HETATM   22  C   UNL     1      29.924  44.525  55.772  1.00  0.00    -0.023 A 
HETATM   23  C   UNL     1      29.541  45.547  56.669  1.00  0.00     0.009 A 
HETATM   24  C   UNL     1      30.165  45.697  57.909  1.00  0.00     0.001 A 
HETATM   25  C   UNL     1      31.182  44.827  58.281  1.00  0.00     0.000 A 
HETATM   26  C   UNL     1      31.578  43.814  57.414  1.00  0.00     0.001 A 
HETATM   27  C   UNL     1      30.955  43.662  56.172  1.00  0.00     0.009 A 
ENDBRANCH  15  22
ENDBRANCH  11  15
ENDBRANCH   1   8
BRANCH   3  28
HETATM   28  N   UNL     1      23.335  43.683  50.628  1.00  0.00    -0.062 NA
BRANCH  28  29
HETATM   29  C   UNL     1      24.115  42.675  50.047  1.00  0.00     0.076 A 
HETATM   30  C   UNL     1      25.206  42.158  50.748  1.00  0.00     0.032 A 
HETATM   31  C   UNL     1      25.993  41.148  50.190  1.00  0.00     0.002 A 
HETATM   32  C   UNL     1      25.688  40.645  48.925  1.00  0.00     0.000 A 
HETATM   33  C   UNL     1      24.588  41.140  48.226  1.00  0.00     0.002 A 
HETATM   34  C   UNL     1      23.798  42.142  48.792  1.00  0.00     0.032 A 
ENDBRANCH  28  29
ENDBRANCH   3  28
BRANCH   5  35
HETATM   35  N   UNL     1      24.461  47.958  49.146  1.00  0.00    -0.189 N 
HETATM   36  H   UNL     1      24.835  47.630  48.264  1.00  0.00     0.184 HD
BRANCH  35  37
HETATM   37  C   UNL     1      23.492  48.972  48.989  1.00  0.00     0.049 A 
HETATM   38  C   UNL     1      23.848  50.305  48.741  1.00  0.00     0.030 A 
HETATM   39  C   UNL     1      22.872  51.294  48.597  1.00  0.00     0.002 A 
HETATM   40  C   UNL     1      21.524  50.965  48.713  1.00  0.00     0.000 A 
HETATM   41  C   UNL     1      21.154  49.647  48.963  1.00  0.00     0.002 A 
HETATM   42  C   UNL     1      22.131  48.656  49.096  1.00  0.00     0.030 A 
ENDBRANCH  35  37
ENDBRANCH   5  35
TORSDOF 8
ENDMDL
MODEL 2
REMARK VINA RESULT:      -9.6      2.074      6.086
REMARK  8 active torsions:
REMARK  status: ('A' for Active; 'I' for Inactive)
REMARK    1  A    between atoms: C_4  and  C_5 
REMARK    2  A    between atoms: C_5  and  N_6 
REMARK    3  A    between atoms: C_5  and  C_33 
REMARK    4  A    between atoms: N_10  and  C_11 
REMARK    5  A    between atoms: C_13  and  N_14 
REMARK    6  A    between atoms: N_14  and  C_15 
REMARK    7  A    between atoms: C_22  and  N_23 
REMARK    8  A    between atoms: N_23  and  C_24 
ROOT
HETATM    1  C   UNL     1      23.945  46.663  49.590  1.00  0.00     0.756 A 
HETATM    2  N   UNL     1      23.341  47.578  48.893  1.00  0.00     0.131 NA
HETATM    3  C   UNL     1      22.337  47.200  48.048  1.00  0.00     0.757 A 
HETATM    4  N   UNL     1      22.033  45.878  47.979  1.00  0.00    -0.016 N 
HETATM    5  C   UNL     1      22.635  44.970  48.777  1.00  0.00     0.735 A 
HETATM    6  N   UNL     1      23.565  45.343  49.601  1.00  0.00     0.129 NA
HETATM    7  H   UNL     1      21.204  45.627  47.467  1.00  0.00     0.203 HD
ENDROOT
BRANCH   1   8
HETATM    8  N   UNL     1      25.010  47.020  50.410  1.00  0.00    -0.210 N 
HETATM    9  C   UNL     1      26.349  47.152  49.823  1.00  0.00     0.169 C 
HETATM   10  C   UNL     1      27.012  45.762  49.762  1.00  0.00     0.256 C 
HETATM   11  N   UNL     1      27.053  45.152  51.172  1.00  0.00    -0.056 N 
HETATM   12  H   UNL     1      27.574  45.815  51.754  1.00  0.00     0.281 HD
HETATM   13  C   UNL     1      25.653  45.101  51.800  1.00  0.00     0.256 C 
HETATM   14  C   UNL     1      25.030  46.516  51.794  1.00  0.00     0.169 C 
BRANCH  11  15
HETATM   15  C   UNL     1      27.878  43.869  51.238  1.00  0.00     0.254 C 
BRANCH  15  16
HETATM   16  C   UNL     1      27.214  42.627  50.649  1.00  0.00    -0.023 A 
HETATM   17  C   UNL     1      26.938  42.594  49.265  1.00  0.00     0.009 A 
HETATM   18  C   UNL     1      26.298  41.499  48.681  1.00  0.00     0.001 A 
HETATM   19  C   UNL     1      25.924  40.411  49.462  1.00  0.00     0.000 A 
HETATM   20  C   UNL     1      26.194  40.416  50.827  1.00  0.00     0.001 A 
HETATM   21  C   UNL     1      26.833  41.513  51.414  1.00  0.00     0.009 A 
ENDBRANCH  15  16
BRANCH  15  22
HETATM   22  C   UNL     1      28.615  43.736  52.570  1.00  0.00    -0.023 A 
HETATM   23  C   UNL     1      29.767  42.920  52.620  1.00  0.00     0.009 A 
HETATM   24  C   UNL     1      30.508  42.780  53.795  1.00  0.00     0.001 A 
HETATM   25  C   UNL     1      30.115  43.455  54.945  1.00  0.00     0.000 A 
HETATM   26  C   UNL     1      28.982  44.262  54.920  1.00  0.00     0.001 A 
HETATM   27  C   UNL     1      28.239  44.403  53.745  1.00  0.00     0.009 A 
ENDBRANCH  15  22
ENDBRANCH  11  15
ENDBRANCH   1   8
BRANCH   3  28
HETATM   28  N   UNL     1      21.783  48.177  47.404  1.00  0.00    -0.062 NA
BRANCH  28  29
HETATM   29  C   UNL     1      21.103  49.178  48.110  1.00  0.00     0.076 A 
HETATM   30  C   UNL     1      20.185  48.821  49.099  1.00  0.00     0.032 A 
HETATM   31  C   UNL     1      19.501  49.802  49.819  1.00  0.00     0.002 A 
HETATM   32  C   UNL     1      19.737  51.152  49.555  1.00  0.00     0.000 A 
HETATM   33  C   UNL     1      20.668  51.518  48.585  1.00  0.00     0.002 A 
HETATM   34  C   UNL     1      21.357  50.534  47.874  1.00  0.00     0.032 A 
ENDBRANCH  28  29
ENDBRANCH   3  28
BRANCH   5  35
HETATM   35  N   UNL     1      22.168  43.691  48.616  1.00  0.00    -0.189 N 
HETATM   36  H   UNL     1      21.174  43.566  48.765  1.00  0.00     0.184 HD
BRANCH  35  37
HETATM   37  C   UNL     1      22.716  42.735  47.734  1.00  0.00     0.049 A 
HETATM   38  C   UNL     1      23.370  43.106  46.551  1.00  0.00     0.030 A 
HETATM   39  C   UNL     1      23.897  42.141  45.689  1.00  0.00     0.002 A 
HETATM   40  C   UNL     1      23.765  40.789  45.993  1.00  0.00     0.000 A 
HETATM   41  C   UNL     1      23.115  40.403  47.162  1.00  0.00     0.002 A 
HETATM   42  C   UNL     1      22.597  41.370  48.030  1.00  0.00     0.030 A 
ENDBRANCH  35  37
ENDBRANCH   5  35
TORSDOF 8
ENDMDL
MODEL 3
REMARK VINA RESULT:      -9.5      2.133      3.589
REMARK  8 active torsions:
REMARK  status: ('A' for Active; 'I' for Inactive)
REMARK    1  A    between atoms: C_4  and  C_5 
REMARK    2  A    between atoms: C_5  and  N_6 
REMARK    3  A    between atoms: C_5  and  C_33 
REMARK    4  A    between atoms: N_10  and  C_11 
REMARK    5  A    between atoms: C_13  and  N_14 
REMARK    6  A    between atoms: N_14  and  C_15 
REMARK    7  A    between atoms: C_22  and  N_23 
REMARK    8  A    between atoms: N_23  and  C_24 
ROOT
HETATM    1  C   UNL     1      23.837  46.783  49.702  1.00  0.00     0.756 A 
HETATM    2  N   UNL     1      23.497  45.535  49.578  1.00  0.00     0.131 NA
HETATM    3  C   UNL     1      22.372  45.232  48.865  1.00  0.00     0.757 A 
HETATM    4  N   UNL     1      21.665  46.261  48.331  1.00  0.00    -0.016 N 
HETATM    5  C   UNL     1      22.096  47.538  48.420  1.00  0.00     0.735 A 
HETATM    6  N   UNL     1      23.183  47.814  49.072  1.00  0.00     0.129 NA
HETATM    7  H   UNL     1      20.924  46.023  47.692  1.00  0.00     0.203 HD
ENDROOT
BRANCH   1   8
HETATM    8  N   UNL     1      24.943  47.116  50.474  1.00  0.00    -0.210 N 
HETATM    9  C   UNL     1      26.256  47.233  49.827  1.00  0.00     0.169 C 
HETATM   10  C   UNL     1      26.894  45.834  49.725  1.00  0.00     0.256 C 
HETATM   11  N   UNL     1      26.991  45.212  51.127  1.00  0.00    -0.056 N 
HETATM   12  H   UNL     1      27.548  45.863  51.688  1.00  0.00     0.281 HD
HETATM   13  C   UNL     1      25.621  45.177  51.819  1.00  0.00     0.256 C 
HETATM   14  C   UNL     1      25.020  46.601  51.852  1.00  0.00     0.169 C 
BRANCH  11  15
HETATM   15  C   UNL     1      27.798  43.916  51.144  1.00  0.00     0.254 C 
BRANCH  15  16
HETATM   16  C   UNL     1      27.117  42.706  50.510  1.00  0.00    -0.023 A 
HETATM   17  C   UNL     1      26.685  41.653  51.344  1.00  0.00     0.009 A 
HETATM   18  C   UNL     1      26.090  40.507  50.812  1.00  0.00     0.001 A 
HETATM   19  C   UNL     1      25.907  40.389  49.439  1.00  0.00     0.000 A 
HETATM   20  C   UNL     1      26.316  41.419  48.597  1.00  0.00     0.001 A 
HETATM   21  C   UNL     1      26.914  42.566  49.127  1.00  0.00     0.009 A 
ENDBRANCH  15  16
BRANCH  15  22
HETATM   22  C   UNL     1      28.533  43.724  52.470  1.00  0.00    -0.023 A 
HETATM   23  C   UNL     1      29.712  42.945  52.477  1.00  0.00     0.009 A 
HETATM   24  C   UNL     1      30.451  42.756  53.646  1.00  0.00     0.001 A 
HETATM   25  C   UNL     1      30.030  43.343  54.833  1.00  0.00     0.000 A 
HETATM   26  C   UNL     1      28.871  44.111  54.852  1.00  0.00     0.001 A 
HETATM   27  C   UNL     1      28.129  44.302  53.683  1.00  0.00     0.009 A 
ENDBRANCH  15  22
ENDBRANCH  11  15
ENDBRANCH   1   8
BRANCH   3  28
HETATM   28  N   UNL     1      22.116  43.966  48.781  1.00  0.00    -0.062 NA
BRANCH  28  29
HETATM   29  C   UNL     1      22.618  43.225  47.704  1.00  0.00     0.076 A 
HETATM   30  C   UNL     1      22.726  41.837  47.813  1.00  0.00     0.032 A 
HETATM   31  C   UNL     1      23.217  41.078  46.749  1.00  0.00     0.002 A 
HETATM   32  C   UNL     1      23.600  41.706  45.564  1.00  0.00     0.000 A 
HETATM   33  C   UNL     1      23.476  43.088  45.437  1.00  0.00     0.002 A 
HETATM   34  C   UNL     1      22.974  43.842  46.500  1.00  0.00     0.032 A 
ENDBRANCH  28  29
ENDBRANCH   3  28
BRANCH   5  35
HETATM   35  N   UNL     1      21.291  48.443  47.778  1.00  0.00    -0.189 N 
HETATM   36  H   UNL     1      20.821  48.099  46.949  1.00  0.00     0.184 HD
BRANCH  35  37
HETATM   37  C   UNL     1      20.594  49.496  48.408  1.00  0.00     0.049 A 
HETATM   38  C   UNL     1      20.599  50.801  47.894  1.00  0.00     0.030 A 
HETATM   39  C   UNL     1      19.908  51.829  48.540  1.00  0.00     0.002 A 
HETATM   40  C   UNL     1      19.212  51.569  49.717  1.00  0.00     0.000 A 
HETATM   41  C   UNL     1      19.200  50.280  50.243  1.00  0.00     0.002 A 
HETATM   42  C   UNL     1      19.883  49.249  49.590  1.00  0.00     0.030 A 
ENDBRANCH  35  37
ENDBRANCH   5  35
TORSDOF 8
ENDMDL
MODEL 4
REMARK VINA RESULT:      -9.5      2.294      4.950
REMARK  8 active torsions:
REMARK  status: ('A' for Active; 'I' for Inactive)
REMARK    1  A    between atoms: C_4  and  C_5 
REMARK    2  A    between atoms: C_5  and  N_6 
REMARK    3  A    between atoms: C_5  and  C_33 
REMARK    4  A    between atoms: N_10  and  C_11 
REMARK    5  A    between atoms: C_13  and  N_14 
REMARK    6  A    between atoms: N_14  and  C_15 
REMARK    7  A    between atoms: C_22  and  N_23 
REMARK    8  A    between atoms: N_23  and  C_24 
ROOT
HETATM    1  C   UNL     1      27.056  41.460  51.388  1.00  0.00     0.756 A 
HETATM    2  N   UNL     1      27.018  40.600  50.415  1.00  0.00     0.131 NA
HETATM    3  C   UNL     1      26.156  40.821  49.380  1.00  0.00     0.757 A 
HETATM    4  N   UNL     1      25.377  41.932  49.432  1.00  0.00    -0.016 N 
HETATM    5  C   UNL     1      25.503  42.840  50.425  1.00  0.00     0.735 A 
HETATM    6  N   UNL     1      26.348  42.637  51.388  1.00  0.00     0.129 NA
HETATM    7  H   UNL     1      24.852  42.162  48.605  1.00  0.00     0.203 HD
ENDROOT
BRANCH   1   8
HETATM    8  N   UNL     1      27.883  41.221  52.480  1.00  0.00    -0.210 N 
HETATM    9  C   UNL     1      27.356  41.433  53.834  1.00  0.00     0.169 C 
HETATM   10  C   UNL     1      27.493  42.923  54.201  1.00  0.00     0.256 C 
HETATM   11  N   UNL     1      28.966  43.346  54.079  1.00  0.00    -0.056 N 
HETATM   12  H   UNL     1      29.491  42.731  54.708  1.00  0.00     0.281 HD
HETATM   13  C   UNL     1      29.522  43.039  52.682  1.00  0.00     0.256 C 
HETATM   14  C   UNL     1      29.316  41.541  52.359  1.00  0.00     0.169 C 
BRANCH  11  15
HETATM   15  C   UNL     1      29.225  44.749  54.624  1.00  0.00     0.254 C 
BRANCH  15  16
HETATM   16  C   UNL     1      29.959  44.811  55.960  1.00  0.00    -0.023 A 
HETATM   17  C   UNL     1      30.977  43.870  56.223  1.00  0.00     0.009 A 
HETATM   18  C   UNL     1      31.655  43.858  57.444  1.00  0.00     0.001 A 
HETATM   19  C   UNL     1      31.336  44.788  58.427  1.00  0.00     0.000 A 
HETATM   20  C   UNL     1      30.343  45.732  58.188  1.00  0.00     0.001 A 
HETATM   21  C   UNL     1      29.661  45.744  56.968  1.00  0.00     0.009 A 
ENDBRANCH  15  16
BRANCH  15  22
HETATM   22  C   UNL     1      28.025  45.670  54.410  1.00  0.00    -0.023 A 
HETATM   23  C   UNL     1      28.077  46.975  54.950  1.00  0.00     0.009 A 
HETATM   24  C   UNL     1      27.031  47.881  54.764  1.00  0.00     0.001 A 
HETATM   25  C   UNL     1      25.912  47.504  54.032  1.00  0.00     0.000 A 
HETATM   26  C   UNL     1      25.836  46.224  53.493  1.00  0.00     0.001 A 
HETATM   27  C   UNL     1      26.882  45.315  53.678  1.00  0.00     0.009 A 
ENDBRANCH  15  22
ENDBRANCH  11  15
ENDBRANCH   1   8
BRANCH   3  28
HETATM   28  N   UNL     1      26.193  39.922  48.450  1.00  0.00    -0.062 NA
BRANCH  28  29
HETATM   29  C   UNL     1      26.555  40.285  47.146  1.00  0.00     0.076 A 
HETATM   30  C   UNL     1      27.884  40.609  46.865  1.00  0.00     0.032 A 
HETATM   31  C   UNL     1      28.267  40.968  45.571  1.00  0.00     0.002 A 
HETATM   32  C   UNL     1      27.320  40.999  44.547  1.00  0.00     0.000 A 
HETATM   33  C   UNL     1      25.996  40.656  44.813  1.00  0.00     0.002 A 
HETATM   34  C   UNL     1      25.619  40.288  46.106  1.00  0.00     0.032 A 
ENDBRANCH  28  29
ENDBRANCH   3  28
BRANCH   5  35
HETATM   35  N   UNL     1      24.678  43.927  50.293  1.00  0.00    -0.189 N 
HETATM   36  H   UNL     1      23.789  43.863  50.775  1.00  0.00     0.184 HD
BRANCH  35  37
HETATM   37  C   UNL     1      25.115  45.258  50.121  1.00  0.00     0.049 A 
HETATM   38  C   UNL     1      26.450  45.567  49.822  1.00  0.00     0.030 A 
HETATM   39  C   UNL     1      26.861  46.893  49.665  1.00  0.00     0.002 A 
HETATM   40  C   UNL     1      25.945  47.930  49.817  1.00  0.00     0.000 A 
HETATM   41  C   UNL     1      24.617  47.640  50.118  1.00  0.00     0.002 A 
HETATM   42  C   UNL     1      24.203  46.312  50.265  1.00  0.00     0.030 A 
ENDBRANCH  35  37
ENDBRANCH   5  35
TORSDOF 8
ENDMDL
MODEL 5
REMARK VINA RESULT:      -9.4      2.555      5.114
REMARK  8 active torsions:
REMARK  status: ('A' for Active; 'I' for Inactive)
REMARK    1  A    between atoms: C_4  and  C_5 
REMARK    2  A    between atoms: C_5  and  N_6 
REMARK    3  A    between atoms: C_5  and  C_33 
REMARK    4  A    between atoms: N_10  and  C_11 
REMARK    5  A    between atoms: C_13  and  N_14 
REMARK    6  A    between atoms: N_14  and  C_15 
REMARK    7  A    between atoms: C_22  and  N_23 
REMARK    8  A    between atoms: N_23  and  C_24 
ROOT
HETATM    1  C   UNL     1      27.625  41.706  50.956  1.00  0.00     0.756 A 
HETATM    2  N   UNL     1      28.050  41.045  49.921  1.00  0.00     0.131 NA
HETATM    3  C   UNL     1      27.482  41.298  48.706  1.00  0.00     0.757 A 
HETATM    4  N   UNL     1      26.493  42.227  48.651  1.00  0.00    -0.016 N 
HETATM    5  C   UNL     1      26.134  42.945  49.737  1.00  0.00     0.735 A 
HETATM    6  N   UNL     1      26.702  42.720  50.882  1.00  0.00     0.129 NA
HETATM    7  H   UNL     1      26.181  42.509  47.736  1.00  0.00     0.203 HD
ENDROOT
BRANCH   1   8
HETATM    8  N   UNL     1      28.148  41.420  52.212  1.00  0.00    -0.210 N 
HETATM    9  C   UNL     1      27.332  41.688  53.403  1.00  0.00     0.169 C 
HETATM   10  C   UNL     1      27.493  43.168  53.800  1.00  0.00     0.256 C 
HETATM   11  N   UNL     1      28.980  43.477  54.033  1.00  0.00    -0.056 N 
HETATM   12  H   UNL     1      29.292  42.832  54.766  1.00  0.00     0.281 HD
HETATM   13  C   UNL     1      29.827  43.110  52.807  1.00  0.00     0.256 C 
HETATM   14  C   UNL     1      29.589  41.628  52.437  1.00  0.00     0.169 C 
BRANCH  11  15
HETATM   15  C   UNL     1      29.210  44.863  54.632  1.00  0.00     0.254 C 
BRANCH  15  16
HETATM   16  C   UNL     1      29.919  44.888  55.983  1.00  0.00    -0.023 A 
HETATM   17  C   UNL     1      30.889  43.902  56.261  1.00  0.00     0.009 A 
HETATM   18  C   UNL     1      31.541  43.856  57.496  1.00  0.00     0.001 A 
HETATM   19  C   UNL     1      31.246  44.796  58.475  1.00  0.00     0.000 A 
HETATM   20  C   UNL     1      30.301  45.785  58.221  1.00  0.00     0.001 A 
HETATM   21  C   UNL     1      29.644  45.831  56.988  1.00  0.00     0.009 A 
ENDBRANCH  15  16
BRANCH  15  22
HETATM   22  C   UNL     1      28.001  45.775  54.429  1.00  0.00    -0.023 A 
HETATM   23  C   UNL     1      27.880  46.920  55.248  1.00  0.00     0.009 A 
HETATM   24  C   UNL     1      26.819  47.814  55.095  1.00  0.00     0.001 A 
HETATM   25  C   UNL     1      25.857  47.586  54.118  1.00  0.00     0.000 A 
HETATM   26  C   UNL     1      25.953  46.464  53.301  1.00  0.00     0.001 A 
HETATM   27  C   UNL     1      27.015  45.567  53.453  1.00  0.00     0.009 A 
ENDBRANCH  15  22
ENDBRANCH  11  15
ENDBRANCH   1   8
BRANCH   3  28
HETATM   28  N   UNL     1      27.974  40.605  47.730  1.00  0.00    -0.062 NA
BRANCH  28  29
HETATM   29  C   UNL     1      27.526  39.296  47.511  1.00  0.00     0.076 A 
HETATM   30  C   UNL     1      28.456  38.272  47.321  1.00  0.00     0.032 A 
HETATM   31  C   UNL     1      28.031  36.959  47.108  1.00  0.00     0.002 A 
HETATM   32  C   UNL     1      26.668  36.662  47.087  1.00  0.00     0.000 A 
HETATM   33  C   UNL     1      25.733  37.674  47.296  1.00  0.00     0.002 A 
HETATM   34  C   UNL     1      26.162  38.984  47.520  1.00  0.00     0.032 A 
ENDBRANCH  28  29
ENDBRANCH   3  28
BRANCH   5  35
HETATM   35  N   UNL     1      25.159  43.877  49.492  1.00  0.00    -0.189 N 
HETATM   36  H   UNL     1      24.208  43.567  49.648  1.00  0.00     0.184 HD
BRANCH  35  37
HETATM   37  C   UNL     1      25.315  45.271  49.648  1.00  0.00     0.049 A 
HETATM   38  C   UNL     1      24.219  46.121  49.854  1.00  0.00     0.030 A 
HETATM   39  C   UNL     1      24.396  47.499  49.998  1.00  0.00     0.002 A 
HETATM   40  C   UNL     1      25.673  48.049  49.923  1.00  0.00     0.000 A 
HETATM   41  C   UNL     1      26.772  47.220  49.714  1.00  0.00     0.002 A 
HETATM   42  C   UNL     1      26.594  45.839  49.581  1.00  0.00     0.030 A 
ENDBRANCH  35  37
ENDBRANCH   5  35
TORSDOF 8
ENDMDL
MODEL 6
REMARK VINA RESULT:      -9.3      1.719      4.154
REMARK  8 active torsions:
REMARK  status: ('A' for Active; 'I' for Inactive)
REMARK    1  A    between atoms: C_4  and  C_5 
REMARK    2  A    between atoms: C_5  and  N_6 
REMARK    3  A    between atoms: C_5  and  C_33 
REMARK    4  A    between atoms: N_10  and  C_11 
REMARK    5  A    between atoms: C_13  and  N_14 
REMARK    6  A    between atoms: N_14  and  C_15 
REMARK    7  A    between atoms: C_22  and  N_23 
REMARK    8  A    between atoms: N_23  and  C_24 
ROOT
HETATM    1  C   UNL     1      24.197  46.539  49.725  1.00  0.00     0.756 A 
HETATM    2  N   UNL     1      23.788  45.306  49.727  1.00  0.00     0.131 NA
HETATM    3  C   UNL     1      22.597  45.010  49.128  1.00  0.00     0.757 A 
HETATM    4  N   UNL     1      21.901  46.032  48.567  1.00  0.00    -0.016 N 
HETATM    5  C   UNL     1      22.398  47.287  48.520  1.00  0.00     0.735 A 
HETATM    6  N   UNL     1      23.546  47.553  49.064  1.00  0.00     0.129 NA
HETATM    7  H   UNL     1      21.101  45.787  48.007  1.00  0.00     0.203 HD
ENDROOT
BRANCH   1   8
HETATM    8  N   UNL     1      25.376  46.870  50.382  1.00  0.00    -0.210 N 
HETATM    9  C   UNL     1      26.643  46.305  49.903  1.00  0.00     0.169 C 
HETATM   10  C   UNL     1      26.832  44.903  50.514  1.00  0.00     0.256 C 
HETATM   11  N   UNL     1      26.783  45.002  52.047  1.00  0.00    -0.056 N 
HETATM   12  H   UNL     1      27.526  45.655  52.313  1.00  0.00     0.281 HD
HETATM   13  C   UNL     1      25.487  45.673  52.523  1.00  0.00     0.256 C 
HETATM   14  C   UNL     1      25.338  47.054  51.843  1.00  0.00     0.169 C 
BRANCH  11  15
HETATM   15  C   UNL     1      27.168  43.695  52.737  1.00  0.00     0.254 C 
BRANCH  15  16
HETATM   16  C   UNL     1      28.317  43.792  53.737  1.00  0.00    -0.023 A 
HETATM   17  C   UNL     1      28.340  44.871  54.646  1.00  0.00     0.009 A 
HETATM   18  C   UNL     1      29.388  45.028  55.556  1.00  0.00     0.001 A 
HETATM   19  C   UNL     1      30.431  44.110  55.584  1.00  0.00     0.000 A 
HETATM   20  C   UNL     1      30.426  43.032  54.705  1.00  0.00     0.001 A 
HETATM   21  C   UNL     1      29.380  42.875  53.790  1.00  0.00     0.009 A 
ENDBRANCH  15  16
BRANCH  15  22
HETATM   22  C   UNL     1      27.146  42.515  51.767  1.00  0.00    -0.023 A 
HETATM   23  C   UNL     1      25.907  42.130  51.207  1.00  0.00     0.009 A 
HETATM   24  C   UNL     1      25.818  41.082  50.289  1.00  0.00     0.001 A 
HETATM   25  C   UNL     1      26.966  40.398  49.907  1.00  0.00     0.000 A 
HETATM   26  C   UNL     1      28.197  40.756  50.447  1.00  0.00     0.001 A 
HETATM   27  C   UNL     1      28.288  41.805  51.367  1.00  0.00     0.009 A 
ENDBRANCH  15  22
ENDBRANCH  11  15
ENDBRANCH   1   8
BRANCH   3  28
HETATM   28  N   UNL     1      22.275  43.758  49.167  1.00  0.00    -0.062 NA
BRANCH  28  29
HETATM   29  C   UNL     1      22.774  42.881  48.194  1.00  0.00     0.076 A 
HETATM   30  C   UNL     1      22.870  41.518  48.481  1.00  0.00     0.032 A 
HETATM   31  C   UNL     1      23.359  40.625  47.525  1.00  0.00     0.002 A 
HETATM   32  C   UNL     1      23.750  41.093  46.270  1.00  0.00     0.000 A 
HETATM   33  C   UNL     1      23.637  42.449  45.967  1.00  0.00     0.002 A 
HETATM   34  C   UNL     1      23.138  43.337  46.923  1.00  0.00     0.032 A 
ENDBRANCH  28  29
ENDBRANCH   3  28
BRANCH   5  35
HETATM   35  N   UNL     1      21.590  48.183  47.869  1.00  0.00    -0.189 N 
HETATM   36  H   UNL     1      21.085  47.816  47.071  1.00  0.00     0.184 HD
BRANCH  35  37
HETATM   37  C   UNL     1      20.935  49.274  48.478  1.00  0.00     0.049 A 
HETATM   38  C   UNL     1      21.105  50.589  48.022  1.00  0.00     0.030 A 
HETATM   39  C   UNL     1      20.453  51.655  48.646  1.00  0.00     0.002 A 
HETATM   40  C   UNL     1      19.631  51.422  49.746  1.00  0.00     0.000 A 
HETATM   41  C   UNL     1      19.456  50.123  50.215  1.00  0.00     0.002 A 
HETATM   42  C   UNL     1      20.100  49.055  49.582  1.00  0.00     0.030 A 
ENDBRANCH  35  37
ENDBRANCH   5  35
TORSDOF 8
ENDMDL
MODEL 7
REMARK VINA RESULT:      -9.3      2.105      7.178
REMARK  8 active torsions:
REMARK  status: ('A' for Active; 'I' for Inactive)
REMARK    1  A    between atoms: C_4  and  C_5 
REMARK    2  A    between atoms: C_5  and  N_6 
REMARK    3  A    between atoms: C_5  and  C_33 
REMARK    4  A    between atoms: N_10  and  C_11 
REMARK    5  A    between atoms: C_13  and  N_14 
REMARK    6  A    between atoms: N_14  and  C_15 
REMARK    7  A    between atoms: C_22  and  N_23 
REMARK    8  A    between atoms: N_23  and  C_24 
ROOT
HETATM    1  C   UNL     1      23.683  44.976  49.309  1.00  0.00     0.756 A 
HETATM    2  N   UNL     1      23.157  45.861  48.517  1.00  0.00     0.131 NA
HETATM    3  C   UNL     1      23.343  47.184  48.800  1.00  0.00     0.757 A 
HETATM    4  N   UNL     1      24.065  47.499  49.906  1.00  0.00    -0.016 N 
HETATM    5  C   UNL     1      24.658  46.547  50.660  1.00  0.00     0.735 A 
HETATM    6  N   UNL     1      24.502  45.294  50.365  1.00  0.00     0.129 NA
HETATM    7  H   UNL     1      24.317  48.466  50.028  1.00  0.00     0.203 HD
ENDROOT
BRANCH   1   8
HETATM    8  N   UNL     1      23.454  43.625  49.073  1.00  0.00    -0.210 N 
HETATM    9  C   UNL     1      23.042  42.765  50.190  1.00  0.00     0.169 C 
HETATM   10  C   UNL     1      24.295  42.300  50.957  1.00  0.00     0.256 C 
HETATM   11  N   UNL     1      25.249  41.581  49.990  1.00  0.00    -0.056 N 
HETATM   12  H   UNL     1      24.716  40.802  49.592  1.00  0.00     0.281 HD
HETATM   13  C   UNL     1      25.600  42.467  48.787  1.00  0.00     0.256 C 
HETATM   14  C   UNL     1      24.302  42.931  48.088  1.00  0.00     0.169 C 
BRANCH  11  15
HETATM   15  C   UNL     1      26.418  40.906  50.706  1.00  0.00     0.254 C 
BRANCH  15  16
HETATM   16  C   UNL     1      27.329  41.837  51.501  1.00  0.00    -0.023 A 
HETATM   17  C   UNL     1      27.864  41.384  52.726  1.00  0.00     0.009 A 
HETATM   18  C   UNL     1      28.672  42.208  53.512  1.00  0.00     0.001 A 
HETATM   19  C   UNL     1      28.970  43.499  53.091  1.00  0.00     0.000 A 
HETATM   20  C   UNL     1      28.463  43.965  51.882  1.00  0.00     0.001 A 
HETATM   21  C   UNL     1      27.652  43.143  51.095  1.00  0.00     0.009 A 
ENDBRANCH  15  16
BRANCH  15  22
HETATM   22  C   UNL     1      27.061  39.823  49.842  1.00  0.00    -0.023 A 
HETATM   23  C   UNL     1      28.359  40.054  49.333  1.00  0.00     0.009 A 
HETATM   24  C   UNL     1      29.020  39.093  48.565  1.00  0.00     0.001 A 
HETATM   25  C   UNL     1      28.400  37.880  48.292  1.00  0.00     0.000 A 
HETATM   26  C   UNL     1      27.122  37.630  48.780  1.00  0.00     0.001 A 
HETATM   27  C   UNL     1      26.458  38.591  49.549  1.00  0.00     0.009 A 
ENDBRANCH  15  22
ENDBRANCH  11  15
ENDBRANCH   1   8
BRANCH   3  28
HETATM   28  N   UNL     1      22.796  47.995  47.952  1.00  0.00    -0.062 NA
BRANCH  28  29
HETATM   29  C   UNL     1      21.939  49.005  48.409  1.00  0.00     0.076 A 
HETATM   30  C   UNL     1      20.796  48.662  49.133  1.00  0.00     0.032 A 
HETATM   31  C   UNL     1      19.931  49.653  49.603  1.00  0.00     0.002 A 
HETATM   32  C   UNL     1      20.210  50.996  49.354  1.00  0.00     0.000 A 
HETATM   33  C   UNL     1      21.360  51.350  48.650  1.00  0.00     0.002 A 
HETATM   34  C   UNL     1      22.227  50.357  48.191  1.00  0.00     0.032 A 
ENDBRANCH  28  29
ENDBRANCH   3  28
BRANCH   5  35
HETATM   35  N   UNL     1      25.393  47.043  51.705  1.00  0.00    -0.189 N 
HETATM   36  H   UNL     1      25.266  48.029  51.901  1.00  0.00     0.184 HD
BRANCH  35  37
HETATM   37  C   UNL     1      25.785  46.304  52.842  1.00  0.00     0.049 A 
HETATM   38  C   UNL     1      25.180  45.085  53.179  1.00  0.00     0.030 A 
HETATM   39  C   UNL     1      25.579  44.375  54.313  1.00  0.00     0.002 A 
HETATM   40  C   UNL     1      26.582  44.882  55.136  1.00  0.00     0.000 A 
HETATM   41  C   UNL     1      27.190  46.093  54.818  1.00  0.00     0.002 A 
HETATM   42  C   UNL     1      26.798  46.798  53.676  1.00  0.00     0.030 A 
ENDBRANCH  35  37
ENDBRANCH   5  35
TORSDOF 8
ENDMDL
MODEL 8
REMARK VINA RESULT:      -9.2      2.619      7.100
REMARK  8 active torsions:
REMARK  status: ('A' for Active; 'I' for Inactive)
REMARK    1  A    between atoms: C_4  and  C_5 
REMARK    2  A    between atoms: C_5  and  N_6 
REMARK    3  A    between atoms: C_5  and  C_33 
REMARK    4  A    between atoms: N_10  and  C_11 
REMARK    5  A    between atoms: C_13  and  N_14 
REMARK    6  A    between atoms: N_14  and  C_15 
REMARK    7  A    between atoms: C_22  and  N_23 
REMARK    8  A    between atoms: N_23  and  C_24 
ROOT
HETATM    1  C   UNL     1      27.471  41.735  51.114  1.00  0.00     0.756 A 
HETATM    2  N   UNL     1      26.483  42.572  51.012  1.00  0.00     0.131 NA
HETATM    3  C   UNL     1      26.020  42.890  49.767  1.00  0.00     0.757 A 
HETATM    4  N   UNL     1      26.630  42.313  48.699  1.00  0.00    -0.016 N 
HETATM    5  C   UNL     1      27.604  41.390  48.853  1.00  0.00     0.735 A 
HETATM    6  N   UNL     1      28.016  41.071  50.042  1.00  0.00     0.129 NA
HETATM    7  H   UNL     1      26.195  42.439  47.801  1.00  0.00     0.203 HD
ENDROOT
BRANCH   1   8
HETATM    8  N   UNL     1      27.996  41.446  52.368  1.00  0.00    -0.210 N 
HETATM    9  C   UNL     1      27.212  41.780  53.564  1.00  0.00     0.169 C 
HETATM   10  C   UNL     1      27.456  43.257  53.930  1.00  0.00     0.256 C 
HETATM   11  N   UNL     1      28.961  43.491  54.137  1.00  0.00    -0.056 N 
HETATM   12  H   UNL     1      29.249  42.845  54.878  1.00  0.00     0.281 HD
HETATM   13  C   UNL     1      29.769  43.057  52.907  1.00  0.00     0.256 C 
HETATM   14  C   UNL     1      29.449  41.583  52.570  1.00  0.00     0.169 C 
BRANCH  11  15
HETATM   15  C   UNL     1      29.271  44.875  54.705  1.00  0.00     0.254 C 
BRANCH  15  16
HETATM   16  C   UNL     1      30.028  44.888  56.030  1.00  0.00    -0.023 A 
HETATM   17  C   UNL     1      30.946  43.852  56.300  1.00  0.00     0.009 A 
HETATM   18  C   UNL     1      31.637  43.795  57.513  1.00  0.00     0.001 A 
HETATM   19  C   UNL     1      31.433  44.774  58.478  1.00  0.00     0.000 A 
HETATM   20  C   UNL     1      30.540  45.812  58.231  1.00  0.00     0.001 A 
HETATM   21  C   UNL     1      29.845  45.869  57.019  1.00  0.00     0.009 A 
ENDBRANCH  15  16
BRANCH  15  22
HETATM   22  C   UNL     1      28.096  45.836  54.529  1.00  0.00    -0.023 A 
HETATM   23  C   UNL     1      27.271  45.685  53.391  1.00  0.00     0.009 A 
HETATM   24  C   UNL     1      26.161  46.507  53.185  1.00  0.00     0.001 A 
HETATM   25  C   UNL     1      25.850  47.494  54.112  1.00  0.00     0.000 A 
HETATM   26  C   UNL     1      26.648  47.663  55.238  1.00  0.00     0.001 A 
HETATM   27  C   UNL     1      27.760  46.842  55.447  1.00  0.00     0.009 A 
ENDBRANCH  15  22
ENDBRANCH  11  15
ENDBRANCH   1   8
BRANCH   3  28
HETATM   28  N   UNL     1      25.027  43.719  49.760  1.00  0.00    -0.062 NA
BRANCH  28  29
HETATM   29  C   UNL     1      25.273  45.099  49.771  1.00  0.00     0.076 A 
HETATM   30  C   UNL     1      24.215  45.985  49.985  1.00  0.00     0.032 A 
HETATM   31  C   UNL     1      24.439  47.363  50.006  1.00  0.00     0.002 A 
HETATM   32  C   UNL     1      25.727  47.863  49.816  1.00  0.00     0.000 A 
HETATM   33  C   UNL     1      26.793  46.985  49.622  1.00  0.00     0.002 A 
HETATM   34  C   UNL     1      26.567  45.608  49.613  1.00  0.00     0.032 A 
ENDBRANCH  28  29
ENDBRANCH   3  28
BRANCH   5  35
HETATM   35  N   UNL     1      28.071  40.870  47.673  1.00  0.00    -0.189 N 
HETATM   36  H   UNL     1      28.949  41.253  47.344  1.00  0.00     0.184 HD
BRANCH  35  37
HETATM   37  C   UNL     1      27.841  39.553  47.223  1.00  0.00     0.049 A 
HETATM   38  C   UNL     1      27.873  38.455  48.094  1.00  0.00     0.030 A 
HETATM   39  C   UNL     1      27.652  37.158  47.623  1.00  0.00     0.002 A 
HETATM   40  C   UNL     1      27.408  36.941  46.270  1.00  0.00     0.000 A 
HETATM   41  C   UNL     1      27.377  38.019  45.391  1.00  0.00     0.002 A 
HETATM   42  C   UNL     1      27.588  39.318  45.864  1.00  0.00     0.030 A 
ENDBRANCH  35  37
ENDBRANCH   5  35
TORSDOF 8
ENDMDL
MODEL 9
REMARK VINA RESULT:      -9.2      2.556      5.646
REMARK  8 active torsions:
REMARK  status: ('A' for Active; 'I' for Inactive)
REMARK    1  A    between atoms: C_4  and  C_5 
REMARK    2  A    between atoms: C_5  and  N_6 
REMARK    3  A    between atoms: C_5  and  C_33 
REMARK    4  A    between atoms: N_10  and  C_11 
REMARK    5  A    between atoms: C_13  and  N_14 
REMARK    6  A    between atoms: N_14  and  C_15 
REMARK    7  A    between atoms: C_22  and  N_23 
REMARK    8  A    between atoms: N_23  and  C_24 
ROOT
HETATM    1  C   UNL     1      23.712  46.972  49.073  1.00  0.00     0.756 A 
HETATM    2  N   UNL     1      22.716  46.232  48.689  1.00  0.00     0.131 NA
HETATM    3  C   UNL     1      21.454  46.749  48.755  1.00  0.00     0.757 A 
HETATM    4  N   UNL     1      21.312  48.013  49.229  1.00  0.00    -0.016 N 
HETATM    5  C   UNL     1      22.382  48.775  49.546  1.00  0.00     0.735 A 
HETATM    6  N   UNL     1      23.580  48.286  49.449  1.00  0.00     0.129 NA
HETATM    7  H   UNL     1      20.403  48.435  49.141  1.00  0.00     0.203 HD
ENDROOT
BRANCH   1   8
HETATM    8  N   UNL     1      24.998  46.443  49.070  1.00  0.00    -0.210 N 
HETATM    9  C   UNL     1      25.174  44.996  49.240  1.00  0.00     0.169 C 
HETATM   10  C   UNL     1      25.163  44.659  50.743  1.00  0.00     0.256 C 
HETATM   11  N   UNL     1      26.260  45.465  51.457  1.00  0.00    -0.056 N 
HETATM   12  H   UNL     1      27.141  45.212  51.000  1.00  0.00     0.281 HD
HETATM   13  C   UNL     1      26.106  46.970  51.197  1.00  0.00     0.256 C 
HETATM   14  C   UNL     1      26.084  47.234  49.674  1.00  0.00     0.169 C 
BRANCH  11  15
HETATM   15  C   UNL     1      26.456  45.039  52.910  1.00  0.00     0.254 C 
BRANCH  15  16
HETATM   16  C   UNL     1      26.647  46.176  53.910  1.00  0.00    -0.023 A 
HETATM   17  C   UNL     1      27.717  46.104  54.827  1.00  0.00     0.009 A 
HETATM   18  C   UNL     1      27.915  47.098  55.788  1.00  0.00     0.001 A 
HETATM   19  C   UNL     1      27.054  48.188  55.851  1.00  0.00     0.000 A 
HETATM   20  C   UNL     1      25.998  48.286  54.951  1.00  0.00     0.001 A 
HETATM   21  C   UNL     1      25.796  47.291  53.991  1.00  0.00     0.009 A 
ENDBRANCH  15  16
BRANCH  15  22
HETATM   22  C   UNL     1      27.360  43.812  53.023  1.00  0.00    -0.023 A 
HETATM   23  C   UNL     1      28.575  43.805  52.302  1.00  0.00     0.009 A 
HETATM   24  C   UNL     1      29.463  42.732  52.385  1.00  0.00     0.001 A 
HETATM   25  C   UNL     1      29.159  41.643  53.194  1.00  0.00     0.000 A 
HETATM   26  C   UNL     1      27.968  41.626  53.912  1.00  0.00     0.001 A 
HETATM   27  C   UNL     1      27.076  42.700  53.829  1.00  0.00     0.009 A 
ENDBRANCH  15  22
ENDBRANCH  11  15
ENDBRANCH   1   8
BRANCH   3  28
HETATM   28  N   UNL     1      20.525  45.948  48.341  1.00  0.00    -0.062 NA
BRANCH  28  29
HETATM   29  C   UNL     1      19.377  46.470  47.731  1.00  0.00     0.076 A 
HETATM   30  C   UNL     1      19.380  46.719  46.357  1.00  0.00     0.032 A 
HETATM   31  C   UNL     1      18.245  47.234  45.728  1.00  0.00     0.002 A 
HETATM   32  C   UNL     1      17.095  47.499  46.472  1.00  0.00     0.000 A 
HETATM   33  C   UNL     1      17.076  47.235  47.840  1.00  0.00     0.002 A 
HETATM   34  C   UNL     1      18.209  46.710  48.464  1.00  0.00     0.032 A 
ENDBRANCH  28  29
ENDBRANCH   3  28
BRANCH   5  35
HETATM   35  N   UNL     1      22.060  50.044  49.954  1.00  0.00    -0.189 N 
HETATM   36  H   UNL     1      22.842  50.680  50.063  1.00  0.00     0.184 HD
BRANCH  35  37
HETATM   37  C   UNL     1      20.850  50.706  49.660  1.00  0.00     0.049 A 
HETATM   38  C   UNL     1      19.684  50.487  50.406  1.00  0.00     0.030 A 
HETATM   39  C   UNL     1      18.494  51.148  50.091  1.00  0.00     0.002 A 
HETATM   40  C   UNL     1      18.451  52.030  49.014  1.00  0.00     0.000 A 
HETATM   41  C   UNL     1      19.599  52.256  48.260  1.00  0.00     0.002 A 
HETATM   42  C   UNL     1      20.792  51.602  48.583  1.00  0.00     0.030 A 
ENDBRANCH  35  37
ENDBRANCH   5  35
TORSDOF 8
ENDMDL
MODEL 10
REMARK VINA RESULT:      -9.1      2.484      5.798
REMARK  8 active torsions:
REMARK  status: ('A' for Active; 'I' for Inactive)
REMARK    1  A    between atoms: C_4  and  C_5 
REMARK    2  A    between atoms: C_5  and  N_6 
REMARK    3  A    between atoms: C_5  and  C_33 
REMARK    4  A    between atoms: N_10  and  C_11 
REMARK    5  A    between atoms: C_13  and  N_14 
REMARK    6  A    between atoms: N_14  and  C_15 
REMARK    7  A    between atoms: C_22  and  N_23 
REMARK    8  A    between atoms: N_23  and  C_24 
ROOT
HETATM    1  C   UNL     1      24.278  47.891  49.713  1.00  0.00     0.756 A 
HETATM    2  N   UNL     1      23.661  46.923  49.106  1.00  0.00     0.131 NA
HETATM    3  C   UNL     1      22.479  47.192  48.478  1.00  0.00     0.757 A 
HETATM    4  N   UNL     1      22.009  48.465  48.532  1.00  0.00    -0.016 N 
HETATM    5  C   UNL     1      22.720  49.458  49.109  1.00  0.00     0.735 A 
HETATM    6  N   UNL     1      23.859  49.199  49.675  1.00  0.00     0.129 NA
HETATM    7  H   UNL     1      21.217  48.686  47.951  1.00  0.00     0.203 HD
ENDROOT
BRANCH   1   8
HETATM    8  N   UNL     1      25.451  47.625  50.409  1.00  0.00    -0.210 N 
HETATM    9  C   UNL     1      26.542  46.919  49.725  1.00  0.00     0.169 C 
HETATM   10  C   UNL     1      26.287  45.401  49.804  1.00  0.00     0.256 C 
HETATM   11  N   UNL     1      26.155  44.981  51.277  1.00  0.00    -0.056 N 
HETATM   12  H   UNL     1      27.030  45.261  51.731  1.00  0.00     0.281 HD
HETATM   13  C   UNL     1      25.067  45.791  51.995  1.00  0.00     0.256 C 
HETATM   14  C   UNL     1      25.360  47.301  51.843  1.00  0.00     0.169 C 
BRANCH  11  15
HETATM   15  C   UNL     1      26.110  43.465  51.457  1.00  0.00     0.254 C 
BRANCH  15  16
HETATM   16  C   UNL     1      27.373  42.832  52.033  1.00  0.00    -0.023 A 
HETATM   17  C   UNL     1      28.484  43.657  52.308  1.00  0.00     0.009 A 
HETATM   18  C   UNL     1      29.678  43.123  52.800  1.00  0.00     0.001 A 
HETATM   19  C   UNL     1      29.786  41.758  53.035  1.00  0.00     0.000 A 
HETATM   20  C   UNL     1      28.701  40.925  52.782  1.00  0.00     0.001 A 
HETATM   21  C   UNL     1      27.507  41.456  52.287  1.00  0.00     0.009 A 
ENDBRANCH  15  16
BRANCH  15  22
HETATM   22  C   UNL     1      25.422  42.775  50.280  1.00  0.00    -0.023 A 
HETATM   23  C   UNL     1      24.010  42.746  50.252  1.00  0.00     0.009 A 
HETATM   24  C   UNL     1      23.317  42.161  49.190  1.00  0.00     0.001 A 
HETATM   25  C   UNL     1      24.019  41.597  48.132  1.00  0.00     0.000 A 
HETATM   26  C   UNL     1      25.410  41.611  48.139  1.00  0.00     0.001 A 
HETATM   27  C   UNL     1      26.107  42.196  49.201  1.00  0.00     0.009 A 
ENDBRANCH  15  22
ENDBRANCH  11  15
ENDBRANCH   1   8
BRANCH   3  28
HETATM   28  N   UNL     1      21.940  46.173  47.889  1.00  0.00    -0.062 NA
BRANCH  28  29
HETATM   29  C   UNL     1      20.592  46.219  47.513  1.00  0.00     0.076 A 
HETATM   30  C   UNL     1      20.256  46.497  46.186  1.00  0.00     0.032 A 
HETATM   31  C   UNL     1      18.919  46.542  45.788  1.00  0.00     0.002 A 
HETATM   32  C   UNL     1      17.906  46.303  46.718  1.00  0.00     0.000 A 
HETATM   33  C   UNL     1      18.232  46.004  48.039  1.00  0.00     0.002 A 
HETATM   34  C   UNL     1      19.571  45.950  48.431  1.00  0.00     0.032 A 
ENDBRANCH  28  29
ENDBRANCH   3  28
BRANCH   5  35
HETATM   35  N   UNL     1      22.125  50.690  49.026  1.00  0.00    -0.189 N 
HETATM   36  H   UNL     1      22.568  51.349  48.396  1.00  0.00     0.184 HD
BRANCH  35  37
HETATM   37  C   UNL     1      20.745  50.935  49.194  1.00  0.00     0.049 A 
HETATM   38  C   UNL     1      20.074  51.929  48.467  1.00  0.00     0.030 A 
HETATM   39  C   UNL     1      18.710  52.159  48.657  1.00  0.00     0.002 A 
HETATM   40  C   UNL     1      17.999  51.406  49.587  1.00  0.00     0.000 A 
HETATM   41  C   UNL     1      18.650  50.419  50.321  1.00  0.00     0.002 A 
HETATM   42  C   UNL     1      20.014  50.182  50.122  1.00  0.00     0.030 A 
ENDBRANCH  35  37
ENDBRANCH   5  35
TORSDOF 8
ENDMDL
