MODEL 1
REMARK VINA RESULT:      -9.6      0.000      0.000
REMARK  10 active torsions:
REMARK  status: ('A' for Active; 'I' for Inactive)
REMARK    1  A    between atoms: C_4  and  C_5 
REMARK    2  A    between atoms: C_5  and  C_6 
REMARK    3  A    between atoms: C_6  and  N_7 
REMARK    4  A    between atoms: C_6  and  C_15 
REMARK       I    between atoms: N_7  and  C_8 
REMARK    5  A    between atoms: C_8  and  C_9 
REMARK       I    between atoms: C_15  and  N_16 
REMARK    6  A    between atoms: N_16  and  C_17 
REMARK    7  A    between atoms: C_17  and  C_18 
REMARK    8  A    between atoms: C_18  and  C_19 
REMARK    9  A    between atoms: C_21  and  O_22 
REMARK   10  A    between atoms: C_23  and  O_24 
ROOT
HETATM    1  C   UNL     1      26.041  46.492  51.372  1.00  0.00     0.181 C 
ENDROOT
BRANCH   1   2
HETATM    2  C   UNL     1      24.775  47.121  50.762  1.00  0.00     0.073 C 
BRANCH   2   3
HETATM    3  C   UNL     1      25.065  48.195  49.736  1.00  0.00    -0.056 A 
HETATM    4  C   UNL     1      26.385  48.542  49.421  1.00  0.00     0.007 A 
HETATM    5  C   UNL     1      26.650  49.528  48.468  1.00  0.00     0.001 A 
HETATM    6  C   UNL     1      25.599  50.175  47.821  1.00  0.00     0.000 A 
HETATM    7  C   UNL     1      24.283  49.834  48.123  1.00  0.00     0.001 A 
HETATM    8  C   UNL     1      24.015  48.846  49.073  1.00  0.00     0.007 A 
ENDBRANCH   2   3
ENDBRANCH   1   2
BRANCH   1   9
HETATM    9  N   UNL     1      26.109  45.052  51.102  1.00  0.00    -0.342 N 
HETATM   10  C   UNL     1      26.769  44.513  50.023  1.00  0.00     0.276 C 
HETATM   11  O   UNL     1      27.448  45.209  49.270  1.00  0.00    -0.265 OA
HETATM   12  H   UNL     1      25.592  44.410  51.694  1.00  0.00     0.163 HD
BRANCH  10  13
HETATM   13  C   UNL     1      26.627  43.080  49.888  1.00  0.00     0.142 A 
HETATM   14  O   UNL     1      27.263  42.432  48.860  1.00  0.00    -0.317 OA
HETATM   15  C   UNL     1      26.958  41.112  48.971  1.00  0.00     0.143 A 
HETATM   16  C   UNL     1      26.133  40.895  50.048  1.00  0.00     0.027 A 
HETATM   17  C   UNL     1      25.918  42.163  50.640  1.00  0.00     0.045 A 
ENDBRANCH  10  13
ENDBRANCH   1   9
BRANCH   1  18
HETATM   18  C   UNL     1      26.083  46.758  52.896  1.00  0.00     0.240 C 
HETATM   19  N   UNL     1      26.880  45.875  53.596  1.00  0.00    -0.359 N 
HETATM   20  H   UNL     1      27.359  45.145  53.066  1.00  0.00     0.162 HD
HETATM   21  O   UNL     1      25.511  47.705  53.432  1.00  0.00    -0.271 OA
BRANCH  19  22
HETATM   22  C   UNL     1      27.120  45.974  55.020  1.00  0.00     0.127 C 
BRANCH  22  23
HETATM   23  C   UNL     1      28.500  46.563  55.341  1.00  0.00     0.058 C 
BRANCH  23  24
HETATM   24  C   UNL     1      29.510  45.596  55.922  1.00  0.00    -0.054 A 
HETATM   25  C   UNL     1      30.069  45.796  57.195  1.00  0.00     0.046 A 
HETATM   26  C   UNL     1      30.965  44.864  57.710  1.00  0.00     0.099 A 
HETATM   27  C   UNL     1      31.299  43.728  56.981  1.00  0.00     0.098 A 
HETATM   28  C   UNL     1      30.754  43.507  55.727  1.00  0.00     0.040 A 
HETATM   29  C   UNL     1      29.858  44.439  55.199  1.00  0.00     0.010 A 
BRANCH  26  30
HETATM   30  O   UNL     1      31.543  45.025  58.939  1.00  0.00    -0.358 OA
HETATM   31  H   UNL     1      31.315  44.246  59.476  1.00  0.00     0.218 HD
ENDBRANCH  26  30
BRANCH  27  32
HETATM   32  O   UNL     1      32.172  42.816  57.501  1.00  0.00    -0.358 OA
HETATM   33  H   UNL     1      31.900  42.729  58.436  1.00  0.00     0.218 HD
ENDBRANCH  27  32
ENDBRANCH  23  24
ENDBRANCH  22  23
ENDBRANCH  19  22
ENDBRANCH   1  18
TORSDOF 10
ENDMDL
MODEL 2
REMARK VINA RESULT:      -9.3      2.560      7.714
REMARK  10 active torsions:
REMARK  status: ('A' for Active; 'I' for Inactive)
REMARK    1  A    between atoms: C_4  and  C_5 
REMARK    2  A    between atoms: C_5  and  C_6 
REMARK    3  A    between atoms: C_6  and  N_7 
REMARK    4  A    between atoms: C_6  and  C_15 
REMARK       I    between atoms: N_7  and  C_8 
REMARK    5  A    between atoms: C_8  and  C_9 
REMARK       I    between atoms: C_15  and  N_16 
REMARK    6  A    between atoms: N_16  and  C_17 
REMARK    7  A    between atoms: C_17  and  C_18 
REMARK    8  A    between atoms: C_18  and  C_19 
REMARK    9  A    between atoms: C_21  and  O_22 
REMARK   10  A    between atoms: C_23  and  O_24 
ROOT
HETATM    1  C   UNL     1      27.453  43.479  53.976  1.00  0.00     0.181 C 
ENDROOT
BRANCH   1   2
HETATM    2  C   UNL     1      28.786  44.233  53.826  1.00  0.00     0.073 C 
BRANCH   2   3
HETATM    3  C   UNL     1      29.595  44.297  55.104  1.00  0.00    -0.056 A 
HETATM    4  C   UNL     1      29.406  45.345  56.015  1.00  0.00     0.007 A 
HETATM    5  C   UNL     1      30.148  45.398  57.197  1.00  0.00     0.001 A 
HETATM    6  C   UNL     1      31.082  44.404  57.481  1.00  0.00     0.000 A 
HETATM    7  C   UNL     1      31.274  43.355  56.585  1.00  0.00     0.001 A 
HETATM    8  C   UNL     1      30.532  43.298  55.404  1.00  0.00     0.007 A 
ENDBRANCH   2   3
ENDBRANCH   1   2
BRANCH   1   9
HETATM    9  N   UNL     1      27.372  42.341  53.054  1.00  0.00    -0.342 N 
HETATM   10  C   UNL     1      27.455  42.466  51.687  1.00  0.00     0.276 C 
HETATM   11  O   UNL     1      27.718  43.542  51.153  1.00  0.00    -0.265 OA
HETATM   12  H   UNL     1      27.178  41.416  53.422  1.00  0.00     0.163 HD
BRANCH  10  13
HETATM   13  C   UNL     1      27.250  41.233  50.960  1.00  0.00     0.142 A 
HETATM   14  O   UNL     1      28.335  40.524  50.511  1.00  0.00    -0.317 OA
HETATM   15  C   UNL     1      27.857  39.427  49.867  1.00  0.00     0.143 A 
HETATM   16  C   UNL     1      26.483  39.414  49.888  1.00  0.00     0.027 A 
HETATM   17  C   UNL     1      26.090  40.578  50.591  1.00  0.00     0.045 A 
ENDBRANCH  10  13
ENDBRANCH   1   9
BRANCH   1  18
HETATM   18  C   UNL     1      26.267  44.447  53.744  1.00  0.00     0.240 C 
HETATM   19  N   UNL     1      26.616  45.609  53.085  1.00  0.00    -0.359 N 
HETATM   20  H   UNL     1      27.593  45.726  52.814  1.00  0.00     0.162 HD
HETATM   21  O   UNL     1      25.109  44.184  54.061  1.00  0.00    -0.271 OA
BRANCH  19  22
HETATM   22  C   UNL     1      25.659  46.626  52.703  1.00  0.00     0.127 C 
BRANCH  22  23
HETATM   23  C   UNL     1      25.086  46.392  51.300  1.00  0.00     0.058 C 
BRANCH  23  24
HETATM   24  C   UNL     1      25.308  47.510  50.303  1.00  0.00    -0.054 A 
HETATM   25  C   UNL     1      26.600  47.958  49.981  1.00  0.00     0.046 A 
HETATM   26  C   UNL     1      26.766  48.961  49.031  1.00  0.00     0.099 A 
HETATM   27  C   UNL     1      25.663  49.513  48.386  1.00  0.00     0.098 A 
HETATM   28  C   UNL     1      24.381  49.080  48.683  1.00  0.00     0.040 A 
HETATM   29  C   UNL     1      24.204  48.077  49.639  1.00  0.00     0.010 A 
BRANCH  26  30
HETATM   30  O   UNL     1      28.003  49.438  48.696  1.00  0.00    -0.358 OA
HETATM   31  H   UNL     1      28.624  49.164  49.394  1.00  0.00     0.218 HD
ENDBRANCH  26  30
BRANCH  27  32
HETATM   32  O   UNL     1      25.839  50.490  47.449  1.00  0.00    -0.358 OA
HETATM   33  H   UNL     1      25.011  51.007  47.482  1.00  0.00     0.218 HD
ENDBRANCH  27  32
ENDBRANCH  23  24
ENDBRANCH  22  23
ENDBRANCH  19  22
ENDBRANCH   1  18
TORSDOF 10
ENDMDL
MODEL 3
REMARK VINA RESULT:      -9.2      2.489      8.490
REMARK  10 active torsions:
REMARK  status: ('A' for Active; 'I' for Inactive)
REMARK    1  A    between atoms: C_4  and  C_5 
REMARK    2  A    between atoms: C_5  and  C_6 
REMARK    3  A    between atoms: C_6  and  N_7 
REMARK    4  A    between atoms: C_6  and  C_15 
REMARK       I    between atoms: N_7  and  C_8 
REMARK    5  A    between atoms: C_8  and  C_9 
REMARK       I    between atoms: C_15  and  N_16 
REMARK    6  A    between atoms: N_16  and  C_17 
REMARK    7  A    between atoms: C_17  and  C_18 
REMARK    8  A    between atoms: C_18  and  C_19 
REMARK    9  A    between atoms: C_21  and  O_22 
REMARK   10  A    between atoms: C_23  and  O_24 
ROOT
HETATM    1  C   UNL     1      27.600  45.681  55.113  1.00  0.00     0.181 C 
ENDROOT
BRANCH   1   2
HETATM    2  C   UNL     1      28.894  46.407  55.525  1.00  0.00     0.073 C 
BRANCH   2   3
HETATM    3  C   UNL     1      29.856  45.537  56.305  1.00  0.00    -0.056 A 
HETATM    4  C   UNL     1      30.108  45.791  57.660  1.00  0.00     0.007 A 
HETATM    5  C   UNL     1      30.990  44.982  58.379  1.00  0.00     0.001 A 
HETATM    6  C   UNL     1      31.628  43.912  57.753  1.00  0.00     0.000 A 
HETATM    7  C   UNL     1      31.380  43.648  56.408  1.00  0.00     0.001 A 
HETATM    8  C   UNL     1      30.496  44.453  55.687  1.00  0.00     0.007 A 
ENDBRANCH   2   3
ENDBRANCH   1   2
BRANCH   1   9
HETATM    9  N   UNL     1      27.879  44.553  54.219  1.00  0.00    -0.342 N 
HETATM   10  C   UNL     1      27.197  43.360  54.269  1.00  0.00     0.276 C 
HETATM   11  O   UNL     1      26.222  43.205  55.002  1.00  0.00    -0.265 OA
HETATM   12  H   UNL     1      28.655  44.613  53.569  1.00  0.00     0.163 HD
BRANCH  10  13
HETATM   13  C   UNL     1      27.697  42.345  53.367  1.00  0.00     0.142 A 
HETATM   14  O   UNL     1      27.119  42.193  52.133  1.00  0.00    -0.317 OA
HETATM   15  C   UNL     1      27.775  41.182  51.506  1.00  0.00     0.143 A 
HETATM   16  C   UNL     1      28.764  40.674  52.314  1.00  0.00     0.027 A 
HETATM   17  C   UNL     1      28.715  41.423  53.514  1.00  0.00     0.045 A 
ENDBRANCH  10  13
ENDBRANCH   1   9
BRANCH   1  18
HETATM   18  C   UNL     1      26.626  46.678  54.439  1.00  0.00     0.240 C 
HETATM   19  N   UNL     1      26.365  46.393  53.114  1.00  0.00    -0.359 N 
HETATM   20  H   UNL     1      26.820  45.575  52.705  1.00  0.00     0.162 HD
HETATM   21  O   UNL     1      26.084  47.603  55.039  1.00  0.00    -0.271 OA
BRANCH  19  22
HETATM   22  C   UNL     1      25.432  47.150  52.305  1.00  0.00     0.127 C 
BRANCH  22  23
HETATM   23  C   UNL     1      25.517  46.783  50.818  1.00  0.00     0.058 C 
BRANCH  23  24
HETATM   24  C   UNL     1      24.992  47.825  49.852  1.00  0.00    -0.054 A 
HETATM   25  C   UNL     1      25.861  48.658  49.129  1.00  0.00     0.046 A 
HETATM   26  C   UNL     1      25.342  49.577  48.222  1.00  0.00     0.099 A 
HETATM   27  C   UNL     1      23.968  49.666  48.015  1.00  0.00     0.098 A 
HETATM   28  C   UNL     1      23.094  48.849  48.713  1.00  0.00     0.040 A 
HETATM   29  C   UNL     1      23.606  47.927  49.628  1.00  0.00     0.010 A 
BRANCH  26  30
HETATM   30  O   UNL     1      26.149  50.417  47.506  1.00  0.00    -0.358 OA
HETATM   31  H   UNL     1      27.051  50.051  47.531  1.00  0.00     0.218 HD
ENDBRANCH  26  30
BRANCH  27  32
HETATM   32  O   UNL     1      23.471  50.565  47.116  1.00  0.00    -0.358 OA
HETATM   33  H   UNL     1      22.948  50.021  46.495  1.00  0.00     0.218 HD
ENDBRANCH  27  32
ENDBRANCH  23  24
ENDBRANCH  22  23
ENDBRANCH  19  22
ENDBRANCH   1  18
TORSDOF 10
ENDMDL
MODEL 4
REMARK VINA RESULT:      -9.1      2.479      7.992
REMARK  10 active torsions:
REMARK  status: ('A' for Active; 'I' for Inactive)
REMARK    1  A    between atoms: C_4  and  C_5 
REMARK    2  A    between atoms: C_5  and  C_6 
REMARK    3  A    between atoms: C_6  and  N_7 
REMARK    4  A    between atoms: C_6  and  C_15 
REMARK       I    between atoms: N_7  and  C_8 
REMARK    5  A    between atoms: C_8  and  C_9 
REMARK       I    between atoms: C_15  and  N_16 
REMARK    6  A    between atoms: N_16  and  C_17 
REMARK    7  A    between atoms: C_17  and  C_18 
REMARK    8  A    between atoms: C_18  and  C_19 
REMARK    9  A    between atoms: C_21  and  O_22 
REMARK   10  A    between atoms: C_23  and  O_24 
ROOT
HETATM    1  C   UNL     1      27.689  43.519  53.832  1.00  0.00     0.181 C 
ENDROOT
BRANCH   1   2
HETATM    2  C   UNL     1      29.108  44.110  53.750  1.00  0.00     0.073 C 
BRANCH   2   3
HETATM    3  C   UNL     1      29.812  44.187  55.087  1.00  0.00    -0.056 A 
HETATM    4  C   UNL     1      30.692  43.173  55.489  1.00  0.00     0.007 A 
HETATM    5  C   UNL     1      31.346  43.250  56.721  1.00  0.00     0.001 A 
HETATM    6  C   UNL     1      31.130  44.341  57.561  1.00  0.00     0.000 A 
HETATM    7  C   UNL     1      30.261  45.357  57.168  1.00  0.00     0.001 A 
HETATM    8  C   UNL     1      29.608  45.283  55.937  1.00  0.00     0.007 A 
ENDBRANCH   2   3
ENDBRANCH   1   2
BRANCH   1   9
HETATM    9  N   UNL     1      27.415  42.622  52.705  1.00  0.00    -0.342 N 
HETATM   10  C   UNL     1      27.857  41.322  52.646  1.00  0.00     0.276 C 
HETATM   11  O   UNL     1      28.422  40.789  53.600  1.00  0.00    -0.265 OA
HETATM   12  H   UNL     1      26.932  42.982  51.889  1.00  0.00     0.163 HD
BRANCH  10  13
HETATM   13  C   UNL     1      27.563  40.644  51.403  1.00  0.00     0.142 A 
HETATM   14  O   UNL     1      28.576  40.028  50.713  1.00  0.00    -0.317 OA
HETATM   15  C   UNL     1      28.025  39.482  49.597  1.00  0.00     0.143 A 
HETATM   16  C   UNL     1      26.675  39.738  49.549  1.00  0.00     0.027 A 
HETATM   17  C   UNL     1      26.376  40.488  50.712  1.00  0.00     0.045 A 
ENDBRANCH  10  13
ENDBRANCH   1   9
BRANCH   1  18
HETATM   18  C   UNL     1      26.643  44.660  53.882  1.00  0.00     0.240 C 
HETATM   19  N   UNL     1      26.794  45.601  52.884  1.00  0.00    -0.359 N 
HETATM   20  H   UNL     1      27.557  45.469  52.218  1.00  0.00     0.162 HD
HETATM   21  O   UNL     1      25.722  44.696  54.696  1.00  0.00    -0.271 OA
BRANCH  19  22
HETATM   22  C   UNL     1      25.890  46.716  52.697  1.00  0.00     0.127 C 
BRANCH  22  23
HETATM   23  C   UNL     1      24.996  46.544  51.463  1.00  0.00     0.058 C 
BRANCH  23  24
HETATM   24  C   UNL     1      25.230  47.528  50.336  1.00  0.00    -0.054 A 
HETATM   25  C   UNL     1      24.164  48.044  49.581  1.00  0.00     0.046 A 
HETATM   26  C   UNL     1      24.417  48.977  48.579  1.00  0.00     0.099 A 
HETATM   27  C   UNL     1      25.715  49.412  48.330  1.00  0.00     0.098 A 
HETATM   28  C   UNL     1      26.779  48.921  49.067  1.00  0.00     0.040 A 
HETATM   29  C   UNL     1      26.536  47.982  50.072  1.00  0.00     0.010 A 
BRANCH  26  30
HETATM   30  O   UNL     1      23.412  49.497  47.810  1.00  0.00    -0.358 OA
HETATM   31  H   UNL     1      23.761  49.612  46.908  1.00  0.00     0.218 HD
ENDBRANCH  26  30
BRANCH  27  32
HETATM   32  O   UNL     1      25.948  50.334  47.350  1.00  0.00    -0.358 OA
HETATM   33  H   UNL     1      25.887  49.823  46.519  1.00  0.00     0.218 HD
ENDBRANCH  27  32
ENDBRANCH  23  24
ENDBRANCH  22  23
ENDBRANCH  19  22
ENDBRANCH   1  18
TORSDOF 10
ENDMDL
MODEL 5
REMARK VINA RESULT:      -8.9      1.520      2.204
REMARK  10 active torsions:
REMARK  status: ('A' for Active; 'I' for Inactive)
REMARK    1  A    between atoms: C_4  and  C_5 
REMARK    2  A    between atoms: C_5  and  C_6 
REMARK    3  A    between atoms: C_6  and  N_7 
REMARK    4  A    between atoms: C_6  and  C_15 
REMARK       I    between atoms: N_7  and  C_8 
REMARK    5  A    between atoms: C_8  and  C_9 
REMARK       I    between atoms: C_15  and  N_16 
REMARK    6  A    between atoms: N_16  and  C_17 
REMARK    7  A    between atoms: C_17  and  C_18 
REMARK    8  A    between atoms: C_18  and  C_19 
REMARK    9  A    between atoms: C_21  and  O_22 
REMARK   10  A    between atoms: C_23  and  O_24 
ROOT
HETATM    1  C   UNL     1      25.920  45.532  50.884  1.00  0.00     0.181 C 
ENDROOT
BRANCH   1   2
HETATM    2  C   UNL     1      25.035  46.792  50.880  1.00  0.00     0.073 C 
BRANCH   2   3
HETATM    3  C   UNL     1      25.535  47.882  49.959  1.00  0.00    -0.056 A 
HETATM    4  C   UNL     1      24.633  48.675  49.236  1.00  0.00     0.007 A 
HETATM    5  C   UNL     1      25.096  49.686  48.392  1.00  0.00     0.001 A 
HETATM    6  C   UNL     1      26.465  49.916  48.263  1.00  0.00     0.000 A 
HETATM    7  C   UNL     1      27.370  49.138  48.980  1.00  0.00     0.001 A 
HETATM    8  C   UNL     1      26.909  48.128  49.827  1.00  0.00     0.007 A 
ENDBRANCH   2   3
ENDBRANCH   1   2
BRANCH   1   9
HETATM    9  N   UNL     1      25.233  44.391  50.272  1.00  0.00    -0.342 N 
HETATM   10  C   UNL     1      25.860  43.472  49.464  1.00  0.00     0.276 C 
HETATM   11  O   UNL     1      27.078  43.488  49.295  1.00  0.00    -0.265 OA
HETATM   12  H   UNL     1      24.229  44.296  50.385  1.00  0.00     0.163 HD
BRANCH  10  13
HETATM   13  C   UNL     1      24.978  42.484  48.882  1.00  0.00     0.142 A 
HETATM   14  O   UNL     1      25.497  41.513  48.064  1.00  0.00    -0.317 OA
HETATM   15  C   UNL     1      24.460  40.734  47.661  1.00  0.00     0.143 A 
HETATM   16  C   UNL     1      23.278  41.185  48.200  1.00  0.00     0.027 A 
HETATM   17  C   UNL     1      23.611  42.314  48.987  1.00  0.00     0.045 A 
ENDBRANCH  10  13
ENDBRANCH   1   9
BRANCH   1  18
HETATM   18  C   UNL     1      26.349  45.191  52.332  1.00  0.00     0.240 C 
HETATM   19  N   UNL     1      27.103  44.039  52.435  1.00  0.00    -0.359 N 
HETATM   20  H   UNL     1      27.308  43.527  51.575  1.00  0.00     0.162 HD
HETATM   21  O   UNL     1      26.098  45.909  53.298  1.00  0.00    -0.271 OA
BRANCH  19  22
HETATM   22  C   UNL     1      27.669  43.565  53.680  1.00  0.00     0.127 C 
BRANCH  22  23
HETATM   23  C   UNL     1      29.190  43.751  53.740  1.00  0.00     0.058 C 
BRANCH  23  24
HETATM   24  C   UNL     1      29.754  44.124  55.095  1.00  0.00    -0.054 A 
HETATM   25  C   UNL     1      30.750  43.349  55.712  1.00  0.00     0.046 A 
HETATM   26  C   UNL     1      31.271  43.746  56.940  1.00  0.00     0.099 A 
HETATM   27  C   UNL     1      30.825  44.912  57.553  1.00  0.00     0.098 A 
HETATM   28  C   UNL     1      29.849  45.695  56.959  1.00  0.00     0.040 A 
HETATM   29  C   UNL     1      29.317  45.302  55.729  1.00  0.00     0.010 A 
BRANCH  26  30
HETATM   30  O   UNL     1      32.232  43.016  57.584  1.00  0.00    -0.358 OA
HETATM   31  H   UNL     1      31.802  42.549  58.323  1.00  0.00     0.218 HD
ENDBRANCH  26  30
BRANCH  27  32
HETATM   32  O   UNL     1      31.351  45.296  58.754  1.00  0.00    -0.358 OA
HETATM   33  H   UNL     1      32.110  45.862  58.513  1.00  0.00     0.218 HD
ENDBRANCH  27  32
ENDBRANCH  23  24
ENDBRANCH  22  23
ENDBRANCH  19  22
ENDBRANCH   1  18
TORSDOF 10
ENDMDL
MODEL 6
REMARK VINA RESULT:      -8.9      1.833      5.231
REMARK  10 active torsions:
REMARK  status: ('A' for Active; 'I' for Inactive)
REMARK    1  A    between atoms: C_4  and  C_5 
REMARK    2  A    between atoms: C_5  and  C_6 
REMARK    3  A    between atoms: C_6  and  N_7 
REMARK    4  A    between atoms: C_6  and  C_15 
REMARK       I    between atoms: N_7  and  C_8 
REMARK    5  A    between atoms: C_8  and  C_9 
REMARK       I    between atoms: C_15  and  N_16 
REMARK    6  A    between atoms: N_16  and  C_17 
REMARK    7  A    between atoms: C_17  and  C_18 
REMARK    8  A    between atoms: C_18  and  C_19 
REMARK    9  A    between atoms: C_21  and  O_22 
REMARK   10  A    between atoms: C_23  and  O_24 
ROOT
HETATM    1  C   UNL     1      25.854  45.023  51.520  1.00  0.00     0.181 C 
ENDROOT
BRANCH   1   2
HETATM    2  C   UNL     1      27.244  44.642  50.979  1.00  0.00     0.073 C 
BRANCH   2   3
HETATM    3  C   UNL     1      27.722  43.282  51.439  1.00  0.00    -0.056 A 
HETATM    4  C   UNL     1      27.025  42.121  51.075  1.00  0.00     0.007 A 
HETATM    5  C   UNL     1      27.473  40.866  51.494  1.00  0.00     0.001 A 
HETATM    6  C   UNL     1      28.621  40.759  52.277  1.00  0.00     0.000 A 
HETATM    7  C   UNL     1      29.323  41.905  52.639  1.00  0.00     0.001 A 
HETATM    8  C   UNL     1      28.880  43.161  52.220  1.00  0.00     0.007 A 
ENDBRANCH   2   3
ENDBRANCH   1   2
BRANCH   1   9
HETATM    9  N   UNL     1      25.396  46.303  50.970  1.00  0.00    -0.342 N 
HETATM   10  C   UNL     1      24.423  46.409  50.004  1.00  0.00     0.276 C 
HETATM   11  O   UNL     1      23.789  45.429  49.618  1.00  0.00    -0.265 OA
HETATM   12  H   UNL     1      25.857  47.160  51.257  1.00  0.00     0.163 HD
BRANCH  10  13
HETATM   13  C   UNL     1      24.195  47.757  49.530  1.00  0.00     0.142 A 
HETATM   14  O   UNL     1      25.262  48.529  49.150  1.00  0.00    -0.317 OA
HETATM   15  C   UNL     1      24.766  49.731  48.756  1.00  0.00     0.143 A 
HETATM   16  C   UNL     1      23.396  49.752  48.879  1.00  0.00     0.027 A 
HETATM   17  C   UNL     1      23.027  48.480  49.378  1.00  0.00     0.045 A 
ENDBRANCH  10  13
ENDBRANCH   1   9
BRANCH   1  18
HETATM   18  C   UNL     1      25.883  45.078  53.067  1.00  0.00     0.240 C 
HETATM   19  N   UNL     1      26.905  45.852  53.578  1.00  0.00    -0.359 N 
HETATM   20  H   UNL     1      27.533  46.309  52.915  1.00  0.00     0.162 HD
HETATM   21  O   UNL     1      25.041  44.535  53.778  1.00  0.00    -0.271 OA
BRANCH  19  22
HETATM   22  C   UNL     1      27.084  46.101  54.993  1.00  0.00     0.127 C 
BRANCH  22  23
HETATM   23  C   UNL     1      28.469  46.676  55.315  1.00  0.00     0.058 C 
BRANCH  23  24
HETATM   24  C   UNL     1      29.464  45.703  55.911  1.00  0.00    -0.054 A 
HETATM   25  C   UNL     1      30.014  45.906  57.188  1.00  0.00     0.046 A 
HETATM   26  C   UNL     1      30.896  44.969  57.717  1.00  0.00     0.099 A 
HETATM   27  C   UNL     1      31.225  43.824  56.998  1.00  0.00     0.098 A 
HETATM   28  C   UNL     1      30.689  43.600  55.741  1.00  0.00     0.040 A 
HETATM   29  C   UNL     1      29.807  44.537  55.199  1.00  0.00     0.010 A 
BRANCH  26  30
HETATM   30  O   UNL     1      31.465  45.132  58.950  1.00  0.00    -0.358 OA
HETATM   31  H   UNL     1      31.269  44.334  59.473  1.00  0.00     0.218 HD
ENDBRANCH  26  30
BRANCH  27  32
HETATM   32  O   UNL     1      32.084  42.907  57.533  1.00  0.00    -0.358 OA
HETATM   33  H   UNL     1      31.592  42.063  57.490  1.00  0.00     0.218 HD
ENDBRANCH  27  32
ENDBRANCH  23  24
ENDBRANCH  22  23
ENDBRANCH  19  22
ENDBRANCH   1  18
TORSDOF 10
ENDMDL
MODEL 7
REMARK VINA RESULT:      -8.7      2.730      7.332
REMARK  10 active torsions:
REMARK  status: ('A' for Active; 'I' for Inactive)
REMARK    1  A    between atoms: C_4  and  C_5 
REMARK    2  A    between atoms: C_5  and  C_6 
REMARK    3  A    between atoms: C_6  and  N_7 
REMARK    4  A    between atoms: C_6  and  C_15 
REMARK       I    between atoms: N_7  and  C_8 
REMARK    5  A    between atoms: C_8  and  C_9 
REMARK       I    between atoms: C_15  and  N_16 
REMARK    6  A    between atoms: N_16  and  C_17 
REMARK    7  A    between atoms: C_17  and  C_18 
REMARK    8  A    between atoms: C_18  and  C_19 
REMARK    9  A    between atoms: C_21  and  O_22 
REMARK   10  A    between atoms: C_23  and  O_24 
ROOT
HETATM    1  C   UNL     1      26.587  45.426  52.243  1.00  0.00     0.181 C 
ENDROOT
BRANCH   1   2
HETATM    2  C   UNL     1      26.795  45.843  53.710  1.00  0.00     0.073 C 
BRANCH   2   3
HETATM    3  C   UNL     1      28.031  45.241  54.343  1.00  0.00    -0.056 A 
HETATM    4  C   UNL     1      28.721  45.927  55.352  1.00  0.00     0.007 A 
HETATM    5  C   UNL     1      29.857  45.366  55.940  1.00  0.00     0.001 A 
HETATM    6  C   UNL     1      30.312  44.115  55.528  1.00  0.00     0.000 A 
HETATM    7  C   UNL     1      29.630  43.422  54.530  1.00  0.00     0.001 A 
HETATM    8  C   UNL     1      28.493  43.979  53.942  1.00  0.00     0.007 A 
ENDBRANCH   2   3
ENDBRANCH   1   2
BRANCH   1   9
HETATM    9  N   UNL     1      26.329  46.587  51.386  1.00  0.00    -0.342 N 
HETATM   10  C   UNL     1      26.735  46.668  50.075  1.00  0.00     0.276 C 
HETATM   11  O   UNL     1      27.248  45.710  49.500  1.00  0.00    -0.265 OA
HETATM   12  H   UNL     1      25.889  47.411  51.783  1.00  0.00     0.163 HD
BRANCH  10  13
HETATM   13  C   UNL     1      26.469  47.940  49.442  1.00  0.00     0.142 A 
HETATM   14  O   UNL     1      25.171  48.347  49.262  1.00  0.00    -0.317 OA
HETATM   15  C   UNL     1      25.213  49.560  48.650  1.00  0.00     0.143 A 
HETATM   16  C   UNL     1      26.515  49.943  48.426  1.00  0.00     0.027 A 
HETATM   17  C   UNL     1      27.325  48.900  48.936  1.00  0.00     0.045 A 
ENDBRANCH  10  13
ENDBRANCH   1   9
BRANCH   1  18
HETATM   18  C   UNL     1      25.423  44.410  52.141  1.00  0.00     0.240 C 
HETATM   19  N   UNL     1      25.413  43.689  50.964  1.00  0.00    -0.359 N 
HETATM   20  H   UNL     1      26.150  43.879  50.284  1.00  0.00     0.162 HD
HETATM   21  O   UNL     1      24.615  44.216  53.047  1.00  0.00    -0.271 OA
BRANCH  19  22
HETATM   22  C   UNL     1      24.458  42.638  50.681  1.00  0.00     0.127 C 
BRANCH  22  23
HETATM   23  C   UNL     1      24.780  41.888  49.383  1.00  0.00     0.058 C 
BRANCH  23  24
HETATM   24  C   UNL     1      26.140  41.225  49.326  1.00  0.00    -0.054 A 
HETATM   25  C   UNL     1      26.772  40.748  50.487  1.00  0.00     0.046 A 
HETATM   26  C   UNL     1      28.005  40.109  50.389  1.00  0.00     0.099 A 
HETATM   27  C   UNL     1      28.609  39.927  49.149  1.00  0.00     0.098 A 
HETATM   28  C   UNL     1      28.000  40.383  47.991  1.00  0.00     0.040 A 
HETATM   29  C   UNL     1      26.765  41.029  48.080  1.00  0.00     0.010 A 
BRANCH  26  30
HETATM   30  O   UNL     1      28.662  39.641  51.492  1.00  0.00    -0.358 OA
HETATM   31  H   UNL     1      29.587  39.940  51.433  1.00  0.00     0.218 HD
ENDBRANCH  26  30
BRANCH  27  32
HETATM   32  O   UNL     1      29.814  39.291  49.065  1.00  0.00    -0.358 OA
HETATM   33  H   UNL     1      29.918  38.856  49.934  1.00  0.00     0.218 HD
ENDBRANCH  27  32
ENDBRANCH  23  24
ENDBRANCH  22  23
ENDBRANCH  19  22
ENDBRANCH   1  18
TORSDOF 10
ENDMDL
MODEL 8
REMARK VINA RESULT:      -8.5      2.720      7.029
REMARK  10 active torsions:
REMARK  status: ('A' for Active; 'I' for Inactive)
REMARK    1  A    between atoms: C_4  and  C_5 
REMARK    2  A    between atoms: C_5  and  C_6 
REMARK    3  A    between atoms: C_6  and  N_7 
REMARK    4  A    between atoms: C_6  and  C_15 
REMARK       I    between atoms: N_7  and  C_8 
REMARK    5  A    between atoms: C_8  and  C_9 
REMARK       I    between atoms: C_15  and  N_16 
REMARK    6  A    between atoms: N_16  and  C_17 
REMARK    7  A    between atoms: C_17  and  C_18 
REMARK    8  A    between atoms: C_18  and  C_19 
REMARK    9  A    between atoms: C_21  and  O_22 
REMARK   10  A    between atoms: C_23  and  O_24 
ROOT
HETATM    1  C   UNL     1      26.154  46.365  51.002  1.00  0.00     0.181 C 
ENDROOT
BRANCH   1   2
HETATM    2  C   UNL     1      25.654  46.006  52.413  1.00  0.00     0.073 C 
BRANCH   2   3
HETATM    3  C   UNL     1      26.739  46.032  53.467  1.00  0.00    -0.056 A 
HETATM    4  C   UNL     1      27.512  44.891  53.722  1.00  0.00     0.007 A 
HETATM    5  C   UNL     1      28.519  44.920  54.690  1.00  0.00     0.001 A 
HETATM    6  C   UNL     1      28.764  46.088  55.410  1.00  0.00     0.000 A 
HETATM    7  C   UNL     1      28.005  47.229  55.160  1.00  0.00     0.001 A 
HETATM    8  C   UNL     1      27.000  47.204  54.191  1.00  0.00     0.007 A 
ENDBRANCH   2   3
ENDBRANCH   1   2
BRANCH   1   9
HETATM    9  N   UNL     1      25.282  47.353  50.359  1.00  0.00    -0.342 N 
HETATM   10  C   UNL     1      25.722  48.256  49.420  1.00  0.00     0.276 C 
HETATM   11  O   UNL     1      26.868  48.216  48.975  1.00  0.00    -0.265 OA
HETATM   12  H   UNL     1      24.315  47.433  50.657  1.00  0.00     0.163 HD
BRANCH  10  13
HETATM   13  C   UNL     1      24.722  49.207  48.988  1.00  0.00     0.142 A 
HETATM   14  O   UNL     1      23.565  49.347  49.712  1.00  0.00    -0.317 OA
HETATM   15  C   UNL     1      22.814  50.292  49.087  1.00  0.00     0.143 A 
HETATM   16  C   UNL     1      23.463  50.763  47.970  1.00  0.00     0.027 A 
HETATM   17  C   UNL     1      24.692  50.065  47.905  1.00  0.00     0.045 A 
ENDBRANCH  10  13
ENDBRANCH   1   9
BRANCH   1  18
HETATM   18  C   UNL     1      26.254  45.087  50.135  1.00  0.00     0.240 C 
HETATM   19  N   UNL     1      25.058  44.415  49.989  1.00  0.00    -0.359 N 
HETATM   20  H   UNL     1      24.234  44.805  50.449  1.00  0.00     0.162 HD
HETATM   21  O   UNL     1      27.289  44.731  49.574  1.00  0.00    -0.271 OA
BRANCH  19  22
HETATM   22  C   UNL     1      24.902  43.233  49.167  1.00  0.00     0.127 C 
BRANCH  22  23
HETATM   23  C   UNL     1      24.828  41.947  49.999  1.00  0.00     0.058 C 
BRANCH  23  24
HETATM   24  C   UNL     1      26.124  41.175  50.135  1.00  0.00    -0.054 A 
HETATM   25  C   UNL     1      27.093  41.532  51.087  1.00  0.00     0.046 A 
HETATM   26  C   UNL     1      28.254  40.775  51.208  1.00  0.00     0.099 A 
HETATM   27  C   UNL     1      28.455  39.658  50.403  1.00  0.00     0.098 A 
HETATM   28  C   UNL     1      27.510  39.284  49.463  1.00  0.00     0.040 A 
HETATM   29  C   UNL     1      26.344  40.040  49.331  1.00  0.00     0.010 A 
BRANCH  26  30
HETATM   30  O   UNL     1      29.230  41.093  52.111  1.00  0.00    -0.358 OA
HETATM   31  H   UNL     1      29.037  40.611  52.935  1.00  0.00     0.218 HD
ENDBRANCH  26  30
BRANCH  27  32
HETATM   32  O   UNL     1      29.595  38.917  50.538  1.00  0.00    -0.358 OA
HETATM   33  H   UNL     1      30.318  39.564  50.420  1.00  0.00     0.218 HD
ENDBRANCH  27  32
ENDBRANCH  23  24
ENDBRANCH  22  23
ENDBRANCH  19  22
ENDBRANCH   1  18
TORSDOF 10
ENDMDL
MODEL 9
REMARK VINA RESULT:      -8.4      1.923      5.177
REMARK  10 active torsions:
REMARK  status: ('A' for Active; 'I' for Inactive)
REMARK    1  A    between atoms: C_4  and  C_5 
REMARK    2  A    between atoms: C_5  and  C_6 
REMARK    3  A    between atoms: C_6  and  N_7 
REMARK    4  A    between atoms: C_6  and  C_15 
REMARK       I    between atoms: N_7  and  C_8 
REMARK    5  A    between atoms: C_8  and  C_9 
REMARK       I    between atoms: C_15  and  N_16 
REMARK    6  A    between atoms: N_16  and  C_17 
REMARK    7  A    between atoms: C_17  and  C_18 
REMARK    8  A    between atoms: C_18  and  C_19 
REMARK    9  A    between atoms: C_21  and  O_22 
REMARK   10  A    between atoms: C_23  and  O_24 
ROOT
HETATM    1  C   UNL     1      25.200  46.171  50.919  1.00  0.00     0.181 C 
ENDROOT
BRANCH   1   2
HETATM    2  C   UNL     1      26.256  45.599  49.955  1.00  0.00     0.073 C 
BRANCH   2   3
HETATM    3  C   UNL     1      26.115  44.112  49.713  1.00  0.00    -0.056 A 
HETATM    4  C   UNL     1      27.118  43.224  50.126  1.00  0.00     0.007 A 
HETATM    5  C   UNL     1      26.982  41.851  49.908  1.00  0.00     0.001 A 
HETATM    6  C   UNL     1      25.843  41.353  49.278  1.00  0.00     0.000 A 
HETATM    7  C   UNL     1      24.838  42.226  48.868  1.00  0.00     0.001 A 
HETATM    8  C   UNL     1      24.970  43.598  49.087  1.00  0.00     0.007 A 
ENDBRANCH   2   3
ENDBRANCH   1   2
BRANCH   1   9
HETATM    9  N   UNL     1      24.586  47.388  50.381  1.00  0.00    -0.342 N 
HETATM   10  C   UNL     1      23.575  47.380  49.449  1.00  0.00     0.276 C 
HETATM   11  O   UNL     1      23.041  46.333  49.088  1.00  0.00    -0.265 OA
HETATM   12  H   UNL     1      24.958  48.293  50.649  1.00  0.00     0.163 HD
BRANCH  10  13
HETATM   13  C   UNL     1      23.183  48.690  48.978  1.00  0.00     0.142 A 
HETATM   14  O   UNL     1      23.704  49.808  49.578  1.00  0.00    -0.317 OA
HETATM   15  C   UNL     1      23.169  50.886  48.947  1.00  0.00     0.143 A 
HETATM   16  C   UNL     1      22.309  50.486  47.952  1.00  0.00     0.027 A 
HETATM   17  C   UNL     1      22.316  49.071  47.971  1.00  0.00     0.045 A 
ENDBRANCH  10  13
ENDBRANCH   1   9
BRANCH   1  18
HETATM   18  C   UNL     1      25.841  46.453  52.300  1.00  0.00     0.240 C 
HETATM   19  N   UNL     1      26.348  45.330  52.921  1.00  0.00    -0.359 N 
HETATM   20  H   UNL     1      26.261  44.437  52.433  1.00  0.00     0.162 HD
HETATM   21  O   UNL     1      25.948  47.582  52.776  1.00  0.00    -0.271 OA
BRANCH  19  22
HETATM   22  C   UNL     1      27.050  45.367  54.187  1.00  0.00     0.127 C 
BRANCH  22  23
HETATM   23  C   UNL     1      28.473  44.803  54.083  1.00  0.00     0.058 C 
BRANCH  23  24
HETATM   24  C   UNL     1      29.286  44.830  55.360  1.00  0.00    -0.054 A 
HETATM   25  C   UNL     1      30.340  43.928  55.576  1.00  0.00     0.046 A 
HETATM   26  C   UNL     1      31.090  44.009  56.746  1.00  0.00     0.099 A 
HETATM   27  C   UNL     1      30.812  44.988  57.696  1.00  0.00     0.098 A 
HETATM   28  C   UNL     1      29.782  45.892  57.499  1.00  0.00     0.040 A 
HETATM   29  C   UNL     1      29.022  45.815  56.331  1.00  0.00     0.010 A 
BRANCH  26  30
HETATM   30  O   UNL     1      32.116  43.144  57.006  1.00  0.00    -0.358 OA
HETATM   31  H   UNL     1      31.981  42.353  56.454  1.00  0.00     0.218 HD
ENDBRANCH  26  30
BRANCH  27  32
HETATM   32  O   UNL     1      31.561  45.063  58.836  1.00  0.00    -0.358 OA
HETATM   33  H   UNL     1      32.346  44.513  58.645  1.00  0.00     0.218 HD
ENDBRANCH  27  32
ENDBRANCH  23  24
ENDBRANCH  22  23
ENDBRANCH  19  22
ENDBRANCH   1  18
TORSDOF 10
ENDMDL
MODEL 10
REMARK VINA RESULT:      -8.3      3.114      7.714
REMARK  10 active torsions:
REMARK  status: ('A' for Active; 'I' for Inactive)
REMARK    1  A    between atoms: C_4  and  C_5 
REMARK    2  A    between atoms: C_5  and  C_6 
REMARK    3  A    between atoms: C_6  and  N_7 
REMARK    4  A    between atoms: C_6  and  C_15 
REMARK       I    between atoms: N_7  and  C_8 
REMARK    5  A    between atoms: C_8  and  C_9 
REMARK       I    between atoms: C_15  and  N_16 
REMARK    6  A    between atoms: N_16  and  C_17 
REMARK    7  A    between atoms: C_17  and  C_18 
REMARK    8  A    between atoms: C_18  and  C_19 
REMARK    9  A    between atoms: C_21  and  O_22 
REMARK   10  A    between atoms: C_23  and  O_24 
ROOT
HETATM    1  C   UNL     1      26.705  44.623  51.234  1.00  0.00     0.181 C 
ENDROOT
BRANCH   1   2
HETATM    2  C   UNL     1      26.445  44.583  52.750  1.00  0.00     0.073 C 
BRANCH   2   3
HETATM    3  C   UNL     1      27.678  44.272  53.570  1.00  0.00    -0.056 A 
HETATM    4  C   UNL     1      28.372  43.069  53.386  1.00  0.00     0.007 A 
HETATM    5  C   UNL     1      29.514  42.787  54.138  1.00  0.00     0.001 A 
HETATM    6  C   UNL     1      29.975  43.705  55.080  1.00  0.00     0.000 A 
HETATM    7  C   UNL     1      29.296  44.907  55.268  1.00  0.00     0.001 A 
HETATM    8  C   UNL     1      28.155  45.192  54.515  1.00  0.00     0.007 A 
ENDBRANCH   2   3
ENDBRANCH   1   2
BRANCH   1   9
HETATM    9  N   UNL     1      26.183  45.854  50.632  1.00  0.00    -0.342 N 
HETATM   10  C   UNL     1      26.848  46.565  49.660  1.00  0.00     0.276 C 
HETATM   11  O   UNL     1      27.885  46.143  49.150  1.00  0.00    -0.265 OA
HETATM   12  H   UNL     1      25.320  46.253  50.985  1.00  0.00     0.163 HD
BRANCH  10  13
HETATM   13  C   UNL     1      26.205  47.802  49.277  1.00  0.00     0.142 A 
HETATM   14  O   UNL     1      26.922  48.753  48.594  1.00  0.00    -0.317 OA
HETATM   15  C   UNL     1      26.084  49.798  48.368  1.00  0.00     0.143 A 
HETATM   16  C   UNL     1      24.840  49.544  48.896  1.00  0.00     0.027 A 
HETATM   17  C   UNL     1      24.917  48.258  49.482  1.00  0.00     0.045 A 
ENDBRANCH  10  13
ENDBRANCH   1   9
BRANCH   1  18
HETATM   18  C   UNL     1      26.078  43.381  50.555  1.00  0.00     0.240 C 
HETATM   19  N   UNL     1      26.635  43.073  49.331  1.00  0.00    -0.359 N 
HETATM   20  H   UNL     1      27.390  43.669  48.988  1.00  0.00     0.162 HD
HETATM   21  O   UNL     1      25.206  42.693  51.081  1.00  0.00    -0.271 OA
BRANCH  19  22
HETATM   22  C   UNL     1      26.251  41.916  48.549  1.00  0.00     0.127 C 
BRANCH  22  23
HETATM   23  C   UNL     1      27.463  41.147  48.008  1.00  0.00     0.058 C 
BRANCH  23  24
HETATM   24  C   UNL     1      27.787  39.847  48.714  1.00  0.00    -0.054 A 
HETATM   25  C   UNL     1      29.084  39.568  49.177  1.00  0.00     0.046 A 
HETATM   26  C   UNL     1      29.333  38.379  49.855  1.00  0.00     0.099 A 
HETATM   27  C   UNL     1      28.305  37.471  50.092  1.00  0.00     0.098 A 
HETATM   28  C   UNL     1      27.018  37.730  49.650  1.00  0.00     0.040 A 
HETATM   29  C   UNL     1      26.759  38.918  48.964  1.00  0.00     0.010 A 
BRANCH  26  30
HETATM   30  O   UNL     1      30.582  38.059  50.312  1.00  0.00    -0.358 OA
HETATM   31  H   UNL     1      30.528  37.974  51.281  1.00  0.00     0.218 HD
ENDBRANCH  26  30
BRANCH  27  32
HETATM   32  O   UNL     1      28.561  36.312  50.767  1.00  0.00    -0.358 OA
HETATM   33  H   UNL     1      28.034  35.638  50.295  1.00  0.00     0.218 HD
ENDBRANCH  27  32
ENDBRANCH  23  24
ENDBRANCH  22  23
ENDBRANCH  19  22
ENDBRANCH   1  18
TORSDOF 10
ENDMDL
