MODEL 1
REMARK VINA RESULT:      -9.9      0.000      0.000
REMARK  4 active torsions:
REMARK  status: ('A' for Active; 'I' for Inactive)
REMARK    1  A    between atoms: O_2  and  C_3 
REMARK    2  A    between atoms: C_6  and  C_7 
REMARK    3  A    between atoms: C_11  and  C_12 
REMARK       I    between atoms: C_12  and  N_13 
REMARK    4  A    between atoms: N_13  and  N_14 
ROOT
HETATM    1  C   UNL     1      24.614  44.428  51.302  1.00  0.00     0.289 C 
HETATM    2  N   UNL     1      24.768  45.707  50.791  1.00  0.00    -0.241 N 
HETATM    3  O   UNL     1      23.650  43.698  51.099  1.00  0.00    -0.264 OA
HETATM    4  H   UNL     1      25.490  46.296  51.177  1.00  0.00     0.192 HD
ENDROOT
BRANCH   1   5
HETATM    5  C   UNL     1      25.733  43.995  52.106  1.00  0.00     0.121 A 
HETATM    6  N   UNL     1      26.226  42.722  52.039  1.00  0.00    -0.272 N 
HETATM    7  N   UNL     1      27.282  42.500  52.840  1.00  0.00    -0.174 NA
HETATM    8  H   UNL     1      25.880  41.965  51.456  1.00  0.00     0.189 HD
HETATM    9  C   UNL     1      27.510  43.679  53.438  1.00  0.00     0.089 A 
HETATM   10  C   UNL     1      26.544  44.635  53.021  1.00  0.00     0.071 A 
BRANCH   9  11
HETATM   11  C   UNL     1      28.611  43.886  54.383  1.00  0.00    -0.005 A 
HETATM   12  C   UNL     1      28.672  45.043  55.171  1.00  0.00     0.016 A 
HETATM   13  C   UNL     1      29.708  45.224  56.092  1.00  0.00     0.037 A 
HETATM   14  C   UNL     1      30.698  44.255  56.247  1.00  0.00     0.068 A 
HETATM   15  C   UNL     1      30.660  43.108  55.454  1.00  0.00     0.037 A 
HETATM   16  C   UNL     1      29.623  42.928  54.527  1.00  0.00     0.016 A 
BRANCH  14  17
HETATM   17  O   UNL     1      31.640  44.551  57.192  1.00  0.00    -0.356 OA
HETATM   18  C   UNL     1      31.162  45.060  58.431  1.00  0.00     0.210 C 
ENDBRANCH  14  17
ENDBRANCH   9  11
ENDBRANCH   1   5
BRANCH   2  19
HETATM   19  N   UNL     1      23.788  46.311  50.065  1.00  0.00    -0.165 NA
HETATM   20  C   UNL     1      24.072  47.428  49.467  1.00  0.00     0.157 A 
HETATM   21  C   UNL     1      22.975  48.293  48.810  1.00  0.00     0.277 A 
HETATM   22  C   UNL     1      25.330  48.165  49.265  1.00  0.00     0.027 A 
HETATM   23  O   UNL     1      21.801  48.020  48.706  1.00  0.00    -0.266 OA
HETATM   24  N   UNL     1      23.616  49.440  48.396  1.00  0.00    -0.321 N 
HETATM   25  C   UNL     1      24.980  49.370  48.650  1.00  0.00     0.048 A 
HETATM   26  H   UNL     1      23.133  50.192  47.928  1.00  0.00     0.169 HD
HETATM   27  C   UNL     1      25.923  50.323  48.319  1.00  0.00     0.030 A 
HETATM   28  C   UNL     1      27.260  50.036  48.604  1.00  0.00     0.002 A 
HETATM   29  C   UNL     1      27.625  48.808  49.184  1.00  0.00     0.001 A 
HETATM   30  C   UNL     1      26.656  47.852  49.509  1.00  0.00     0.016 A 
ENDBRANCH   2  19
TORSDOF 4
ENDMDL
MODEL 2
REMARK VINA RESULT:      -9.5      2.439      9.068
REMARK  4 active torsions:
REMARK  status: ('A' for Active; 'I' for Inactive)
REMARK    1  A    between atoms: O_2  and  C_3 
REMARK    2  A    between atoms: C_6  and  C_7 
REMARK    3  A    between atoms: C_11  and  C_12 
REMARK       I    between atoms: C_12  and  N_13 
REMARK    4  A    between atoms: N_13  and  N_14 
ROOT
HETATM    1  C   UNL     1      26.401  45.108  50.329  1.00  0.00     0.289 C 
HETATM    2  N   UNL     1      25.965  44.580  51.534  1.00  0.00    -0.241 N 
HETATM    3  O   UNL     1      27.197  44.567  49.569  1.00  0.00    -0.264 OA
HETATM    4  H   UNL     1      25.475  45.185  52.175  1.00  0.00     0.192 HD
ENDROOT
BRANCH   1   5
HETATM    5  C   UNL     1      25.803  46.383  50.014  1.00  0.00     0.121 A 
HETATM    6  N   UNL     1      26.549  47.518  49.858  1.00  0.00    -0.272 N 
HETATM    7  N   UNL     1      25.829  48.610  49.546  1.00  0.00    -0.174 NA
HETATM    8  H   UNL     1      27.557  47.601  49.949  1.00  0.00     0.189 HD
HETATM    9  C   UNL     1      24.563  48.171  49.466  1.00  0.00     0.089 A 
HETATM   10  C   UNL     1      24.504  46.785  49.777  1.00  0.00     0.071 A 
BRANCH   9  11
HETATM   11  C   UNL     1      23.444  49.049  49.113  1.00  0.00    -0.005 A 
HETATM   12  C   UNL     1      22.127  48.572  49.123  1.00  0.00     0.016 A 
HETATM   13  C   UNL     1      21.059  49.419  48.812  1.00  0.00     0.037 A 
HETATM   14  C   UNL     1      21.285  50.757  48.490  1.00  0.00     0.068 A 
HETATM   15  C   UNL     1      22.593  51.238  48.456  1.00  0.00     0.037 A 
HETATM   16  C   UNL     1      23.664  50.388  48.763  1.00  0.00     0.016 A 
BRANCH  14  17
HETATM   17  O   UNL     1      20.153  51.476  48.225  1.00  0.00    -0.356 OA
HETATM   18  C   UNL     1      19.302  51.757  49.329  1.00  0.00     0.210 C 
ENDBRANCH  14  17
ENDBRANCH   9  11
ENDBRANCH   1   5
BRANCH   2  19
HETATM   19  N   UNL     1      26.467  43.416  52.030  1.00  0.00    -0.165 NA
HETATM   20  C   UNL     1      27.320  43.487  53.006  1.00  0.00     0.157 A 
HETATM   21  C   UNL     1      28.106  42.247  53.483  1.00  0.00     0.277 A 
HETATM   22  C   UNL     1      27.791  44.600  53.847  1.00  0.00     0.027 A 
HETATM   23  O   UNL     1      27.978  41.111  53.087  1.00  0.00    -0.266 OA
HETATM   24  N   UNL     1      28.991  42.719  54.428  1.00  0.00    -0.321 N 
HETATM   25  C   UNL     1      28.809  44.078  54.649  1.00  0.00     0.048 A 
HETATM   26  H   UNL     1      29.638  42.116  54.912  1.00  0.00     0.169 HD
HETATM   27  C   UNL     1      29.491  44.856  55.563  1.00  0.00     0.030 A 
HETATM   28  C   UNL     1      29.117  46.196  55.679  1.00  0.00     0.002 A 
HETATM   29  C   UNL     1      28.065  46.719  54.907  1.00  0.00     0.001 A 
HETATM   30  C   UNL     1      27.381  45.915  53.987  1.00  0.00     0.016 A 
ENDBRANCH   2  19
TORSDOF 4
ENDMDL
MODEL 3
REMARK VINA RESULT:      -9.2      2.949      9.398
REMARK  4 active torsions:
REMARK  status: ('A' for Active; 'I' for Inactive)
REMARK    1  A    between atoms: O_2  and  C_3 
REMARK    2  A    between atoms: C_6  and  C_7 
REMARK    3  A    between atoms: C_11  and  C_12 
REMARK       I    between atoms: C_12  and  N_13 
REMARK    4  A    between atoms: N_13  and  N_14 
ROOT
HETATM    1  C   UNL     1      25.962  46.634  49.901  1.00  0.00     0.289 C 
HETATM    2  N   UNL     1      25.509  45.763  50.879  1.00  0.00    -0.241 N 
HETATM    3  O   UNL     1      27.030  46.534  49.306  1.00  0.00    -0.264 OA
HETATM    4  H   UNL     1      24.723  46.042  51.446  1.00  0.00     0.192 HD
ENDROOT
BRANCH   1   5
HETATM    5  C   UNL     1      25.031  47.699  49.608  1.00  0.00     0.121 A 
HETATM    6  N   UNL     1      25.441  48.911  49.127  1.00  0.00    -0.272 N 
HETATM    7  N   UNL     1      24.438  49.775  48.892  1.00  0.00    -0.174 NA
HETATM    8  H   UNL     1      26.396  49.199  48.937  1.00  0.00     0.189 HD
HETATM    9  C   UNL     1      23.324  49.096  49.204  1.00  0.00     0.089 A 
HETATM   10  C   UNL     1      23.657  47.799  49.680  1.00  0.00     0.071 A 
BRANCH   9  11
HETATM   11  C   UNL     1      21.983  49.670  49.060  1.00  0.00    -0.005 A 
HETATM   12  C   UNL     1      21.813  51.025  48.742  1.00  0.00     0.016 A 
HETATM   13  C   UNL     1      20.534  51.563  48.578  1.00  0.00     0.037 A 
HETATM   14  C   UNL     1      19.402  50.762  48.723  1.00  0.00     0.068 A 
HETATM   15  C   UNL     1      19.557  49.418  49.060  1.00  0.00     0.037 A 
HETATM   16  C   UNL     1      20.840  48.878  49.229  1.00  0.00     0.016 A 
BRANCH  14  17
HETATM   17  O   UNL     1      18.217  51.411  48.518  1.00  0.00    -0.356 OA
HETATM   18  C   UNL     1      17.550  51.902  49.675  1.00  0.00     0.210 C 
ENDBRANCH  14  17
ENDBRANCH   9  11
ENDBRANCH   1   5
BRANCH   2  19
HETATM   19  N   UNL     1      26.277  44.736  51.335  1.00  0.00    -0.165 NA
HETATM   20  C   UNL     1      26.906  44.896  52.459  1.00  0.00     0.157 A 
HETATM   21  C   UNL     1      27.967  43.885  52.942  1.00  0.00     0.277 A 
HETATM   22  C   UNL     1      26.863  45.947  53.490  1.00  0.00     0.027 A 
HETATM   23  O   UNL     1      28.270  42.842  52.409  1.00  0.00    -0.266 OA
HETATM   24  N   UNL     1      28.501  44.437  54.086  1.00  0.00    -0.321 N 
HETATM   25  C   UNL     1      27.863  45.627  54.412  1.00  0.00     0.048 A 
HETATM   26  H   UNL     1      29.228  43.983  54.618  1.00  0.00     0.169 HD
HETATM   27  C   UNL     1      28.115  46.413  55.519  1.00  0.00     0.030 A 
HETATM   28  C   UNL     1      27.317  47.544  55.704  1.00  0.00     0.002 A 
HETATM   29  C   UNL     1      26.282  47.850  54.804  1.00  0.00     0.001 A 
HETATM   30  C   UNL     1      26.038  47.040  53.689  1.00  0.00     0.016 A 
ENDBRANCH   2  19
TORSDOF 4
ENDMDL
MODEL 4
REMARK VINA RESULT:      -9.2      1.878      2.491
REMARK  4 active torsions:
REMARK  status: ('A' for Active; 'I' for Inactive)
REMARK    1  A    between atoms: O_2  and  C_3 
REMARK    2  A    between atoms: C_6  and  C_7 
REMARK    3  A    between atoms: C_11  and  C_12 
REMARK       I    between atoms: C_12  and  N_13 
REMARK    4  A    between atoms: N_13  and  N_14 
ROOT
HETATM    1  C   UNL     1      23.969  44.693  50.813  1.00  0.00     0.289 C 
HETATM    2  N   UNL     1      23.768  45.691  49.871  1.00  0.00    -0.241 N 
HETATM    3  O   UNL     1      23.288  43.680  50.924  1.00  0.00    -0.264 OA
HETATM    4  H   UNL     1      24.248  46.569  49.992  1.00  0.00     0.192 HD
ENDROOT
BRANCH   1   5
HETATM    5  C   UNL     1      25.104  44.938  51.671  1.00  0.00     0.121 A 
HETATM    6  N   UNL     1      25.404  46.185  52.142  1.00  0.00    -0.272 N 
HETATM    7  N   UNL     1      26.483  46.224  52.944  1.00  0.00    -0.174 NA
HETATM    8  H   UNL     1      24.901  47.046  51.950  1.00  0.00     0.189 HD
HETATM    9  C   UNL     1      26.892  44.949  53.026  1.00  0.00     0.089 A 
HETATM   10  C   UNL     1      26.067  44.116  52.222  1.00  0.00     0.071 A 
BRANCH   9  11
HETATM   11  C   UNL     1      28.040  44.539  53.840  1.00  0.00    -0.005 A 
HETATM   12  C   UNL     1      28.756  43.373  53.535  1.00  0.00     0.016 A 
HETATM   13  C   UNL     1      29.867  43.000  54.296  1.00  0.00     0.037 A 
HETATM   14  C   UNL     1      30.287  43.782  55.371  1.00  0.00     0.068 A 
HETATM   15  C   UNL     1      29.569  44.933  55.698  1.00  0.00     0.037 A 
HETATM   16  C   UNL     1      28.453  45.305  54.937  1.00  0.00     0.016 A 
BRANCH  14  17
HETATM   17  O   UNL     1      31.395  43.311  56.018  1.00  0.00    -0.356 OA
HETATM   18  C   UNL     1      31.568  43.721  57.369  1.00  0.00     0.210 C 
ENDBRANCH  14  17
ENDBRANCH   9  11
ENDBRANCH   1   5
BRANCH   2  19
HETATM   19  N   UNL     1      22.707  45.667  49.018  1.00  0.00    -0.165 NA
HETATM   20  C   UNL     1      22.325  46.789  48.489  1.00  0.00     0.157 A 
HETATM   21  C   UNL     1      21.008  46.897  47.691  1.00  0.00     0.277 A 
HETATM   22  C   UNL     1      22.900  48.144  48.489  1.00  0.00     0.027 A 
HETATM   23  O   UNL     1      20.254  45.994  47.409  1.00  0.00    -0.266 OA
HETATM   24  N   UNL     1      20.871  48.236  47.397  1.00  0.00    -0.321 N 
HETATM   25  C   UNL     1      21.965  48.962  47.849  1.00  0.00     0.048 A 
HETATM   26  H   UNL     1      20.087  48.599  46.875  1.00  0.00     0.169 HD
HETATM   27  C   UNL     1      22.174  50.317  47.679  1.00  0.00     0.030 A 
HETATM   28  C   UNL     1      23.374  50.851  48.155  1.00  0.00     0.002 A 
HETATM   29  C   UNL     1      24.339  50.027  48.761  1.00  0.00     0.001 A 
HETATM   30  C   UNL     1      24.111  48.655  48.922  1.00  0.00     0.016 A 
ENDBRANCH   2  19
TORSDOF 4
ENDMDL
MODEL 5
REMARK VINA RESULT:      -8.9      4.401      7.876
REMARK  4 active torsions:
REMARK  status: ('A' for Active; 'I' for Inactive)
REMARK    1  A    between atoms: O_2  and  C_3 
REMARK    2  A    between atoms: C_6  and  C_7 
REMARK    3  A    between atoms: C_11  and  C_12 
REMARK       I    between atoms: C_12  and  N_13 
REMARK    4  A    between atoms: N_13  and  N_14 
ROOT
HETATM    1  C   UNL     1      25.662  44.088  52.790  1.00  0.00     0.289 C 
HETATM    2  N   UNL     1      26.758  44.936  52.765  1.00  0.00    -0.241 N 
HETATM    3  O   UNL     1      24.688  44.215  53.524  1.00  0.00    -0.264 OA
HETATM    4  H   UNL     1      27.588  44.634  52.278  1.00  0.00     0.192 HD
ENDROOT
BRANCH   1   5
HETATM    5  C   UNL     1      25.748  43.014  51.828  1.00  0.00     0.121 A 
HETATM    6  N   UNL     1      24.669  42.608  51.094  1.00  0.00    -0.272 N 
HETATM    7  N   UNL     1      24.935  41.610  50.233  1.00  0.00    -0.174 NA
HETATM    8  H   UNL     1      23.726  42.983  51.139  1.00  0.00     0.189 HD
HETATM    9  C   UNL     1      26.246  41.368  50.388  1.00  0.00     0.089 A 
HETATM   10  C   UNL     1      26.785  42.212  51.396  1.00  0.00     0.071 A 
BRANCH   9  11
HETATM   11  C   UNL     1      26.960  40.358  49.602  1.00  0.00    -0.005 A 
HETATM   12  C   UNL     1      28.036  40.717  48.779  1.00  0.00     0.016 A 
HETATM   13  C   UNL     1      28.733  39.747  48.053  1.00  0.00     0.037 A 
HETATM   14  C   UNL     1      28.373  38.402  48.136  1.00  0.00     0.068 A 
HETATM   15  C   UNL     1      27.290  38.035  48.935  1.00  0.00     0.037 A 
HETATM   16  C   UNL     1      26.588  39.008  49.660  1.00  0.00     0.016 A 
BRANCH  14  17
HETATM   17  O   UNL     1      29.147  37.560  47.389  1.00  0.00    -0.356 OA
HETATM   18  C   UNL     1      28.484  36.812  46.378  1.00  0.00     0.210 C 
ENDBRANCH  14  17
ENDBRANCH   9  11
ENDBRANCH   1   5
BRANCH   2  19
HETATM   19  N   UNL     1      26.887  45.966  53.644  1.00  0.00    -0.165 NA
HETATM   20  C   UNL     1      27.791  45.869  54.570  1.00  0.00     0.157 A 
HETATM   21  C   UNL     1      27.862  46.877  55.737  1.00  0.00     0.277 A 
HETATM   22  C   UNL     1      28.872  44.902  54.818  1.00  0.00     0.027 A 
HETATM   23  O   UNL     1      27.180  47.865  55.885  1.00  0.00    -0.266 OA
HETATM   24  N   UNL     1      28.843  46.394  56.575  1.00  0.00    -0.321 N 
HETATM   25  C   UNL     1      29.437  45.256  56.046  1.00  0.00     0.048 A 
HETATM   26  H   UNL     1      29.104  46.862  57.430  1.00  0.00     0.169 HD
HETATM   27  C   UNL     1      30.485  44.547  56.600  1.00  0.00     0.030 A 
HETATM   28  C   UNL     1      30.985  43.461  55.878  1.00  0.00     0.002 A 
HETATM   29  C   UNL     1      30.450  43.124  54.622  1.00  0.00     0.001 A 
HETATM   30  C   UNL     1      29.390  43.856  54.074  1.00  0.00     0.016 A 
ENDBRANCH   2  19
TORSDOF 4
ENDMDL
MODEL 6
REMARK VINA RESULT:      -8.8      5.276      8.617
REMARK  4 active torsions:
REMARK  status: ('A' for Active; 'I' for Inactive)
REMARK    1  A    between atoms: O_2  and  C_3 
REMARK    2  A    between atoms: C_6  and  C_7 
REMARK    3  A    between atoms: C_11  and  C_12 
REMARK       I    between atoms: C_12  and  N_13 
REMARK    4  A    between atoms: N_13  and  N_14 
ROOT
HETATM    1  C   UNL     1      27.433  43.226  53.560  1.00  0.00     0.289 C 
HETATM    2  N   UNL     1      28.178  44.389  53.440  1.00  0.00    -0.241 N 
HETATM    3  O   UNL     1      26.461  43.083  54.293  1.00  0.00    -0.264 OA
HETATM    4  H   UNL     1      29.070  44.342  52.970  1.00  0.00     0.192 HD
ENDROOT
BRANCH   1   5
HETATM    5  C   UNL     1      27.893  42.161  52.700  1.00  0.00     0.121 A 
HETATM    6  N   UNL     1      28.695  41.153  53.156  1.00  0.00    -0.272 N 
HETATM    7  N   UNL     1      29.009  40.237  52.223  1.00  0.00    -0.174 NA
HETATM    8  H   UNL     1      29.055  41.041  54.099  1.00  0.00     0.189 HD
HETATM    9  C   UNL     1      28.366  40.642  51.118  1.00  0.00     0.089 A 
HETATM   10  C   UNL     1      27.675  41.859  51.371  1.00  0.00     0.071 A 
BRANCH   9  11
HETATM   11  C   UNL     1      28.416  39.897  49.857  1.00  0.00    -0.005 A 
HETATM   12  C   UNL     1      28.804  38.550  49.836  1.00  0.00     0.016 A 
HETATM   13  C   UNL     1      28.824  37.833  48.635  1.00  0.00     0.037 A 
HETATM   14  C   UNL     1      28.454  38.444  47.437  1.00  0.00     0.068 A 
HETATM   15  C   UNL     1      28.087  39.789  47.443  1.00  0.00     0.037 A 
HETATM   16  C   UNL     1      28.071  40.509  48.646  1.00  0.00     0.016 A 
BRANCH  14  17
HETATM   17  O   UNL     1      28.503  37.625  46.344  1.00  0.00    -0.356 OA
HETATM   18  C   UNL     1      27.287  36.991  45.967  1.00  0.00     0.210 C 
ENDBRANCH  14  17
ENDBRANCH   9  11
ENDBRANCH   1   5
BRANCH   2  19
HETATM   19  N   UNL     1      27.936  45.478  54.218  1.00  0.00    -0.165 NA
HETATM   20  C   UNL     1      28.591  45.589  55.333  1.00  0.00     0.157 A 
HETATM   21  C   UNL     1      28.227  46.664  56.380  1.00  0.00     0.277 A 
HETATM   22  C   UNL     1      29.710  44.831  55.918  1.00  0.00     0.027 A 
HETATM   23  O   UNL     1      27.392  47.533  56.267  1.00  0.00    -0.266 OA
HETATM   24  N   UNL     1      29.034  46.403  57.465  1.00  0.00    -0.321 N 
HETATM   25  C   UNL     1      29.900  45.349  57.202  1.00  0.00     0.048 A 
HETATM   26  H   UNL     1      29.007  46.959  58.307  1.00  0.00     0.169 HD
HETATM   27  C   UNL     1      30.873  44.859  58.051  1.00  0.00     0.030 A 
HETATM   28  C   UNL     1      31.688  43.829  57.575  1.00  0.00     0.002 A 
HETATM   29  C   UNL     1      31.531  43.332  56.269  1.00  0.00     0.001 A 
HETATM   30  C   UNL     1      30.541  43.843  55.421  1.00  0.00     0.016 A 
ENDBRANCH   2  19
TORSDOF 4
ENDMDL
MODEL 7
REMARK VINA RESULT:      -8.5      3.532      5.570
REMARK  4 active torsions:
REMARK  status: ('A' for Active; 'I' for Inactive)
REMARK    1  A    between atoms: O_2  and  C_3 
REMARK    2  A    between atoms: C_6  and  C_7 
REMARK    3  A    between atoms: C_11  and  C_12 
REMARK       I    between atoms: C_12  and  N_13 
REMARK    4  A    between atoms: N_13  and  N_14 
ROOT
HETATM    1  C   UNL     1      22.042  46.922  48.237  1.00  0.00     0.289 C 
HETATM    2  N   UNL     1      20.794  47.098  48.816  1.00  0.00    -0.241 N 
HETATM    3  O   UNL     1      22.253  46.811  47.035  1.00  0.00    -0.264 OA
HETATM    4  H   UNL     1      20.705  46.975  49.813  1.00  0.00     0.192 HD
ENDROOT
BRANCH   1   5
HETATM    5  C   UNL     1      23.120  46.906  49.198  1.00  0.00     0.121 A 
HETATM    6  N   UNL     1      23.506  48.028  49.877  1.00  0.00    -0.272 N 
HETATM    7  N   UNL     1      24.512  47.824  50.745  1.00  0.00    -0.174 NA
HETATM    8  H   UNL     1      23.111  48.959  49.788  1.00  0.00     0.189 HD
HETATM    9  C   UNL     1      24.780  46.513  50.654  1.00  0.00     0.089 A 
HETATM   10  C   UNL     1      23.944  45.908  49.676  1.00  0.00     0.071 A 
BRANCH   9  11
HETATM   11  C   UNL     1      25.808  45.859  51.469  1.00  0.00    -0.005 A 
HETATM   12  C   UNL     1      26.086  46.307  52.767  1.00  0.00     0.016 A 
HETATM   13  C   UNL     1      27.047  45.664  53.553  1.00  0.00     0.037 A 
HETATM   14  C   UNL     1      27.745  44.561  53.061  1.00  0.00     0.068 A 
HETATM   15  C   UNL     1      27.492  44.120  51.762  1.00  0.00     0.037 A 
HETATM   16  C   UNL     1      26.531  44.767  50.973  1.00  0.00     0.016 A 
BRANCH  14  17
HETATM   17  O   UNL     1      28.642  44.019  53.938  1.00  0.00    -0.356 OA
HETATM   18  C   UNL     1      28.971  44.801  55.079  1.00  0.00     0.210 C 
ENDBRANCH  14  17
ENDBRANCH   9  11
ENDBRANCH   1   5
BRANCH   2  19
HETATM   19  N   UNL     1      19.652  47.074  48.077  1.00  0.00    -0.165 NA
HETATM   20  C   UNL     1      19.040  48.198  47.863  1.00  0.00     0.157 A 
HETATM   21  C   UNL     1      17.633  48.243  47.231  1.00  0.00     0.277 A 
HETATM   22  C   UNL     1      19.395  49.601  48.135  1.00  0.00     0.027 A 
HETATM   23  O   UNL     1      16.996  47.304  46.809  1.00  0.00    -0.266 OA
HETATM   24  N   UNL     1      17.256  49.568  47.275  1.00  0.00    -0.321 N 
HETATM   25  C   UNL     1      18.274  50.360  47.791  1.00  0.00     0.048 A 
HETATM   26  H   UNL     1      16.367  49.890  46.924  1.00  0.00     0.169 HD
HETATM   27  C   UNL     1      18.251  51.734  47.929  1.00  0.00     0.030 A 
HETATM   28  C   UNL     1      19.404  52.355  48.412  1.00  0.00     0.002 A 
HETATM   29  C   UNL     1      20.552  51.603  48.721  1.00  0.00     0.001 A 
HETATM   30  C   UNL     1      20.559  50.211  48.571  1.00  0.00     0.016 A 
ENDBRANCH   2  19
TORSDOF 4
ENDMDL
MODEL 8
REMARK VINA RESULT:      -8.4      3.890     10.461
REMARK  4 active torsions:
REMARK  status: ('A' for Active; 'I' for Inactive)
REMARK    1  A    between atoms: O_2  and  C_3 
REMARK    2  A    between atoms: C_6  and  C_7 
REMARK    3  A    between atoms: C_11  and  C_12 
REMARK       I    between atoms: C_12  and  N_13 
REMARK    4  A    between atoms: N_13  and  N_14 
ROOT
HETATM    1  C   UNL     1      24.674  48.042  49.585  1.00  0.00     0.289 C 
HETATM    2  N   UNL     1      24.069  47.220  50.522  1.00  0.00    -0.241 N 
HETATM    3  O   UNL     1      25.864  48.019  49.288  1.00  0.00    -0.264 OA
HETATM    4  H   UNL     1      23.140  47.453  50.838  1.00  0.00     0.192 HD
ENDROOT
BRANCH   1   5
HETATM    5  C   UNL     1      23.753  48.948  48.939  1.00  0.00     0.121 A 
HETATM    6  N   UNL     1      24.146  49.801  47.947  1.00  0.00    -0.272 N 
HETATM    7  N   UNL     1      23.153  50.556  47.446  1.00  0.00    -0.174 NA
HETATM    8  H   UNL     1      25.084  49.904  47.569  1.00  0.00     0.189 HD
HETATM    9  C   UNL     1      22.059  50.166  48.117  1.00  0.00     0.089 A 
HETATM   10  C   UNL     1      22.399  49.176  49.078  1.00  0.00     0.071 A 
BRANCH   9  11
HETATM   11  C   UNL     1      20.730  50.727  47.853  1.00  0.00    -0.005 A 
HETATM   12  C   UNL     1      19.919  50.201  46.838  1.00  0.00     0.016 A 
HETATM   13  C   UNL     1      18.641  50.720  46.607  1.00  0.00     0.037 A 
HETATM   14  C   UNL     1      18.148  51.767  47.385  1.00  0.00     0.068 A 
HETATM   15  C   UNL     1      18.955  52.312  48.383  1.00  0.00     0.037 A 
HETATM   16  C   UNL     1      20.238  51.796  48.612  1.00  0.00     0.016 A 
BRANCH  14  17
HETATM   17  O   UNL     1      16.881  52.165  47.064  1.00  0.00    -0.356 OA
HETATM   18  C   UNL     1      15.953  52.267  48.136  1.00  0.00     0.210 C 
ENDBRANCH  14  17
ENDBRANCH   9  11
ENDBRANCH   1   5
BRANCH   2  19
HETATM   19  N   UNL     1      24.789  46.347  51.279  1.00  0.00    -0.165 NA
HETATM   20  C   UNL     1      24.677  45.080  51.021  1.00  0.00     0.157 A 
HETATM   21  C   UNL     1      25.274  44.009  51.958  1.00  0.00     0.277 A 
HETATM   22  C   UNL     1      24.018  44.332  49.937  1.00  0.00     0.027 A 
HETATM   23  O   UNL     1      25.947  44.203  52.945  1.00  0.00    -0.266 OA
HETATM   24  N   UNL     1      24.857  42.801  51.444  1.00  0.00    -0.321 N 
HETATM   25  C   UNL     1      24.136  42.980  50.270  1.00  0.00     0.048 A 
HETATM   26  H   UNL     1      25.105  41.918  51.864  1.00  0.00     0.169 HD
HETATM   27  C   UNL     1      23.614  41.982  49.471  1.00  0.00     0.030 A 
HETATM   28  C   UNL     1      22.971  42.367  48.292  1.00  0.00     0.002 A 
HETATM   29  C   UNL     1      22.885  43.723  47.929  1.00  0.00     0.001 A 
HETATM   30  C   UNL     1      23.423  44.721  48.749  1.00  0.00     0.016 A 
ENDBRANCH   2  19
TORSDOF 4
ENDMDL
MODEL 9
REMARK VINA RESULT:      -8.3      4.990     11.256
REMARK  4 active torsions:
REMARK  status: ('A' for Active; 'I' for Inactive)
REMARK    1  A    between atoms: O_2  and  C_3 
REMARK    2  A    between atoms: C_6  and  C_7 
REMARK    3  A    between atoms: C_11  and  C_12 
REMARK       I    between atoms: C_12  and  N_13 
REMARK    4  A    between atoms: N_13  and  N_14 
ROOT
HETATM    1  C   UNL     1      23.024  50.277  48.186  1.00  0.00     0.289 C 
HETATM    2  N   UNL     1      23.894  49.939  49.210  1.00  0.00    -0.241 N 
HETATM    3  O   UNL     1      23.338  50.415  47.009  1.00  0.00    -0.264 OA
HETATM    4  H   UNL     1      23.582  50.049  50.163  1.00  0.00     0.192 HD
ENDROOT
BRANCH   1   5
HETATM    5  C   UNL     1      21.657  50.436  48.626  1.00  0.00     0.121 A 
HETATM    6  N   UNL     1      21.166  49.785  49.723  1.00  0.00    -0.272 N 
HETATM    7  N   UNL     1      19.881  50.066  49.999  1.00  0.00    -0.174 NA
HETATM    8  H   UNL     1      21.670  49.138  50.323  1.00  0.00     0.189 HD
HETATM    9  C   UNL     1      19.520  50.958  49.063  1.00  0.00     0.089 A 
HETATM   10  C   UNL     1      20.600  51.196  48.170  1.00  0.00     0.071 A 
BRANCH   9  11
HETATM   11  C   UNL     1      18.183  51.557  49.019  1.00  0.00    -0.005 A 
HETATM   12  C   UNL     1      17.765  52.452  50.013  1.00  0.00     0.016 A 
HETATM   13  C   UNL     1      16.500  53.044  49.953  1.00  0.00     0.037 A 
HETATM   14  C   UNL     1      15.631  52.758  48.900  1.00  0.00     0.068 A 
HETATM   15  C   UNL     1      16.028  51.852  47.917  1.00  0.00     0.037 A 
HETATM   16  C   UNL     1      17.295  51.256  47.979  1.00  0.00     0.016 A 
BRANCH  14  17
HETATM   17  O   UNL     1      14.436  53.418  48.956  1.00  0.00    -0.356 OA
HETATM   18  C   UNL     1      14.069  54.172  47.808  1.00  0.00     0.210 C 
ENDBRANCH  14  17
ENDBRANCH   9  11
ENDBRANCH   1   5
BRANCH   2  19
HETATM   19  N   UNL     1      25.233  49.812  48.999  1.00  0.00    -0.165 NA
HETATM   20  C   UNL     1      25.774  48.649  49.195  1.00  0.00     0.157 A 
HETATM   21  C   UNL     1      27.306  48.461  49.197  1.00  0.00     0.277 A 
HETATM   22  C   UNL     1      25.212  47.316  49.473  1.00  0.00     0.027 A 
HETATM   23  O   UNL     1      28.140  49.302  48.954  1.00  0.00    -0.266 OA
HETATM   24  N   UNL     1      27.510  47.146  49.556  1.00  0.00    -0.321 N 
HETATM   25  C   UNL     1      26.303  46.477  49.711  1.00  0.00     0.048 A 
HETATM   26  H   UNL     1      28.432  46.744  49.638  1.00  0.00     0.169 HD
HETATM   27  C   UNL     1      26.144  45.140  50.018  1.00  0.00     0.030 A 
HETATM   28  C   UNL     1      24.841  44.638  50.067  1.00  0.00     0.002 A 
HETATM   29  C   UNL     1      23.740  45.467  49.788  1.00  0.00     0.001 A 
HETATM   30  C   UNL     1      23.920  46.819  49.474  1.00  0.00     0.016 A 
ENDBRANCH   2  19
TORSDOF 4
ENDMDL
MODEL 10
REMARK VINA RESULT:      -8.3     11.833     14.213
REMARK  4 active torsions:
REMARK  status: ('A' for Active; 'I' for Inactive)
REMARK    1  A    between atoms: O_2  and  C_3 
REMARK    2  A    between atoms: C_6  and  C_7 
REMARK    3  A    between atoms: C_11  and  C_12 
REMARK       I    between atoms: C_12  and  N_13 
REMARK    4  A    between atoms: N_13  and  N_14 
ROOT
HETATM    1  C   UNL     1      34.002  50.069  42.055  1.00  0.00     0.289 C 
HETATM    2  N   UNL     1      32.861  50.245  42.822  1.00  0.00    -0.241 N 
HETATM    3  O   UNL     1      34.091  49.326  41.083  1.00  0.00    -0.264 OA
HETATM    4  H   UNL     1      32.947  50.715  43.710  1.00  0.00     0.192 HD
ENDROOT
BRANCH   1   5
HETATM    5  C   UNL     1      35.115  50.879  42.490  1.00  0.00     0.121 A 
HETATM    6  N   UNL     1      36.409  50.556  42.195  1.00  0.00    -0.272 N 
HETATM    7  N   UNL     1      37.314  51.433  42.662  1.00  0.00    -0.174 NA
HETATM    8  H   UNL     1      36.730  49.747  41.671  1.00  0.00     0.189 HD
HETATM    9  C   UNL     1      36.586  52.385  43.265  1.00  0.00     0.089 A 
HETATM   10  C   UNL     1      35.204  52.060  43.199  1.00  0.00     0.071 A 
BRANCH   9  11
HETATM   11  C   UNL     1      37.191  53.564  43.891  1.00  0.00    -0.005 A 
HETATM   12  C   UNL     1      37.721  54.599  43.109  1.00  0.00     0.016 A 
HETATM   13  C   UNL     1      38.272  55.735  43.710  1.00  0.00     0.037 A 
HETATM   14  C   UNL     1      38.301  55.862  45.098  1.00  0.00     0.068 A 
HETATM   15  C   UNL     1      37.796  54.828  45.887  1.00  0.00     0.037 A 
HETATM   16  C   UNL     1      37.247  53.687  45.286  1.00  0.00     0.016 A 
BRANCH  14  17
HETATM   17  O   UNL     1      38.852  57.028  45.550  1.00  0.00    -0.356 OA
HETATM   18  C   UNL     1      38.552  58.204  44.810  1.00  0.00     0.210 C 
ENDBRANCH  14  17
ENDBRANCH   9  11
ENDBRANCH   1   5
BRANCH   2  19
HETATM   19  N   UNL     1      31.731  49.518  42.603  1.00  0.00    -0.165 NA
HETATM   20  C   UNL     1      30.716  50.116  42.060  1.00  0.00     0.157 A 
HETATM   21  C   UNL     1      29.331  49.440  41.978  1.00  0.00     0.277 A 
HETATM   22  C   UNL     1      30.542  51.449  41.459  1.00  0.00     0.027 A 
HETATM   23  O   UNL     1      29.053  48.312  42.314  1.00  0.00    -0.266 OA
HETATM   24  N   UNL     1      28.487  50.402  41.466  1.00  0.00    -0.321 N 
HETATM   25  C   UNL     1      29.182  51.564  41.157  1.00  0.00     0.048 A 
HETATM   26  H   UNL     1      27.506  50.231  41.304  1.00  0.00     0.169 HD
HETATM   27  C   UNL     1      28.655  52.704  40.583  1.00  0.00     0.030 A 
HETATM   28  C   UNL     1      29.536  53.748  40.291  1.00  0.00     0.002 A 
HETATM   29  C   UNL     1      30.912  53.623  40.552  1.00  0.00     0.001 A 
HETATM   30  C   UNL     1      31.430  52.459  41.131  1.00  0.00     0.016 A 
ENDBRANCH   2  19
TORSDOF 4
ENDMDL
