MODEL 1
REMARK VINA RESULT:      -8.8      0.000      0.000
REMARK  6 active torsions:
REMARK  status: ('A' for Active; 'I' for Inactive)
REMARK    1  A    between atoms: C_7  and  C_8 
REMARK    2  A    between atoms: N_9  and  N_10 
REMARK       I    between atoms: N_10  and  C_11 
REMARK    3  A    between atoms: C_11  and  C_12 
REMARK    4  A    between atoms: C_12  and  N_13 
REMARK    5  A    between atoms: N_13  and  C_14 
REMARK    6  A    between atoms: C_17  and  O_18 
ROOT
HETATM    1  N   UNL     1      25.705  44.846  50.906  1.00  0.00    -0.246 N 
HETATM    2  C   UNL     1      26.545  43.805  50.531  1.00  0.00     0.250 C 
HETATM    3  O   UNL     1      27.174  43.743  49.475  1.00  0.00    -0.270 OA
HETATM    4  H   UNL     1      25.236  44.803  51.808  1.00  0.00     0.192 HD
ENDROOT
BRANCH   1   5
HETATM    5  N   UNL     1      25.482  45.866  50.035  1.00  0.00    -0.184 NA
HETATM    6  C   UNL     1      25.715  47.066  50.455  1.00  0.00     0.153 C 
BRANCH   6   7
HETATM    7  C   UNL     1      25.480  48.192  49.565  1.00  0.00     0.018 A 
HETATM    8  C   UNL     1      26.446  49.017  48.997  1.00  0.00     0.018 A 
HETATM    9  C   UNL     1      27.930  49.013  49.111  1.00  0.00     0.069 C 
HETATM   10  N   UNL     1      25.800  49.949  48.225  1.00  0.00    -0.358 N 
HETATM   11  H   UNL     1      26.258  50.678  47.694  1.00  0.00     0.166 HD
HETATM   12  C   UNL     1      24.441  49.761  48.270  1.00  0.00     0.043 A 
HETATM   13  C   UNL     1      24.205  48.667  49.102  1.00  0.00     0.004 A 
HETATM   14  C   UNL     1      23.416  50.477  47.641  1.00  0.00     0.030 A 
HETATM   15  C   UNL     1      22.866  48.272  49.316  1.00  0.00     0.014 A 
HETATM   16  C   UNL     1      21.828  48.978  48.695  1.00  0.00     0.001 A 
HETATM   17  C   UNL     1      22.102  50.065  47.869  1.00  0.00     0.002 A 
ENDBRANCH   6   7
ENDBRANCH   1   5
BRANCH   2  18
HETATM   18  C   UNL     1      26.678  42.726  51.605  1.00  0.00     0.197 C 
BRANCH  18  19
HETATM   19  N   UNL     1      26.490  43.284  52.960  1.00  0.00    -0.284 NA
HETATM   20  H   UNL     1      25.835  42.711  53.498  1.00  0.00     0.128 HD
BRANCH  19  21
HETATM   21  C   UNL     1      27.652  43.484  53.730  1.00  0.00     0.008 A 
HETATM   22  C   UNL     1      27.798  44.701  54.410  1.00  0.00     0.026 A 
HETATM   23  C   UNL     1      28.944  44.976  55.165  1.00  0.00     0.038 A 
HETATM   24  C   UNL     1      29.983  44.051  55.242  1.00  0.00     0.068 A 
HETATM   25  C   UNL     1      29.878  42.862  54.525  1.00  0.00     0.038 A 
HETATM   26  C   UNL     1      28.731  42.594  53.762  1.00  0.00     0.026 A 
BRANCH  24  27
HETATM   27  O   UNL     1      31.038  44.430  56.025  1.00  0.00    -0.356 OA
HETATM   28  C   UNL     1      31.488  43.490  56.993  1.00  0.00     0.210 C 
ENDBRANCH  24  27
ENDBRANCH  19  21
ENDBRANCH  18  19
ENDBRANCH   2  18
TORSDOF 6
ENDMDL
MODEL 2
REMARK VINA RESULT:      -8.7      2.490      8.594
REMARK  6 active torsions:
REMARK  status: ('A' for Active; 'I' for Inactive)
REMARK    1  A    between atoms: C_7  and  C_8 
REMARK    2  A    between atoms: N_9  and  N_10 
REMARK       I    between atoms: N_10  and  C_11 
REMARK    3  A    between atoms: C_11  and  C_12 
REMARK    4  A    between atoms: C_12  and  N_13 
REMARK    5  A    between atoms: N_13  and  C_14 
REMARK    6  A    between atoms: C_17  and  O_18 
ROOT
HETATM    1  N   UNL     1      26.738  43.508  52.412  1.00  0.00    -0.246 N 
HETATM    2  C   UNL     1      25.402  43.760  52.129  1.00  0.00     0.250 C 
HETATM    3  O   UNL     1      24.615  44.345  52.872  1.00  0.00    -0.270 OA
HETATM    4  H   UNL     1      27.307  43.022  51.722  1.00  0.00     0.192 HD
ENDROOT
BRANCH   1   5
HETATM    5  N   UNL     1      27.238  43.864  53.626  1.00  0.00    -0.184 NA
HETATM    6  C   UNL     1      27.954  44.939  53.681  1.00  0.00     0.153 C 
BRANCH   6   7
HETATM    7  C   UNL     1      28.521  45.353  54.954  1.00  0.00     0.018 A 
HETATM    8  C   UNL     1      28.146  46.460  55.709  1.00  0.00     0.018 A 
HETATM    9  C   UNL     1      27.114  47.506  55.471  1.00  0.00     0.069 C 
HETATM   10  N   UNL     1      28.929  46.486  56.835  1.00  0.00    -0.358 N 
HETATM   11  H   UNL     1      28.874  47.185  57.563  1.00  0.00     0.166 HD
HETATM   12  C   UNL     1      29.807  45.429  56.841  1.00  0.00     0.043 A 
HETATM   13  C   UNL     1      29.578  44.698  55.675  1.00  0.00     0.004 A 
HETATM   14  C   UNL     1      30.776  45.076  57.786  1.00  0.00     0.030 A 
HETATM   15  C   UNL     1      30.369  43.551  55.445  1.00  0.00     0.014 A 
HETATM   16  C   UNL     1      31.345  43.184  56.379  1.00  0.00     0.001 A 
HETATM   17  C   UNL     1      31.543  43.937  57.534  1.00  0.00     0.002 A 
ENDBRANCH   6   7
ENDBRANCH   1   5
BRANCH   2  18
HETATM   18  C   UNL     1      24.985  43.286  50.737  1.00  0.00     0.197 C 
BRANCH  18  19
HETATM   19  N   UNL     1      25.639  44.079  49.675  1.00  0.00    -0.284 NA
HETATM   20  H   UNL     1      25.530  43.624  48.766  1.00  0.00     0.128 HD
BRANCH  19  21
HETATM   21  C   UNL     1      25.246  45.426  49.557  1.00  0.00     0.008 A 
HETATM   22  C   UNL     1      26.204  46.422  49.788  1.00  0.00     0.026 A 
HETATM   23  C   UNL     1      25.870  47.779  49.719  1.00  0.00     0.038 A 
HETATM   24  C   UNL     1      24.564  48.176  49.439  1.00  0.00     0.068 A 
HETATM   25  C   UNL     1      23.589  47.199  49.264  1.00  0.00     0.038 A 
HETATM   26  C   UNL     1      23.926  45.839  49.344  1.00  0.00     0.026 A 
BRANCH  24  27
HETATM   27  O   UNL     1      24.371  49.528  49.381  1.00  0.00    -0.356 OA
HETATM   28  C   UNL     1      24.381  50.123  48.088  1.00  0.00     0.210 C 
ENDBRANCH  24  27
ENDBRANCH  19  21
ENDBRANCH  18  19
ENDBRANCH   2  18
TORSDOF 6
ENDMDL
MODEL 3
REMARK VINA RESULT:      -8.7      3.272      9.612
REMARK  6 active torsions:
REMARK  status: ('A' for Active; 'I' for Inactive)
REMARK    1  A    between atoms: C_7  and  C_8 
REMARK    2  A    between atoms: N_9  and  N_10 
REMARK       I    between atoms: N_10  and  C_11 
REMARK    3  A    between atoms: C_11  and  C_12 
REMARK    4  A    between atoms: C_12  and  N_13 
REMARK    5  A    between atoms: N_13  and  C_14 
REMARK    6  A    between atoms: C_17  and  O_18 
ROOT
HETATM    1  N   UNL     1      25.019  46.628  51.516  1.00  0.00    -0.246 N 
HETATM    2  C   UNL     1      25.002  47.457  50.402  1.00  0.00     0.250 C 
HETATM    3  O   UNL     1      25.878  48.267  50.103  1.00  0.00    -0.270 OA
HETATM    4  H   UNL     1      24.244  45.986  51.668  1.00  0.00     0.192 HD
ENDROOT
BRANCH   1   5
HETATM    5  N   UNL     1      26.040  46.738  52.409  1.00  0.00    -0.184 NA
HETATM    6  C   UNL     1      26.209  45.763  53.240  1.00  0.00     0.153 C 
BRANCH   6   7
HETATM    7  C   UNL     1      27.278  45.840  54.222  1.00  0.00     0.018 A 
HETATM    8  C   UNL     1      27.478  46.852  55.155  1.00  0.00     0.018 A 
HETATM    9  C   UNL     1      26.711  48.098  55.430  1.00  0.00     0.069 C 
HETATM   10  N   UNL     1      28.596  46.537  55.884  1.00  0.00    -0.358 N 
HETATM   11  H   UNL     1      28.976  47.099  56.634  1.00  0.00     0.166 HD
HETATM   12  C   UNL     1      29.136  45.349  55.457  1.00  0.00     0.043 A 
HETATM   13  C   UNL     1      28.335  44.884  54.415  1.00  0.00     0.004 A 
HETATM   14  C   UNL     1      30.267  44.663  55.915  1.00  0.00     0.030 A 
HETATM   15  C   UNL     1      28.690  43.665  53.796  1.00  0.00     0.014 A 
HETATM   16  C   UNL     1      29.820  42.967  54.241  1.00  0.00     0.001 A 
HETATM   17  C   UNL     1      30.595  43.461  55.287  1.00  0.00     0.002 A 
ENDBRANCH   6   7
ENDBRANCH   1   5
BRANCH   2  18
HETATM   18  C   UNL     1      23.785  47.230  49.506  1.00  0.00     0.197 C 
BRANCH  18  19
HETATM   19  N   UNL     1      23.388  48.469  48.805  1.00  0.00    -0.284 NA
HETATM   20  H   UNL     1      23.324  48.309  47.797  1.00  0.00     0.128 HD
BRANCH  19  21
HETATM   21  C   UNL     1      22.201  49.090  49.240  1.00  0.00     0.008 A 
HETATM   22  C   UNL     1      20.998  48.380  49.128  1.00  0.00     0.026 A 
HETATM   23  C   UNL     1      19.780  48.953  49.512  1.00  0.00     0.038 A 
HETATM   24  C   UNL     1      19.730  50.258  49.995  1.00  0.00     0.068 A 
HETATM   25  C   UNL     1      20.907  50.997  50.056  1.00  0.00     0.038 A 
HETATM   26  C   UNL     1      22.126  50.422  49.662  1.00  0.00     0.026 A 
BRANCH  24  27
HETATM   27  O   UNL     1      18.484  50.695  50.351  1.00  0.00    -0.356 OA
HETATM   28  C   UNL     1      18.110  51.995  49.911  1.00  0.00     0.210 C 
ENDBRANCH  24  27
ENDBRANCH  19  21
ENDBRANCH  18  19
ENDBRANCH   2  18
TORSDOF 6
ENDMDL
MODEL 4
REMARK VINA RESULT:      -8.5      4.479      7.845
REMARK  6 active torsions:
REMARK  status: ('A' for Active; 'I' for Inactive)
REMARK    1  A    between atoms: C_7  and  C_8 
REMARK    2  A    between atoms: N_9  and  N_10 
REMARK       I    between atoms: N_10  and  C_11 
REMARK    3  A    between atoms: C_11  and  C_12 
REMARK    4  A    between atoms: C_12  and  N_13 
REMARK    5  A    between atoms: N_13  and  C_14 
REMARK    6  A    between atoms: C_17  and  O_18 
ROOT
HETATM    1  N   UNL     1      26.899  43.463  51.201  1.00  0.00    -0.246 N 
HETATM    2  C   UNL     1      26.791  43.955  49.907  1.00  0.00     0.250 C 
HETATM    3  O   UNL     1      27.332  44.976  49.485  1.00  0.00    -0.270 OA
HETATM    4  H   UNL     1      26.415  42.602  51.446  1.00  0.00     0.192 HD
ENDROOT
BRANCH   1   5
HETATM    5  N   UNL     1      27.598  44.176  52.126  1.00  0.00    -0.184 NA
HETATM    6  C   UNL     1      27.145  44.183  53.336  1.00  0.00     0.153 C 
BRANCH   6   7
HETATM    7  C   UNL     1      27.850  44.941  54.357  1.00  0.00     0.018 A 
HETATM    8  C   UNL     1      27.515  46.205  54.832  1.00  0.00     0.018 A 
HETATM    9  C   UNL     1      26.403  47.126  54.472  1.00  0.00     0.069 C 
HETATM   10  N   UNL     1      28.437  46.552  55.786  1.00  0.00    -0.358 N 
HETATM   11  H   UNL     1      28.438  47.423  56.301  1.00  0.00     0.166 HD
HETATM   12  C   UNL     1      29.366  45.555  55.952  1.00  0.00     0.043 A 
HETATM   13  C   UNL     1      29.027  44.529  55.070  1.00  0.00     0.004 A 
HETATM   14  C   UNL     1      30.470  45.492  56.810  1.00  0.00     0.030 A 
HETATM   15  C   UNL     1      29.845  43.377  55.046  1.00  0.00     0.014 A 
HETATM   16  C   UNL     1      30.955  43.298  55.896  1.00  0.00     0.001 A 
HETATM   17  C   UNL     1      31.260  44.342  56.766  1.00  0.00     0.002 A 
ENDBRANCH   6   7
ENDBRANCH   1   5
BRANCH   2  18
HETATM   18  C   UNL     1      25.960  43.055  48.992  1.00  0.00     0.197 C 
BRANCH  18  19
HETATM   19  N   UNL     1      26.819  42.233  48.114  1.00  0.00    -0.284 NA
HETATM   20  H   UNL     1      27.634  42.767  47.804  1.00  0.00     0.128 HD
BRANCH  19  21
HETATM   21  C   UNL     1      27.256  40.998  48.631  1.00  0.00     0.008 A 
HETATM   22  C   UNL     1      28.532  40.541  48.273  1.00  0.00     0.026 A 
HETATM   23  C   UNL     1      29.013  39.307  48.726  1.00  0.00     0.038 A 
HETATM   24  C   UNL     1      28.223  38.489  49.531  1.00  0.00     0.068 A 
HETATM   25  C   UNL     1      26.932  38.903  49.847  1.00  0.00     0.038 A 
HETATM   26  C   UNL     1      26.450  40.136  49.383  1.00  0.00     0.026 A 
BRANCH  24  27
HETATM   27  O   UNL     1      28.814  37.320  49.922  1.00  0.00    -0.356 OA
HETATM   28  C   UNL     1      29.799  37.410  50.944  1.00  0.00     0.210 C 
ENDBRANCH  24  27
ENDBRANCH  19  21
ENDBRANCH  18  19
ENDBRANCH   2  18
TORSDOF 6
ENDMDL
MODEL 5
REMARK VINA RESULT:      -8.4      2.824      9.714
REMARK  6 active torsions:
REMARK  status: ('A' for Active; 'I' for Inactive)
REMARK    1  A    between atoms: C_7  and  C_8 
REMARK    2  A    between atoms: N_9  and  N_10 
REMARK       I    between atoms: N_10  and  C_11 
REMARK    3  A    between atoms: C_11  and  C_12 
REMARK    4  A    between atoms: C_12  and  N_13 
REMARK    5  A    between atoms: N_13  and  C_14 
REMARK    6  A    between atoms: C_17  and  O_18 
ROOT
HETATM    1  N   UNL     1      25.682  45.548  50.651  1.00  0.00    -0.246 N 
HETATM    2  C   UNL     1      25.473  46.921  50.644  1.00  0.00     0.250 C 
HETATM    3  O   UNL     1      26.266  47.764  51.062  1.00  0.00    -0.270 OA
HETATM    4  H   UNL     1      24.962  44.936  50.272  1.00  0.00     0.192 HD
ENDROOT
BRANCH   1   5
HETATM    5  N   UNL     1      26.814  45.052  51.219  1.00  0.00    -0.184 NA
HETATM    6  C   UNL     1      26.686  44.033  52.004  1.00  0.00     0.153 C 
BRANCH   6   7
HETATM    7  C   UNL     1      27.865  43.474  52.645  1.00  0.00     0.018 A 
HETATM    8  C   UNL     1      28.526  42.302  52.290  1.00  0.00     0.018 A 
HETATM    9  C   UNL     1      28.256  41.310  51.214  1.00  0.00     0.069 C 
HETATM   10  N   UNL     1      29.584  42.141  53.148  1.00  0.00    -0.358 N 
HETATM   11  H   UNL     1      30.238  41.370  53.122  1.00  0.00     0.166 HD
HETATM   12  C   UNL     1      29.636  43.171  54.055  1.00  0.00     0.043 A 
HETATM   13  C   UNL     1      28.572  44.025  53.767  1.00  0.00     0.004 A 
HETATM   14  C   UNL     1      30.542  43.401  55.097  1.00  0.00     0.030 A 
HETATM   15  C   UNL     1      28.406  45.173  54.574  1.00  0.00     0.014 A 
HETATM   16  C   UNL     1      29.301  45.418  55.623  1.00  0.00     0.001 A 
HETATM   17  C   UNL     1      30.354  44.543  55.878  1.00  0.00     0.002 A 
ENDBRANCH   6   7
ENDBRANCH   1   5
BRANCH   2  18
HETATM   18  C   UNL     1      24.151  47.323  49.991  1.00  0.00     0.197 C 
BRANCH  18  19
HETATM   19  N   UNL     1      24.080  48.782  49.763  1.00  0.00    -0.284 NA
HETATM   20  H   UNL     1      24.845  49.090  49.159  1.00  0.00     0.128 HD
BRANCH  19  21
HETATM   21  C   UNL     1      22.868  49.284  49.248  1.00  0.00     0.008 A 
HETATM   22  C   UNL     1      22.712  50.673  49.149  1.00  0.00     0.026 A 
HETATM   23  C   UNL     1      21.521  51.236  48.677  1.00  0.00     0.038 A 
HETATM   24  C   UNL     1      20.447  50.426  48.314  1.00  0.00     0.068 A 
HETATM   25  C   UNL     1      20.566  49.048  48.462  1.00  0.00     0.038 A 
HETATM   26  C   UNL     1      21.759  48.487  48.944  1.00  0.00     0.026 A 
BRANCH  24  27
HETATM   27  O   UNL     1      19.349  51.097  47.852  1.00  0.00    -0.356 OA
HETATM   28  C   UNL     1      19.115  52.392  48.392  1.00  0.00     0.210 C 
ENDBRANCH  24  27
ENDBRANCH  19  21
ENDBRANCH  18  19
ENDBRANCH   2  18
TORSDOF 6
ENDMDL
MODEL 6
REMARK VINA RESULT:      -8.2      2.493      9.768
REMARK  6 active torsions:
REMARK  status: ('A' for Active; 'I' for Inactive)
REMARK    1  A    between atoms: C_7  and  C_8 
REMARK    2  A    between atoms: N_9  and  N_10 
REMARK       I    between atoms: N_10  and  C_11 
REMARK    3  A    between atoms: C_11  and  C_12 
REMARK    4  A    between atoms: C_12  and  N_13 
REMARK    5  A    between atoms: N_13  and  C_14 
REMARK    6  A    between atoms: C_17  and  O_18 
ROOT
HETATM    1  N   UNL     1      26.110  45.919  53.108  1.00  0.00    -0.246 N 
HETATM    2  C   UNL     1      26.028  46.006  51.724  1.00  0.00     0.250 C 
HETATM    3  O   UNL     1      26.685  45.337  50.927  1.00  0.00    -0.270 OA
HETATM    4  H   UNL     1      25.514  46.515  53.678  1.00  0.00     0.192 HD
ENDROOT
BRANCH   1   5
HETATM    5  N   UNL     1      27.028  45.084  53.666  1.00  0.00    -0.184 NA
HETATM    6  C   UNL     1      28.115  45.617  54.120  1.00  0.00     0.153 C 
BRANCH   6   7
HETATM    7  C   UNL     1      29.132  44.765  54.715  1.00  0.00     0.018 A 
HETATM    8  C   UNL     1      29.690  43.621  54.153  1.00  0.00     0.018 A 
HETATM    9  C   UNL     1      29.441  42.948  52.849  1.00  0.00     0.069 C 
HETATM   10  N   UNL     1      30.606  43.121  55.042  1.00  0.00    -0.358 N 
HETATM   11  H   UNL     1      31.164  42.290  54.893  1.00  0.00     0.166 HD
HETATM   12  C   UNL     1      30.666  43.901  56.170  1.00  0.00     0.043 A 
HETATM   13  C   UNL     1      29.754  44.941  55.999  1.00  0.00     0.004 A 
HETATM   14  C   UNL     1      31.455  43.757  57.317  1.00  0.00     0.030 A 
HETATM   15  C   UNL     1      29.623  45.888  57.039  1.00  0.00     0.014 A 
HETATM   16  C   UNL     1      30.404  45.759  58.195  1.00  0.00     0.001 A 
HETATM   17  C   UNL     1      31.307  44.708  58.329  1.00  0.00     0.002 A 
ENDBRANCH   6   7
ENDBRANCH   1   5
BRANCH   2  18
HETATM   18  C   UNL     1      24.967  46.998  51.249  1.00  0.00     0.197 C 
BRANCH  18  19
HETATM   19  N   UNL     1      25.427  47.762  50.070  1.00  0.00    -0.284 NA
HETATM   20  H   UNL     1      25.893  47.146  49.400  1.00  0.00     0.128 HD
BRANCH  19  21
HETATM   21  C   UNL     1      24.456  48.520  49.387  1.00  0.00     0.008 A 
HETATM   22  C   UNL     1      23.145  48.028  49.334  1.00  0.00     0.026 A 
HETATM   23  C   UNL     1      22.141  48.717  48.643  1.00  0.00     0.038 A 
HETATM   24  C   UNL     1      22.427  49.902  47.969  1.00  0.00     0.068 A 
HETATM   25  C   UNL     1      23.736  50.372  47.963  1.00  0.00     0.038 A 
HETATM   26  C   UNL     1      24.742  49.674  48.649  1.00  0.00     0.026 A 
BRANCH  24  27
HETATM   27  O   UNL     1      21.357  50.486  47.349  1.00  0.00    -0.356 OA
HETATM   28  C   UNL     1      20.084  50.302  47.959  1.00  0.00     0.210 C 
ENDBRANCH  24  27
ENDBRANCH  19  21
ENDBRANCH  18  19
ENDBRANCH   2  18
TORSDOF 6
ENDMDL
MODEL 7
REMARK VINA RESULT:      -8.2      3.701      9.952
REMARK  6 active torsions:
REMARK  status: ('A' for Active; 'I' for Inactive)
REMARK    1  A    between atoms: C_7  and  C_8 
REMARK    2  A    between atoms: N_9  and  N_10 
REMARK       I    between atoms: N_10  and  C_11 
REMARK    3  A    between atoms: C_11  and  C_12 
REMARK    4  A    between atoms: C_12  and  N_13 
REMARK    5  A    between atoms: N_13  and  C_14 
REMARK    6  A    between atoms: C_17  and  O_18 
ROOT
HETATM    1  N   UNL     1      23.852  46.659  50.081  1.00  0.00    -0.246 N 
HETATM    2  C   UNL     1      23.955  47.996  49.720  1.00  0.00     0.250 C 
HETATM    3  O   UNL     1      24.985  48.667  49.759  1.00  0.00    -0.270 OA
HETATM    4  H   UNL     1      22.951  46.192  50.003  1.00  0.00     0.192 HD
ENDROOT
BRANCH   1   5
HETATM    5  N   UNL     1      24.943  46.022  50.586  1.00  0.00    -0.184 NA
HETATM    6  C   UNL     1      24.869  45.593  51.803  1.00  0.00     0.153 C 
BRANCH   6   7
HETATM    7  C   UNL     1      26.014  44.917  52.392  1.00  0.00     0.018 A 
HETATM    8  C   UNL     1      26.474  43.641  52.083  1.00  0.00     0.018 A 
HETATM    9  C   UNL     1      25.975  42.625  51.117  1.00  0.00     0.069 C 
HETATM   10  N   UNL     1      27.572  43.391  52.865  1.00  0.00    -0.358 N 
HETATM   11  H   UNL     1      28.111  42.534  52.851  1.00  0.00     0.166 HD
HETATM   12  C   UNL     1      27.847  44.464  53.677  1.00  0.00     0.043 A 
HETATM   13  C   UNL     1      26.888  45.439  53.406  1.00  0.00     0.004 A 
HETATM   14  C   UNL     1      28.865  44.635  54.622  1.00  0.00     0.030 A 
HETATM   15  C   UNL     1      26.953  46.653  54.127  1.00  0.00     0.014 A 
HETATM   16  C   UNL     1      27.964  46.840  55.077  1.00  0.00     0.001 A 
HETATM   17  C   UNL     1      28.906  45.843  55.319  1.00  0.00     0.002 A 
ENDBRANCH   6   7
ENDBRANCH   1   5
BRANCH   2  18
HETATM   18  C   UNL     1      22.643  48.576  49.190  1.00  0.00     0.197 C 
BRANCH  18  19
HETATM   19  N   UNL     1      22.308  49.853  49.853  1.00  0.00    -0.284 NA
HETATM   20  H   UNL     1      22.985  50.578  49.604  1.00  0.00     0.128 HD
BRANCH  19  21
HETATM   21  C   UNL     1      21.010  50.357  49.639  1.00  0.00     0.008 A 
HETATM   22  C   UNL     1      20.853  51.450  48.776  1.00  0.00     0.026 A 
HETATM   23  C   UNL     1      19.595  52.017  48.547  1.00  0.00     0.038 A 
HETATM   24  C   UNL     1      18.464  51.521  49.192  1.00  0.00     0.068 A 
HETATM   25  C   UNL     1      18.611  50.474  50.096  1.00  0.00     0.038 A 
HETATM   26  C   UNL     1      19.877  49.914  50.330  1.00  0.00     0.026 A 
BRANCH  24  27
HETATM   27  O   UNL     1      17.293  52.150  48.869  1.00  0.00    -0.356 OA
HETATM   28  C   UNL     1      16.705  52.966  49.876  1.00  0.00     0.210 C 
ENDBRANCH  24  27
ENDBRANCH  19  21
ENDBRANCH  18  19
ENDBRANCH   2  18
TORSDOF 6
ENDMDL
MODEL 8
REMARK VINA RESULT:      -8.1      2.755      3.582
REMARK  6 active torsions:
REMARK  status: ('A' for Active; 'I' for Inactive)
REMARK    1  A    between atoms: C_7  and  C_8 
REMARK    2  A    between atoms: N_9  and  N_10 
REMARK       I    between atoms: N_10  and  C_11 
REMARK    3  A    between atoms: C_11  and  C_12 
REMARK    4  A    between atoms: C_12  and  N_13 
REMARK    5  A    between atoms: N_13  and  C_14 
REMARK    6  A    between atoms: C_17  and  O_18 
ROOT
HETATM    1  N   UNL     1      26.240  47.212  52.431  1.00  0.00    -0.246 N 
HETATM    2  C   UNL     1      26.244  47.656  53.747  1.00  0.00     0.250 C 
HETATM    3  O   UNL     1      25.286  48.158  54.333  1.00  0.00    -0.270 OA
HETATM    4  H   UNL     1      27.088  46.803  52.044  1.00  0.00     0.192 HD
ENDROOT
BRANCH   1   5
HETATM    5  N   UNL     1      25.123  47.390  51.674  1.00  0.00    -0.184 NA
HETATM    6  C   UNL     1      25.220  47.146  50.409  1.00  0.00     0.153 C 
BRANCH   6   7
HETATM    7  C   UNL     1      24.057  47.334  49.556  1.00  0.00     0.018 A 
HETATM    8  C   UNL     1      23.194  46.343  49.099  1.00  0.00     0.018 A 
HETATM    9  C   UNL     1      23.185  44.871  49.321  1.00  0.00     0.069 C 
HETATM   10  N   UNL     1      22.235  46.946  48.325  1.00  0.00    -0.358 N 
HETATM   11  H   UNL     1      21.477  46.463  47.862  1.00  0.00     0.166 HD
HETATM   12  C   UNL     1      22.444  48.301  48.261  1.00  0.00     0.043 A 
HETATM   13  C   UNL     1      23.579  48.579  49.021  1.00  0.00     0.004 A 
HETATM   14  C   UNL     1      21.714  49.288  47.588  1.00  0.00     0.030 A 
HETATM   15  C   UNL     1      24.008  49.922  49.108  1.00  0.00     0.014 A 
HETATM   16  C   UNL     1      23.291  50.923  48.440  1.00  0.00     0.001 A 
HETATM   17  C   UNL     1      22.160  50.607  47.691  1.00  0.00     0.002 A 
ENDBRANCH   6   7
ENDBRANCH   1   5
BRANCH   2  18
HETATM   18  C   UNL     1      27.573  47.404  54.460  1.00  0.00     0.197 C 
BRANCH  18  19
HETATM   19  N   UNL     1      27.380  46.656  55.720  1.00  0.00    -0.284 NA
HETATM   20  H   UNL     1      26.677  45.923  55.600  1.00  0.00     0.128 HD
BRANCH  19  21
HETATM   21  C   UNL     1      28.530  46.090  56.303  1.00  0.00     0.008 A 
HETATM   22  C   UNL     1      29.309  45.220  55.528  1.00  0.00     0.026 A 
HETATM   23  C   UNL     1      30.446  44.599  56.058  1.00  0.00     0.038 A 
HETATM   24  C   UNL     1      30.819  44.813  57.384  1.00  0.00     0.068 A 
HETATM   25  C   UNL     1      30.023  45.627  58.182  1.00  0.00     0.038 A 
HETATM   26  C   UNL     1      28.879  46.241  57.650  1.00  0.00     0.026 A 
BRANCH  24  27
HETATM   27  O   UNL     1      31.957  44.163  57.775  1.00  0.00    -0.356 OA
HETATM   28  C   UNL     1      32.174  42.867  57.230  1.00  0.00     0.210 C 
ENDBRANCH  24  27
ENDBRANCH  19  21
ENDBRANCH  18  19
ENDBRANCH   2  18
TORSDOF 6
ENDMDL
MODEL 9
REMARK VINA RESULT:      -8.0      2.535      3.626
REMARK  6 active torsions:
REMARK  status: ('A' for Active; 'I' for Inactive)
REMARK    1  A    between atoms: C_7  and  C_8 
REMARK    2  A    between atoms: N_9  and  N_10 
REMARK       I    between atoms: N_10  and  C_11 
REMARK    3  A    between atoms: C_11  and  C_12 
REMARK    4  A    between atoms: C_12  and  N_13 
REMARK    5  A    between atoms: N_13  and  C_14 
REMARK    6  A    between atoms: C_17  and  O_18 
ROOT
HETATM    1  N   UNL     1      26.459  47.185  52.736  1.00  0.00    -0.246 N 
HETATM    2  C   UNL     1      26.452  47.719  54.019  1.00  0.00     0.250 C 
HETATM    3  O   UNL     1      25.472  48.203  54.583  1.00  0.00    -0.270 OA
HETATM    4  H   UNL     1      27.325  46.801  52.365  1.00  0.00     0.192 HD
ENDROOT
BRANCH   1   5
HETATM    5  N   UNL     1      25.325  47.244  51.986  1.00  0.00    -0.184 NA
HETATM    6  C   UNL     1      25.457  47.145  50.704  1.00  0.00     0.153 C 
BRANCH   6   7
HETATM    7  C   UNL     1      24.276  47.215  49.859  1.00  0.00     0.018 A 
HETATM    8  C   UNL     1      23.439  46.159  49.513  1.00  0.00     0.018 A 
HETATM    9  C   UNL     1      23.481  44.715  49.873  1.00  0.00     0.069 C 
HETATM   10  N   UNL     1      22.449  46.656  48.704  1.00  0.00    -0.358 N 
HETATM   11  H   UNL     1      21.699  46.107  48.303  1.00  0.00     0.166 HD
HETATM   12  C   UNL     1      22.611  48.005  48.509  1.00  0.00     0.043 A 
HETATM   13  C   UNL     1      23.748  48.389  49.220  1.00  0.00     0.004 A 
HETATM   14  C   UNL     1      21.839  48.901  47.760  1.00  0.00     0.030 A 
HETATM   15  C   UNL     1      24.134  49.747  49.172  1.00  0.00     0.014 A 
HETATM   16  C   UNL     1      23.374  50.657  48.427  1.00  0.00     0.001 A 
HETATM   17  C   UNL     1      22.243  50.237  47.732  1.00  0.00     0.002 A 
ENDBRANCH   6   7
ENDBRANCH   1   5
BRANCH   2  18
HETATM   18  C   UNL     1      27.801  47.596  54.726  1.00  0.00     0.197 C 
BRANCH  18  19
HETATM   19  N   UNL     1      27.816  46.462  55.673  1.00  0.00    -0.284 NA
HETATM   20  H   UNL     1      26.912  46.370  56.141  1.00  0.00     0.128 HD
BRANCH  19  21
HETATM   21  C   UNL     1      28.184  45.206  55.152  1.00  0.00     0.008 A 
HETATM   22  C   UNL     1      27.170  44.344  54.714  1.00  0.00     0.026 A 
HETATM   23  C   UNL     1      27.467  43.070  54.216  1.00  0.00     0.038 A 
HETATM   24  C   UNL     1      28.783  42.616  54.165  1.00  0.00     0.068 A 
HETATM   25  C   UNL     1      29.796  43.438  54.650  1.00  0.00     0.038 A 
HETATM   26  C   UNL     1      29.493  44.711  55.157  1.00  0.00     0.026 A 
BRANCH  24  27
HETATM   27  O   UNL     1      28.942  41.363  53.642  1.00  0.00    -0.356 OA
HETATM   28  C   UNL     1      28.267  41.088  52.419  1.00  0.00     0.210 C 
ENDBRANCH  24  27
ENDBRANCH  19  21
ENDBRANCH  18  19
ENDBRANCH   2  18
TORSDOF 6
ENDMDL
MODEL 10
REMARK VINA RESULT:      -7.9      5.299      9.524
REMARK  6 active torsions:
REMARK  status: ('A' for Active; 'I' for Inactive)
REMARK    1  A    between atoms: C_7  and  C_8 
REMARK    2  A    between atoms: N_9  and  N_10 
REMARK       I    between atoms: N_10  and  C_11 
REMARK    3  A    between atoms: C_11  and  C_12 
REMARK    4  A    between atoms: C_12  and  N_13 
REMARK    5  A    between atoms: N_13  and  C_14 
REMARK    6  A    between atoms: C_17  and  O_18 
ROOT
HETATM    1  N   UNL     1      29.197  41.295  52.408  1.00  0.00    -0.246 N 
HETATM    2  C   UNL     1      28.093  41.060  51.599  1.00  0.00     0.250 C 
HETATM    3  O   UNL     1      26.983  41.570  51.743  1.00  0.00    -0.270 OA
HETATM    4  H   UNL     1      30.075  40.826  52.196  1.00  0.00     0.192 HD
ENDROOT
BRANCH   1   5
HETATM    5  N   UNL     1      29.062  42.097  53.499  1.00  0.00    -0.184 NA
HETATM    6  C   UNL     1      29.382  43.342  53.363  1.00  0.00     0.153 C 
BRANCH   6   7
HETATM    7  C   UNL     1      29.267  44.236  54.504  1.00  0.00     0.018 A 
HETATM    8  C   UNL     1      28.340  45.261  54.665  1.00  0.00     0.018 A 
HETATM    9  C   UNL     1      27.242  45.739  53.781  1.00  0.00     0.069 C 
HETATM   10  N   UNL     1      28.579  45.856  55.878  1.00  0.00    -0.358 N 
HETATM   11  H   UNL     1      28.053  46.633  56.255  1.00  0.00     0.166 HD
HETATM   12  C   UNL     1      29.634  45.253  56.516  1.00  0.00     0.043 A 
HETATM   13  C   UNL     1      30.090  44.232  55.682  1.00  0.00     0.004 A 
HETATM   14  C   UNL     1      30.210  45.538  57.760  1.00  0.00     0.030 A 
HETATM   15  C   UNL     1      31.187  43.457  56.119  1.00  0.00     0.014 A 
HETATM   16  C   UNL     1      31.777  43.730  57.360  1.00  0.00     0.001 A 
HETATM   17  C   UNL     1      31.293  44.757  58.167  1.00  0.00     0.002 A 
ENDBRANCH   6   7
ENDBRANCH   1   5
BRANCH   2  18
HETATM   18  C   UNL     1      28.396  40.126  50.429  1.00  0.00     0.197 C 
BRANCH  18  19
HETATM   19  N   UNL     1      27.404  39.034  50.334  1.00  0.00    -0.284 NA
HETATM   20  H   UNL     1      26.453  39.404  50.405  1.00  0.00     0.128 HD
BRANCH  19  21
HETATM   21  C   UNL     1      27.482  38.203  49.200  1.00  0.00     0.008 A 
HETATM   22  C   UNL     1      26.608  37.112  49.113  1.00  0.00     0.026 A 
HETATM   23  C   UNL     1      26.657  36.229  48.028  1.00  0.00     0.038 A 
HETATM   24  C   UNL     1      27.596  36.401  47.014  1.00  0.00     0.068 A 
HETATM   25  C   UNL     1      28.510  37.446  47.115  1.00  0.00     0.038 A 
HETATM   26  C   UNL     1      28.463  38.324  48.209  1.00  0.00     0.026 A 
BRANCH  24  27
HETATM   27  O   UNL     1      27.529  35.483  46.002  1.00  0.00    -0.356 OA
HETATM   28  C   UNL     1      28.614  35.463  45.082  1.00  0.00     0.210 C 
ENDBRANCH  24  27
ENDBRANCH  19  21
ENDBRANCH  18  19
ENDBRANCH   2  18
TORSDOF 6
ENDMDL
