MODEL 1
REMARK VINA RESULT:      -9.7      0.000      0.000
REMARK  3 active torsions:
REMARK  status: ('A' for Active; 'I' for Inactive)
REMARK    1  A    between atoms: O_2  and  C_3 
REMARK    2  A    between atoms: C_4  and  N_5 
REMARK       I    between atoms: N_5  and  C_6 
REMARK       I    between atoms: C_6  and  N_7 
REMARK    3  A    between atoms: C_10  and  C_11 
ROOT
HETATM    1  N   UNL     1      24.356  46.217  50.591  1.00  0.00    -0.306 N 
HETATM    2  C   UNL     1      25.483  45.436  50.665  1.00  0.00     0.323 C 
HETATM    3  N   UNL     1      26.205  45.542  51.859  1.00  0.00    -0.330 N 
HETATM    4  C   UNL     1      27.138  44.444  52.098  1.00  0.00     0.155 C 
HETATM    5  C   UNL     1      27.881  44.538  53.392  1.00  0.00     0.001 C 
HETATM    6  C   UNL     1      27.860  45.591  54.226  1.00  0.00    -0.046 C 
HETATM    7  C   UNL     1      27.029  46.789  53.868  1.00  0.00     0.059 C 
HETATM    8  C   UNL     1      25.839  46.398  52.991  1.00  0.00     0.132 C 
HETATM    9  O   UNL     1      25.844  44.664  49.779  1.00  0.00    -0.247 OA
HETATM   10  H   UNL     1      24.005  46.627  51.443  1.00  0.00     0.171 HD
ENDROOT
BRANCH   1  11
HETATM   11  C   UNL     1      23.446  46.341  49.515  1.00  0.00     0.072 A 
HETATM   12  C   UNL     1      23.246  47.645  49.001  1.00  0.00     0.095 A 
HETATM   13  C   UNL     1      22.357  47.848  47.939  1.00  0.00     0.042 A 
HETATM   14  C   UNL     1      21.668  46.765  47.392  1.00  0.00     0.045 A 
HETATM   15  C   UNL     1      21.875  45.490  47.902  1.00  0.00     0.118 A 
HETATM   16  C   UNL     1      22.758  45.266  48.953  1.00  0.00     0.074 A 
HETATM   17  F   UNL     1      21.211  44.457  47.365  1.00  0.00    -0.206 F 
BRANCH  12  18
HETATM   18  O   UNL     1      23.973  48.639  49.617  1.00  0.00    -0.354 OA
HETATM   19  C   UNL     1      24.771  49.469  48.781  1.00  0.00     0.210 C 
ENDBRANCH  12  18
ENDBRANCH   1  11
BRANCH   6  20
HETATM   20  C   UNL     1      28.529  45.631  55.494  1.00  0.00    -0.002 A 
HETATM   21  C   UNL     1      29.638  44.855  55.966  1.00  0.00     0.003 A 
HETATM   22  C   UNL     1      29.931  45.303  57.258  1.00  0.00     0.043 A 
HETATM   23  C   UNL     1      30.427  43.810  55.436  1.00  0.00     0.014 A 
HETATM   24  C   UNL     1      30.973  44.775  58.031  1.00  0.00     0.030 A 
HETATM   25  N   UNL     1      29.027  46.293  57.562  1.00  0.00    -0.364 N 
HETATM   26  C   UNL     1      31.743  43.752  57.473  1.00  0.00     0.002 A 
HETATM   27  C   UNL     1      31.475  43.272  56.195  1.00  0.00     0.001 A 
HETATM   28  H   UNL     1      29.000  46.793  58.439  1.00  0.00     0.165 HD
HETATM   29  C   UNL     1      28.179  46.499  56.509  1.00  0.00     0.101 A 
ENDBRANCH   6  20
TORSDOF 3
ENDMDL
MODEL 2
REMARK VINA RESULT:      -9.4      3.139      4.680
REMARK  3 active torsions:
REMARK  status: ('A' for Active; 'I' for Inactive)
REMARK    1  A    between atoms: O_2  and  C_3 
REMARK    2  A    between atoms: C_4  and  N_5 
REMARK       I    between atoms: N_5  and  C_6 
REMARK       I    between atoms: C_6  and  N_7 
REMARK    3  A    between atoms: C_10  and  C_11 
ROOT
HETATM    1  N   UNL     1      22.547  48.161  49.416  1.00  0.00    -0.306 N 
HETATM    2  C   UNL     1      23.898  48.378  49.527  1.00  0.00     0.323 C 
HETATM    3  N   UNL     1      24.641  47.286  49.987  1.00  0.00    -0.330 N 
HETATM    4  C   UNL     1      26.074  47.377  49.720  1.00  0.00     0.155 C 
HETATM    5  C   UNL     1      26.863  46.191  50.178  1.00  0.00     0.001 C 
HETATM    6  C   UNL     1      26.383  45.178  50.918  1.00  0.00    -0.046 C 
HETATM    7  C   UNL     1      24.941  45.196  51.335  1.00  0.00     0.059 C 
HETATM    8  C   UNL     1      24.084  45.976  50.337  1.00  0.00     0.132 C 
HETATM    9  O   UNL     1      24.453  49.432  49.223  1.00  0.00    -0.247 OA
HETATM   10  H   UNL     1      22.213  47.210  49.450  1.00  0.00     0.171 HD
ENDROOT
BRANCH   1  11
HETATM   11  C   UNL     1      21.545  49.073  49.005  1.00  0.00     0.072 A 
HETATM   12  C   UNL     1      21.005  48.879  47.711  1.00  0.00     0.095 A 
HETATM   13  C   UNL     1      20.014  49.744  47.232  1.00  0.00     0.042 A 
HETATM   14  C   UNL     1      19.563  50.795  48.031  1.00  0.00     0.045 A 
HETATM   15  C   UNL     1      20.097  50.973  49.301  1.00  0.00     0.118 A 
HETATM   16  C   UNL     1      21.079  50.122  49.798  1.00  0.00     0.074 A 
HETATM   17  F   UNL     1      19.653  51.983  50.061  1.00  0.00    -0.206 F 
BRANCH  12  18
HETATM   18  O   UNL     1      21.525  47.816  47.009  1.00  0.00    -0.354 OA
HETATM   19  C   UNL     1      20.600  46.858  46.507  1.00  0.00     0.210 C 
ENDBRANCH  12  18
ENDBRANCH   1  11
BRANCH   6  20
HETATM   20  C   UNL     1      27.142  44.018  51.289  1.00  0.00    -0.002 A 
HETATM   21  C   UNL     1      27.952  43.791  52.450  1.00  0.00     0.003 A 
HETATM   22  C   UNL     1      28.450  42.488  52.353  1.00  0.00     0.043 A 
HETATM   23  C   UNL     1      28.325  44.556  53.578  1.00  0.00     0.014 A 
HETATM   24  C   UNL     1      29.278  41.912  53.325  1.00  0.00     0.030 A 
HETATM   25  N   UNL     1      27.978  41.957  51.176  1.00  0.00    -0.364 N 
HETATM   26  C   UNL     1      29.617  42.690  54.434  1.00  0.00     0.002 A 
HETATM   27  C   UNL     1      29.151  43.995  54.560  1.00  0.00     0.001 A 
HETATM   28  H   UNL     1      28.185  41.026  50.844  1.00  0.00     0.165 HD
HETATM   29  C   UNL     1      27.190  42.868  50.527  1.00  0.00     0.101 A 
ENDBRANCH   6  20
TORSDOF 3
ENDMDL
MODEL 3
REMARK VINA RESULT:      -9.4      4.289      5.316
REMARK  3 active torsions:
REMARK  status: ('A' for Active; 'I' for Inactive)
REMARK    1  A    between atoms: O_2  and  C_3 
REMARK    2  A    between atoms: C_4  and  N_5 
REMARK       I    between atoms: N_5  and  C_6 
REMARK       I    between atoms: C_6  and  N_7 
REMARK    3  A    between atoms: C_10  and  C_11 
ROOT
HETATM    1  N   UNL     1      27.393  41.443  49.210  1.00  0.00    -0.306 N 
HETATM    2  C   UNL     1      28.008  40.881  50.301  1.00  0.00     0.323 C 
HETATM    3  N   UNL     1      28.264  41.759  51.360  1.00  0.00    -0.330 N 
HETATM    4  C   UNL     1      28.531  41.101  52.636  1.00  0.00     0.155 C 
HETATM    5  C   UNL     1      28.767  42.040  53.776  1.00  0.00     0.001 C 
HETATM    6  C   UNL     1      28.896  43.374  53.670  1.00  0.00    -0.046 C 
HETATM    7  C   UNL     1      28.796  44.012  52.315  1.00  0.00     0.059 C 
HETATM    8  C   UNL     1      27.921  43.184  51.373  1.00  0.00     0.132 C 
HETATM    9  O   UNL     1      28.300  39.689  50.388  1.00  0.00    -0.247 OA
HETATM   10  H   UNL     1      26.974  42.355  49.317  1.00  0.00     0.171 HD
ENDROOT
BRANCH   1  11
HETATM   11  C   UNL     1      27.031  40.821  47.992  1.00  0.00     0.072 A 
HETATM   12  C   UNL     1      25.666  40.484  47.833  1.00  0.00     0.095 A 
HETATM   13  C   UNL     1      25.232  39.861  46.657  1.00  0.00     0.042 A 
HETATM   14  C   UNL     1      26.148  39.572  45.645  1.00  0.00     0.045 A 
HETATM   15  C   UNL     1      27.485  39.911  45.810  1.00  0.00     0.118 A 
HETATM   16  C   UNL     1      27.936  40.535  46.968  1.00  0.00     0.074 A 
HETATM   17  F   UNL     1      28.355  39.632  44.829  1.00  0.00    -0.206 F 
BRANCH  12  18
HETATM   18  O   UNL     1      24.852  40.811  48.894  1.00  0.00    -0.354 OA
HETATM   19  C   UNL     1      23.683  41.569  48.603  1.00  0.00     0.210 C 
ENDBRANCH  12  18
ENDBRANCH   1  11
BRANCH   6  20
HETATM   20  C   UNL     1      29.055  44.261  54.786  1.00  0.00    -0.002 A 
HETATM   21  C   UNL     1      30.004  44.215  55.860  1.00  0.00     0.003 A 
HETATM   22  C   UNL     1      29.759  45.329  56.670  1.00  0.00     0.043 A 
HETATM   23  C   UNL     1      31.047  43.342  56.240  1.00  0.00     0.014 A 
HETATM   24  C   UNL     1      30.507  45.618  57.818  1.00  0.00     0.030 A 
HETATM   25  N   UNL     1      28.696  46.007  56.121  1.00  0.00    -0.364 N 
HETATM   26  C   UNL     1      31.541  44.742  58.158  1.00  0.00     0.002 A 
HETATM   27  C   UNL     1      31.808  43.617  57.384  1.00  0.00     0.001 A 
HETATM   28  H   UNL     1      28.298  46.852  56.504  1.00  0.00     0.165 HD
HETATM   29  C   UNL     1      28.265  45.375  54.988  1.00  0.00     0.101 A 
ENDBRANCH   6  20
TORSDOF 3
ENDMDL
MODEL 4
REMARK VINA RESULT:      -9.2      2.386      3.591
REMARK  3 active torsions:
REMARK  status: ('A' for Active; 'I' for Inactive)
REMARK    1  A    between atoms: O_2  and  C_3 
REMARK    2  A    between atoms: C_4  and  N_5 
REMARK       I    between atoms: N_5  and  C_6 
REMARK       I    between atoms: C_6  and  N_7 
REMARK    3  A    between atoms: C_10  and  C_11 
ROOT
HETATM    1  N   UNL     1      23.499  47.664  49.694  1.00  0.00    -0.306 N 
HETATM    2  C   UNL     1      23.506  46.298  49.553  1.00  0.00     0.323 C 
HETATM    3  N   UNL     1      24.591  45.643  50.145  1.00  0.00    -0.330 N 
HETATM    4  C   UNL     1      24.392  44.210  50.347  1.00  0.00     0.155 C 
HETATM    5  C   UNL     1      25.537  43.517  51.015  1.00  0.00     0.001 C 
HETATM    6  C   UNL     1      26.731  44.071  51.283  1.00  0.00    -0.046 C 
HETATM    7  C   UNL     1      26.974  45.502  50.901  1.00  0.00     0.059 C 
HETATM    8  C   UNL     1      25.671  46.303  50.884  1.00  0.00     0.132 C 
HETATM    9  O   UNL     1      22.624  45.661  48.980  1.00  0.00    -0.247 OA
HETATM   10  H   UNL     1      24.117  48.074  50.377  1.00  0.00     0.171 HD
ENDROOT
BRANCH   1  11
HETATM   11  C   UNL     1      22.556  48.591  49.191  1.00  0.00     0.072 A 
HETATM   12  C   UNL     1      23.045  49.879  48.867  1.00  0.00     0.095 A 
HETATM   13  C   UNL     1      22.171  50.852  48.368  1.00  0.00     0.042 A 
HETATM   14  C   UNL     1      20.820  50.551  48.194  1.00  0.00     0.045 A 
HETATM   15  C   UNL     1      20.352  49.281  48.512  1.00  0.00     0.118 A 
HETATM   16  C   UNL     1      21.204  48.299  49.004  1.00  0.00     0.074 A 
HETATM   17  F   UNL     1      19.053  49.002  48.336  1.00  0.00    -0.206 F 
BRANCH  12  18
HETATM   18  O   UNL     1      24.391  50.069  49.081  1.00  0.00    -0.354 OA
HETATM   19  C   UNL     1      25.234  50.074  47.935  1.00  0.00     0.210 C 
ENDBRANCH  12  18
ENDBRANCH   1  11
BRANCH   6  20
HETATM   20  C   UNL     1      27.791  43.406  51.985  1.00  0.00    -0.002 A 
HETATM   21  C   UNL     1      28.460  43.784  53.195  1.00  0.00     0.003 A 
HETATM   22  C   UNL     1      29.393  42.781  53.477  1.00  0.00     0.043 A 
HETATM   23  C   UNL     1      28.381  44.877  54.086  1.00  0.00     0.014 A 
HETATM   24  C   UNL     1      30.229  42.807  54.601  1.00  0.00     0.030 A 
HETATM   25  N   UNL     1      29.305  41.847  52.471  1.00  0.00    -0.364 N 
HETATM   26  C   UNL     1      30.115  43.896  55.469  1.00  0.00     0.002 A 
HETATM   27  C   UNL     1      29.207  44.919  55.217  1.00  0.00     0.001 A 
HETATM   28  H   UNL     1      29.871  41.013  52.414  1.00  0.00     0.165 HD
HETATM   29  C   UNL     1      28.345  42.213  51.568  1.00  0.00     0.101 A 
ENDBRANCH   6  20
TORSDOF 3
ENDMDL
MODEL 5
REMARK VINA RESULT:      -9.2      4.646      6.252
REMARK  3 active torsions:
REMARK  status: ('A' for Active; 'I' for Inactive)
REMARK    1  A    between atoms: O_2  and  C_3 
REMARK    2  A    between atoms: C_4  and  N_5 
REMARK       I    between atoms: N_5  and  C_6 
REMARK       I    between atoms: C_6  and  N_7 
REMARK    3  A    between atoms: C_10  and  C_11 
ROOT
HETATM    1  N   UNL     1      27.677  40.306  49.985  1.00  0.00    -0.306 N 
HETATM    2  C   UNL     1      27.330  41.634  50.027  1.00  0.00     0.323 C 
HETATM    3  N   UNL     1      27.643  42.295  51.220  1.00  0.00    -0.330 N 
HETATM    4  C   UNL     1      27.653  43.751  51.118  1.00  0.00     0.155 C 
HETATM    5  C   UNL     1      28.025  44.456  52.383  1.00  0.00     0.001 C 
HETATM    6  C   UNL     1      28.187  43.869  53.581  1.00  0.00    -0.046 C 
HETATM    7  C   UNL     1      27.995  42.385  53.698  1.00  0.00     0.059 C 
HETATM    8  C   UNL     1      28.299  41.678  52.377  1.00  0.00     0.132 C 
HETATM    9  O   UNL     1      26.809  42.240  49.092  1.00  0.00    -0.247 OA
HETATM   10  H   UNL     1      28.311  39.958  50.688  1.00  0.00     0.171 HD
ENDROOT
BRANCH   1  11
HETATM   11  C   UNL     1      27.470  39.381  48.935  1.00  0.00     0.072 A 
HETATM   12  C   UNL     1      28.553  38.524  48.623  1.00  0.00     0.095 A 
HETATM   13  C   UNL     1      28.426  37.585  47.592  1.00  0.00     0.042 A 
HETATM   14  C   UNL     1      27.234  37.498  46.874  1.00  0.00     0.045 A 
HETATM   15  C   UNL     1      26.176  38.341  47.192  1.00  0.00     0.118 A 
HETATM   16  C   UNL     1      26.280  39.277  48.215  1.00  0.00     0.074 A 
HETATM   17  F   UNL     1      25.033  38.245  46.498  1.00  0.00    -0.206 F 
BRANCH  12  18
HETATM   18  O   UNL     1      29.682  38.699  49.391  1.00  0.00    -0.354 OA
HETATM   19  C   UNL     1      29.922  37.740  50.415  1.00  0.00     0.210 C 
ENDBRANCH  12  18
ENDBRANCH   1  11
BRANCH   6  20
HETATM   20  C   UNL     1      28.610  44.556  54.767  1.00  0.00    -0.002 A 
HETATM   21  C   UNL     1      29.702  44.266  55.649  1.00  0.00     0.003 A 
HETATM   22  C   UNL     1      29.705  45.256  56.636  1.00  0.00     0.043 A 
HETATM   23  C   UNL     1      30.692  43.261  55.722  1.00  0.00     0.014 A 
HETATM   24  C   UNL     1      30.648  45.302  57.671  1.00  0.00     0.030 A 
HETATM   25  N   UNL     1      28.649  46.097  56.374  1.00  0.00    -0.364 N 
HETATM   26  C   UNL     1      31.622  44.300  57.707  1.00  0.00     0.002 A 
HETATM   27  C   UNL     1      31.645  43.291  56.749  1.00  0.00     0.001 A 
HETATM   28  H   UNL     1      28.407  46.903  56.933  1.00  0.00     0.165 HD
HETATM   29  C   UNL     1      27.984  45.687  55.252  1.00  0.00     0.101 A 
ENDBRANCH   6  20
TORSDOF 3
ENDMDL
MODEL 6
REMARK VINA RESULT:      -9.0      1.375      1.698
REMARK  3 active torsions:
REMARK  status: ('A' for Active; 'I' for Inactive)
REMARK    1  A    between atoms: O_2  and  C_3 
REMARK    2  A    between atoms: C_4  and  N_5 
REMARK       I    between atoms: N_5  and  C_6 
REMARK       I    between atoms: C_6  and  N_7 
REMARK    3  A    between atoms: C_10  and  C_11 
ROOT
HETATM    1  N   UNL     1      23.195  45.655  49.661  1.00  0.00    -0.306 N 
HETATM    2  C   UNL     1      23.973  44.595  50.055  1.00  0.00     0.323 C 
HETATM    3  N   UNL     1      24.883  44.872  51.081  1.00  0.00    -0.330 N 
HETATM    4  C   UNL     1      25.401  43.689  51.762  1.00  0.00     0.155 C 
HETATM    5  C   UNL     1      26.345  43.988  52.883  1.00  0.00     0.001 C 
HETATM    6  C   UNL     1      26.838  45.201  53.182  1.00  0.00    -0.046 C 
HETATM    7  C   UNL     1      26.427  46.381  52.350  1.00  0.00     0.059 C 
HETATM    8  C   UNL     1      25.042  46.174  51.736  1.00  0.00     0.132 C 
HETATM    9  O   UNL     1      23.882  43.462  49.585  1.00  0.00    -0.247 OA
HETATM   10  H   UNL     1      23.162  46.469  50.256  1.00  0.00     0.171 HD
ENDROOT
BRANCH   1  11
HETATM   11  C   UNL     1      22.212  45.689  48.643  1.00  0.00     0.072 A 
HETATM   12  C   UNL     1      22.197  46.836  47.814  1.00  0.00     0.095 A 
HETATM   13  C   UNL     1      21.250  46.945  46.789  1.00  0.00     0.042 A 
HETATM   14  C   UNL     1      20.322  45.922  46.589  1.00  0.00     0.045 A 
HETATM   15  C   UNL     1      20.349  44.799  47.406  1.00  0.00     0.118 A 
HETATM   16  C   UNL     1      21.285  44.669  48.426  1.00  0.00     0.074 A 
HETATM   17  F   UNL     1      19.456  43.821  47.200  1.00  0.00    -0.206 F 
BRANCH  12  18
HETATM   18  O   UNL     1      23.153  47.784  48.103  1.00  0.00    -0.354 OA
HETATM   19  C   UNL     1      22.706  49.127  48.256  1.00  0.00     0.210 C 
ENDBRANCH  12  18
ENDBRANCH   1  11
BRANCH   6  20
HETATM   20  C   UNL     1      27.689  45.474  54.304  1.00  0.00    -0.002 A 
HETATM   21  C   UNL     1      28.820  44.740  54.790  1.00  0.00     0.003 A 
HETATM   22  C   UNL     1      29.322  45.443  55.890  1.00  0.00     0.043 A 
HETATM   23  C   UNL     1      29.474  43.544  54.419  1.00  0.00     0.014 A 
HETATM   24  C   UNL     1      30.444  45.024  56.618  1.00  0.00     0.030 A 
HETATM   25  N   UNL     1      28.519  46.543  56.073  1.00  0.00    -0.364 N 
HETATM   26  C   UNL     1      31.076  43.844  56.216  1.00  0.00     0.002 A 
HETATM   27  C   UNL     1      30.599  43.111  55.134  1.00  0.00     0.001 A 
HETATM   28  H   UNL     1      28.645  47.229  56.804  1.00  0.00     0.165 HD
HETATM   29  C   UNL     1      27.533  46.573  55.125  1.00  0.00     0.101 A 
ENDBRANCH   6  20
TORSDOF 3
ENDMDL
MODEL 7
REMARK VINA RESULT:      -8.9      3.949      5.808
REMARK  3 active torsions:
REMARK  status: ('A' for Active; 'I' for Inactive)
REMARK    1  A    between atoms: O_2  and  C_3 
REMARK    2  A    between atoms: C_4  and  N_5 
REMARK       I    between atoms: N_5  and  C_6 
REMARK       I    between atoms: C_6  and  N_7 
REMARK    3  A    between atoms: C_10  and  C_11 
ROOT
HETATM    1  N   UNL     1      25.141  46.987  49.609  1.00  0.00    -0.306 N 
HETATM    2  C   UNL     1      25.607  46.563  50.829  1.00  0.00     0.323 C 
HETATM    3  N   UNL     1      26.161  45.278  50.842  1.00  0.00    -0.330 N 
HETATM    4  C   UNL     1      27.001  44.995  52.002  1.00  0.00     0.155 C 
HETATM    5  C   UNL     1      27.624  43.636  51.996  1.00  0.00     0.001 C 
HETATM    6  C   UNL     1      27.346  42.658  51.117  1.00  0.00    -0.046 C 
HETATM    7  C   UNL     1      26.339  42.914  50.034  1.00  0.00     0.059 C 
HETATM    8  C   UNL     1      26.274  44.399  49.674  1.00  0.00     0.132 C 
HETATM    9  O   UNL     1      25.583  47.246  51.851  1.00  0.00    -0.247 OA
HETATM   10  H   UNL     1      25.419  46.471  48.788  1.00  0.00     0.171 HD
ENDROOT
BRANCH   1  11
HETATM   11  C   UNL     1      24.515  48.216  49.291  1.00  0.00     0.072 A 
HETATM   12  C   UNL     1      25.311  49.179  48.625  1.00  0.00     0.095 A 
HETATM   13  C   UNL     1      24.763  50.420  48.282  1.00  0.00     0.042 A 
HETATM   14  C   UNL     1      23.435  50.706  48.600  1.00  0.00     0.045 A 
HETATM   15  C   UNL     1      22.663  49.752  49.250  1.00  0.00     0.118 A 
HETATM   16  C   UNL     1      23.186  48.511  49.595  1.00  0.00     0.074 A 
HETATM   17  F   UNL     1      21.387  50.036  49.546  1.00  0.00    -0.206 F 
BRANCH  12  18
HETATM   18  O   UNL     1      26.606  48.793  48.364  1.00  0.00    -0.354 OA
HETATM   19  C   UNL     1      27.640  49.514  49.026  1.00  0.00     0.210 C 
ENDBRANCH  12  18
ENDBRANCH   1  11
BRANCH   6  20
HETATM   20  C   UNL     1      28.006  41.384  51.090  1.00  0.00    -0.002 A 
HETATM   21  C   UNL     1      28.204  40.482  49.994  1.00  0.00     0.003 A 
HETATM   22  C   UNL     1      28.934  39.396  50.485  1.00  0.00     0.043 A 
HETATM   23  C   UNL     1      27.835  40.466  48.630  1.00  0.00     0.014 A 
HETATM   24  C   UNL     1      29.326  38.314  49.686  1.00  0.00     0.030 A 
HETATM   25  N   UNL     1      29.152  39.621  51.824  1.00  0.00    -0.364 N 
HETATM   26  C   UNL     1      28.957  38.334  48.338  1.00  0.00     0.002 A 
HETATM   27  C   UNL     1      28.220  39.393  47.815  1.00  0.00     0.001 A 
HETATM   28  H   UNL     1      29.652  38.992  52.436  1.00  0.00     0.165 HD
HETATM   29  C   UNL     1      28.598  40.814  52.199  1.00  0.00     0.101 A 
ENDBRANCH   6  20
TORSDOF 3
ENDMDL
MODEL 8
REMARK VINA RESULT:      -8.9      4.146     10.954
REMARK  3 active torsions:
REMARK  status: ('A' for Active; 'I' for Inactive)
REMARK    1  A    between atoms: O_2  and  C_3 
REMARK    2  A    between atoms: C_4  and  N_5 
REMARK       I    between atoms: N_5  and  C_6 
REMARK       I    between atoms: C_6  and  N_7 
REMARK    3  A    between atoms: C_10  and  C_11 
ROOT
HETATM    1  N   UNL     1      24.304  46.954  49.902  1.00  0.00    -0.306 N 
HETATM    2  C   UNL     1      24.499  48.202  49.364  1.00  0.00     0.323 C 
HETATM    3  N   UNL     1      23.333  48.888  49.010  1.00  0.00    -0.330 N 
HETATM    4  C   UNL     1      23.511  50.326  48.830  1.00  0.00     0.155 C 
HETATM    5  C   UNL     1      22.256  51.065  48.489  1.00  0.00     0.001 C 
HETATM    6  C   UNL     1      21.073  50.496  48.201  1.00  0.00    -0.046 C 
HETATM    7  C   UNL     1      20.960  49.000  48.218  1.00  0.00     0.059 C 
HETATM    8  C   UNL     1      21.970  48.375  49.181  1.00  0.00     0.132 C 
HETATM    9  O   UNL     1      25.604  48.723  49.217  1.00  0.00    -0.247 OA
HETATM   10  H   UNL     1      23.375  46.708  50.210  1.00  0.00     0.171 HD
ENDROOT
BRANCH   1  11
HETATM   11  C   UNL     1      25.280  46.022  50.330  1.00  0.00     0.072 A 
HETATM   12  C   UNL     1      25.772  46.180  51.647  1.00  0.00     0.095 A 
HETATM   13  C   UNL     1      26.743  45.301  52.140  1.00  0.00     0.042 A 
HETATM   14  C   UNL     1      27.225  44.272  51.330  1.00  0.00     0.045 A 
HETATM   15  C   UNL     1      26.732  44.125  50.039  1.00  0.00     0.118 A 
HETATM   16  C   UNL     1      25.763  44.984  49.533  1.00  0.00     0.074 A 
HETATM   17  F   UNL     1      27.199  43.130  49.272  1.00  0.00    -0.206 F 
BRANCH  12  18
HETATM   18  O   UNL     1      25.231  47.229  52.356  1.00  0.00    -0.354 OA
HETATM   19  C   UNL     1      25.717  47.435  53.678  1.00  0.00     0.210 C 
ENDBRANCH  12  18
ENDBRANCH   1  11
BRANCH   6  20
HETATM   20  C   UNL     1      19.866  51.227  47.943  1.00  0.00    -0.002 A 
HETATM   21  C   UNL     1      18.942  51.107  46.854  1.00  0.00     0.003 A 
HETATM   22  C   UNL     1      17.913  52.025  47.087  1.00  0.00     0.043 A 
HETATM   23  C   UNL     1      18.868  50.318  45.685  1.00  0.00     0.014 A 
HETATM   24  C   UNL     1      16.818  52.180  46.228  1.00  0.00     0.030 A 
HETATM   25  N   UNL     1      18.212  52.685  48.255  1.00  0.00    -0.364 N 
HETATM   26  C   UNL     1      16.768  51.375  45.087  1.00  0.00     0.002 A 
HETATM   27  C   UNL     1      17.778  50.458  44.815  1.00  0.00     0.001 A 
HETATM   28  H   UNL     1      17.642  53.412  48.664  1.00  0.00     0.165 HD
HETATM   29  C   UNL     1      19.384  52.214  48.780  1.00  0.00     0.101 A 
ENDBRANCH   6  20
TORSDOF 3
ENDMDL
MODEL 9
REMARK VINA RESULT:      -8.6      4.382     11.210
REMARK  3 active torsions:
REMARK  status: ('A' for Active; 'I' for Inactive)
REMARK    1  A    between atoms: O_2  and  C_3 
REMARK    2  A    between atoms: C_4  and  N_5 
REMARK       I    between atoms: N_5  and  C_6 
REMARK       I    between atoms: C_6  and  N_7 
REMARK    3  A    between atoms: C_10  and  C_11 
ROOT
HETATM    1  N   UNL     1      23.894  47.005  49.975  1.00  0.00    -0.306 N 
HETATM    2  C   UNL     1      24.108  48.274  49.498  1.00  0.00     0.323 C 
HETATM    3  N   UNL     1      22.959  48.957  49.085  1.00  0.00    -0.330 N 
HETATM    4  C   UNL     1      23.127  50.403  48.969  1.00  0.00     0.155 C 
HETATM    5  C   UNL     1      21.888  51.137  48.565  1.00  0.00     0.001 C 
HETATM    6  C   UNL     1      20.739  50.564  48.171  1.00  0.00    -0.046 C 
HETATM    7  C   UNL     1      20.649  49.066  48.125  1.00  0.00     0.059 C 
HETATM    8  C   UNL     1      21.596  48.420  49.137  1.00  0.00     0.132 C 
HETATM    9  O   UNL     1      25.212  48.815  49.450  1.00  0.00    -0.247 OA
HETATM   10  H   UNL     1      22.950  46.736  50.205  1.00  0.00     0.171 HD
ENDROOT
BRANCH   1  11
HETATM   11  C   UNL     1      24.851  46.071  50.439  1.00  0.00     0.072 A 
HETATM   12  C   UNL     1      25.072  44.933  49.627  1.00  0.00     0.095 A 
HETATM   13  C   UNL     1      25.999  43.962  50.023  1.00  0.00     0.042 A 
HETATM   14  C   UNL     1      26.703  44.119  51.217  1.00  0.00     0.045 A 
HETATM   15  C   UNL     1      26.481  45.242  52.004  1.00  0.00     0.118 A 
HETATM   16  C   UNL     1      25.568  46.220  51.627  1.00  0.00     0.074 A 
HETATM   17  F   UNL     1      27.167  45.384  53.147  1.00  0.00    -0.206 F 
BRANCH  12  18
HETATM   18  O   UNL     1      24.321  44.878  48.474  1.00  0.00    -0.354 OA
HETATM   19  C   UNL     1      23.626  43.664  48.213  1.00  0.00     0.210 C 
ENDBRANCH  12  18
ENDBRANCH   1  11
BRANCH   6  20
HETATM   20  C   UNL     1      19.543  51.288  47.852  1.00  0.00    -0.002 A 
HETATM   21  C   UNL     1      18.704  51.198  46.693  1.00  0.00     0.003 A 
HETATM   22  C   UNL     1      17.645  52.092  46.883  1.00  0.00     0.043 A 
HETATM   23  C   UNL     1      18.730  50.456  45.491  1.00  0.00     0.014 A 
HETATM   24  C   UNL     1      16.614  52.266  45.951  1.00  0.00     0.030 A 
HETATM   25  N   UNL     1      17.845  52.709  48.095  1.00  0.00    -0.364 N 
HETATM   26  C   UNL     1      16.663  51.507  44.779  1.00  0.00     0.002 A 
HETATM   27  C   UNL     1      17.706  50.615  44.548  1.00  0.00     0.001 A 
HETATM   28  H   UNL     1      17.234  53.411  48.488  1.00  0.00     0.165 HD
HETATM   29  C   UNL     1      18.983  52.234  48.687  1.00  0.00     0.101 A 
ENDBRANCH   6  20
TORSDOF 3
ENDMDL
MODEL 10
REMARK VINA RESULT:      -8.4      3.542     10.364
REMARK  3 active torsions:
REMARK  status: ('A' for Active; 'I' for Inactive)
REMARK    1  A    between atoms: O_2  and  C_3 
REMARK    2  A    between atoms: C_4  and  N_5 
REMARK       I    between atoms: N_5  and  C_6 
REMARK       I    between atoms: C_6  and  N_7 
REMARK    3  A    between atoms: C_10  and  C_11 
ROOT
HETATM    1  N   UNL     1      25.507  45.712  50.937  1.00  0.00    -0.306 N 
HETATM    2  C   UNL     1      25.483  47.018  50.514  1.00  0.00     0.323 C 
HETATM    3  N   UNL     1      24.344  47.390  49.793  1.00  0.00    -0.330 N 
HETATM    4  C   UNL     1      24.133  48.832  49.702  1.00  0.00     0.155 C 
HETATM    5  C   UNL     1      22.894  49.229  48.963  1.00  0.00     0.001 C 
HETATM    6  C   UNL     1      22.094  48.391  48.283  1.00  0.00    -0.046 C 
HETATM    7  C   UNL     1      22.433  46.930  48.241  1.00  0.00     0.059 C 
HETATM    8  C   UNL     1      23.217  46.505  49.483  1.00  0.00     0.132 C 
HETATM    9  O   UNL     1      26.367  47.838  50.758  1.00  0.00    -0.247 OA
HETATM   10  H   UNL     1      24.647  45.187  50.908  1.00  0.00     0.171 HD
ENDROOT
BRANCH   1  11
HETATM   11  C   UNL     1      26.525  45.045  51.660  1.00  0.00     0.072 A 
HETATM   12  C   UNL     1      27.302  44.107  50.940  1.00  0.00     0.095 A 
HETATM   13  C   UNL     1      28.324  43.403  51.588  1.00  0.00     0.042 A 
HETATM   14  C   UNL     1      28.572  43.627  52.942  1.00  0.00     0.045 A 
HETATM   15  C   UNL     1      27.805  44.554  53.638  1.00  0.00     0.118 A 
HETATM   16  C   UNL     1      26.789  45.267  53.012  1.00  0.00     0.074 A 
HETATM   17  F   UNL     1      28.056  44.764  54.938  1.00  0.00    -0.206 F 
BRANCH  12  18
HETATM   18  O   UNL     1      26.969  43.962  49.612  1.00  0.00    -0.354 OA
HETATM   19  C   UNL     1      26.621  42.654  49.172  1.00  0.00     0.210 C 
ENDBRANCH  12  18
ENDBRANCH   1  11
BRANCH   6  20
HETATM   20  C   UNL     1      20.874  48.785  47.639  1.00  0.00    -0.002 A 
HETATM   21  C   UNL     1      20.142  50.013  47.742  1.00  0.00     0.003 A 
HETATM   22  C   UNL     1      19.041  49.907  46.887  1.00  0.00     0.043 A 
HETATM   23  C   UNL     1      20.293  51.210  48.477  1.00  0.00     0.014 A 
HETATM   24  C   UNL     1      18.102  50.933  46.719  1.00  0.00     0.030 A 
HETATM   25  N   UNL     1      19.093  48.662  46.307  1.00  0.00    -0.364 N 
HETATM   26  C   UNL     1      18.286  52.109  47.451  1.00  0.00     0.002 A 
HETATM   27  C   UNL     1      19.364  52.248  48.320  1.00  0.00     0.001 A 
HETATM   28  H   UNL     1      18.414  48.310  45.646  1.00  0.00     0.165 HD
HETATM   29  C   UNL     1      20.190  47.978  46.751  1.00  0.00     0.101 A 
ENDBRANCH   6  20
TORSDOF 3
ENDMDL
