MODEL 1
REMARK VINA RESULT:      -7.5      0.000      0.000
REMARK  4 active torsions:
REMARK  status: ('A' for Active; 'I' for Inactive)
REMARK    1  A    between atoms: N_4  and  C_5 
REMARK    2  A    between atoms: C_13  and  C_14 
REMARK    3  A    between atoms: N_15  and  C_17 
REMARK    4  A    between atoms: C_17  and  C_18 
ROOT
HETATM    1  C   UNL     1      18.525  48.328  51.947  1.00  0.00     0.095 C 
HETATM    2  C   UNL     1      18.806  49.070  50.700  1.00  0.00     0.144 A 
HETATM    3  N   UNL     1      19.776  48.733  49.845  1.00  0.00    -0.156 NA
HETATM    4  N   UNL     1      19.633  49.647  48.871  1.00  0.00    -0.247 N 
HETATM    5  C   UNL     1      18.653  50.560  49.195  1.00  0.00     0.156 A 
HETATM    6  N   UNL     1      18.122  50.196  50.346  1.00  0.00    -0.215 NA
ENDROOT
BRANCH   5   7
HETATM    7  C   UNL     1      18.311  51.815  48.435  1.00  0.00     0.259 C 
HETATM    8  N   UNL     1      17.262  51.693  47.328  1.00  0.00    -0.056 N 
HETATM    9  H   UNL     1      17.129  52.650  46.982  1.00  0.00     0.281 HD
HETATM   10  C   UNL     1      15.891  51.299  47.829  1.00  0.00     0.236 C 
HETATM   11  C   UNL     1      15.401  52.353  48.813  1.00  0.00     0.028 C 
HETATM   12  C   UNL     1      16.393  52.614  49.941  1.00  0.00     0.004 C 
HETATM   13  C   UNL     1      17.801  52.898  49.409  1.00  0.00     0.041 C 
BRANCH   8  14
HETATM   14  C   UNL     1      17.702  50.955  46.081  1.00  0.00     0.274 C 
BRANCH  14  15
HETATM   15  C   UNL     1      17.587  51.669  44.765  1.00  0.00    -0.033 A 
HETATM   16  C   UNL     1      17.035  52.958  44.698  1.00  0.00     0.009 A 
HETATM   17  C   UNL     1      16.946  53.631  43.479  1.00  0.00     0.001 A 
HETATM   18  C   UNL     1      17.414  53.030  42.314  1.00  0.00     0.000 A 
HETATM   19  C   UNL     1      17.983  51.760  42.367  1.00  0.00     0.001 A 
HETATM   20  C   UNL     1      18.075  51.084  43.585  1.00  0.00     0.009 A 
ENDBRANCH  14  15
ENDBRANCH   8  14
ENDBRANCH   5   7
BRANCH   4  21
HETATM   21  C   UNL     1      20.507  49.555  47.706  1.00  0.00     0.115 C 
HETATM   22  C   UNL     1      21.116  48.152  47.515  1.00  0.00     0.055 C 
HETATM   23  C   UNL     1      22.309  47.855  48.422  1.00  0.00     0.236 C 
HETATM   24  N   UNL     1      23.328  48.962  48.307  1.00  0.00    -0.075 N 
HETATM   25  H   UNL     1      23.669  48.992  47.337  1.00  0.00     0.279 HD
HETATM   26  C   UNL     1      24.551  48.659  49.146  1.00  0.00     0.269 C 
HETATM   27  C   UNL     1      22.752  50.306  48.664  1.00  0.00     0.236 C 
HETATM   28  C   UNL     1      21.598  50.633  47.723  1.00  0.00     0.055 C 
ENDBRANCH   4  21
TORSDOF 4
ENDMDL
MODEL 2
REMARK VINA RESULT:      -7.4     11.811     14.335
REMARK  4 active torsions:
REMARK  status: ('A' for Active; 'I' for Inactive)
REMARK    1  A    between atoms: N_4  and  C_5 
REMARK    2  A    between atoms: C_13  and  C_14 
REMARK    3  A    between atoms: N_15  and  C_17 
REMARK    4  A    between atoms: C_17  and  C_18 
ROOT
HETATM    1  C   UNL     1      31.916  51.242  37.508  1.00  0.00     0.095 C 
HETATM    2  C   UNL     1      31.543  50.342  38.619  1.00  0.00     0.144 A 
HETATM    3  N   UNL     1      32.338  50.090  39.663  1.00  0.00    -0.156 NA
HETATM    4  N   UNL     1      31.582  49.268  40.410  1.00  0.00    -0.247 N 
HETATM    5  C   UNL     1      30.399  48.971  39.770  1.00  0.00     0.156 A 
HETATM    6  N   UNL     1      30.365  49.653  38.641  1.00  0.00    -0.215 NA
ENDROOT
BRANCH   5   7
HETATM    7  C   UNL     1      29.367  47.968  40.213  1.00  0.00     0.259 C 
HETATM    8  N   UNL     1      27.919  48.230  39.797  1.00  0.00    -0.056 N 
HETATM    9  H   UNL     1      27.393  47.417  40.137  1.00  0.00     0.281 HD
HETATM   10  C   UNL     1      27.700  48.198  38.301  1.00  0.00     0.236 C 
HETATM   11  C   UNL     1      28.089  46.823  37.773  1.00  0.00     0.028 C 
HETATM   12  C   UNL     1      29.501  46.414  38.175  1.00  0.00     0.004 C 
HETATM   13  C   UNL     1      29.732  46.566  39.682  1.00  0.00     0.041 C 
BRANCH   8  14
HETATM   14  C   UNL     1      27.228  49.380  40.499  1.00  0.00     0.274 C 
BRANCH  14  15
HETATM   15  C   UNL     1      27.889  50.728  40.459  1.00  0.00    -0.033 A 
HETATM   16  C   UNL     1      28.570  51.223  41.583  1.00  0.00     0.009 A 
HETATM   17  C   UNL     1      29.202  52.466  41.541  1.00  0.00     0.001 A 
HETATM   18  C   UNL     1      29.171  53.225  40.376  1.00  0.00     0.000 A 
HETATM   19  C   UNL     1      28.517  52.740  39.246  1.00  0.00     0.001 A 
HETATM   20  C   UNL     1      27.884  51.496  39.284  1.00  0.00     0.009 A 
ENDBRANCH  14  15
ENDBRANCH   8  14
ENDBRANCH   5   7
BRANCH   4  21
HETATM   21  C   UNL     1      32.114  48.818  41.692  1.00  0.00     0.115 C 
HETATM   22  C   UNL     1      31.835  49.804  42.844  1.00  0.00     0.055 C 
HETATM   23  C   UNL     1      32.777  51.007  42.886  1.00  0.00     0.236 C 
HETATM   24  N   UNL     1      34.210  50.536  42.846  1.00  0.00    -0.075 N 
HETATM   25  H   UNL     1      34.389  49.965  43.683  1.00  0.00     0.279 HD
HETATM   26  C   UNL     1      35.165  51.705  42.954  1.00  0.00     0.269 C 
HETATM   27  C   UNL     1      34.506  49.712  41.621  1.00  0.00     0.236 C 
HETATM   28  C   UNL     1      33.608  48.480  41.606  1.00  0.00     0.055 C 
ENDBRANCH   4  21
TORSDOF 4
ENDMDL
MODEL 3
REMARK VINA RESULT:      -7.3     25.101     26.792
REMARK  4 active torsions:
REMARK  status: ('A' for Active; 'I' for Inactive)
REMARK    1  A    between atoms: N_4  and  C_5 
REMARK    2  A    between atoms: C_13  and  C_14 
REMARK    3  A    between atoms: N_15  and  C_17 
REMARK    4  A    between atoms: C_17  and  C_18 
ROOT
HETATM    1  C   UNL     1      42.007  46.652  65.161  1.00  0.00     0.095 C 
HETATM    2  C   UNL     1      40.676  46.144  64.770  1.00  0.00     0.144 A 
HETATM    3  N   UNL     1      40.485  45.246  63.799  1.00  0.00    -0.156 NA
HETATM    4  N   UNL     1      39.154  45.069  63.826  1.00  0.00    -0.247 N 
HETATM    5  C   UNL     1      38.564  45.918  64.738  1.00  0.00     0.156 A 
HETATM    6  N   UNL     1      39.521  46.594  65.342  1.00  0.00    -0.215 NA
ENDROOT
BRANCH   5   7
HETATM    7  C   UNL     1      37.087  46.127  64.943  1.00  0.00     0.259 C 
HETATM    8  N   UNL     1      36.578  46.123  66.386  1.00  0.00    -0.056 N 
HETATM    9  H   UNL     1      35.577  46.338  66.315  1.00  0.00     0.281 HD
HETATM   10  C   UNL     1      37.129  47.251  67.228  1.00  0.00     0.236 C 
HETATM   11  C   UNL     1      36.726  48.580  66.602  1.00  0.00     0.028 C 
HETATM   12  C   UNL     1      37.125  48.685  65.135  1.00  0.00     0.004 C 
HETATM   13  C   UNL     1      36.653  47.473  64.326  1.00  0.00     0.041 C 
BRANCH   8  14
HETATM   14  C   UNL     1      36.572  44.777  67.079  1.00  0.00     0.274 C 
BRANCH  14  15
HETATM   15  C   UNL     1      35.255  44.071  67.231  1.00  0.00    -0.033 A 
HETATM   16  C   UNL     1      34.650  43.444  66.130  1.00  0.00     0.009 A 
HETATM   17  C   UNL     1      33.437  42.770  66.274  1.00  0.00     0.001 A 
HETATM   18  C   UNL     1      32.818  42.705  67.518  1.00  0.00     0.000 A 
HETATM   19  C   UNL     1      33.414  43.304  68.624  1.00  0.00     0.001 A 
HETATM   20  C   UNL     1      34.629  43.979  68.485  1.00  0.00     0.009 A 
ENDBRANCH  14  15
ENDBRANCH   8  14
ENDBRANCH   5   7
BRANCH   4  21
HETATM   21  C   UNL     1      38.570  44.089  62.918  1.00  0.00     0.115 C 
HETATM   22  C   UNL     1      37.327  43.387  63.501  1.00  0.00     0.055 C 
HETATM   23  C   UNL     1      37.642  42.268  64.492  1.00  0.00     0.236 C 
HETATM   24  N   UNL     1      38.630  41.306  63.880  1.00  0.00    -0.075 N 
HETATM   25  H   UNL     1      38.198  40.880  63.049  1.00  0.00     0.279 HD
HETATM   26  C   UNL     1      38.908  40.150  64.817  1.00  0.00     0.269 C 
HETATM   27  C   UNL     1      39.909  41.985  63.471  1.00  0.00     0.236 C 
HETATM   28  C   UNL     1      39.606  43.064  62.438  1.00  0.00     0.055 C 
ENDBRANCH   4  21
TORSDOF 4
ENDMDL
MODEL 4
REMARK VINA RESULT:      -7.0     11.263     14.465
REMARK  4 active torsions:
REMARK  status: ('A' for Active; 'I' for Inactive)
REMARK    1  A    between atoms: N_4  and  C_5 
REMARK    2  A    between atoms: C_13  and  C_14 
REMARK    3  A    between atoms: N_15  and  C_17 
REMARK    4  A    between atoms: C_17  and  C_18 
ROOT
HETATM    1  C   UNL     1      24.743  49.833  38.923  1.00  0.00     0.095 C 
HETATM    2  C   UNL     1      26.217  49.812  38.809  1.00  0.00     0.144 A 
HETATM    3  N   UNL     1      26.920  50.753  38.172  1.00  0.00    -0.156 NA
HETATM    4  N   UNL     1      28.185  50.342  38.356  1.00  0.00    -0.247 N 
HETATM    5  C   UNL     1      28.218  49.131  39.013  1.00  0.00     0.156 A 
HETATM    6  N   UNL     1      26.977  48.795  39.308  1.00  0.00    -0.215 NA
ENDROOT
BRANCH   5   7
HETATM    7  C   UNL     1      29.434  48.279  39.262  1.00  0.00     0.259 C 
HETATM    8  N   UNL     1      29.506  47.543  40.601  1.00  0.00    -0.056 N 
HETATM    9  H   UNL     1      30.363  46.981  40.550  1.00  0.00     0.281 HD
HETATM   10  C   UNL     1      28.413  46.515  40.789  1.00  0.00     0.236 C 
HETATM   11  C   UNL     1      28.519  45.471  39.685  1.00  0.00     0.028 C 
HETATM   12  C   UNL     1      28.521  46.086  38.290  1.00  0.00     0.004 C 
HETATM   13  C   UNL     1      29.560  47.204  38.160  1.00  0.00     0.041 C 
BRANCH   8  14
HETATM   14  C   UNL     1      29.758  48.409  41.817  1.00  0.00     0.274 C 
BRANCH  14  15
HETATM   15  C   UNL     1      31.132  48.990  41.993  1.00  0.00    -0.033 A 
HETATM   16  C   UNL     1      32.221  48.479  41.270  1.00  0.00     0.009 A 
HETATM   17  C   UNL     1      33.494  49.031  41.417  1.00  0.00     0.001 A 
HETATM   18  C   UNL     1      33.694  50.104  42.279  1.00  0.00     0.000 A 
HETATM   19  C   UNL     1      32.621  50.636  42.988  1.00  0.00     0.001 A 
HETATM   20  C   UNL     1      31.345  50.087  42.843  1.00  0.00     0.009 A 
ENDBRANCH  14  15
ENDBRANCH   8  14
ENDBRANCH   5   7
BRANCH   4  21
HETATM   21  C   UNL     1      29.263  51.175  37.834  1.00  0.00     0.115 C 
HETATM   22  C   UNL     1      30.628  50.881  38.489  1.00  0.00     0.055 C 
HETATM   23  C   UNL     1      30.816  51.516  39.865  1.00  0.00     0.236 C 
HETATM   24  N   UNL     1      30.499  52.990  39.796  1.00  0.00    -0.075 N 
HETATM   25  H   UNL     1      31.164  53.436  39.149  1.00  0.00     0.279 HD
HETATM   26  C   UNL     1      30.742  53.658  41.133  1.00  0.00     0.269 C 
HETATM   27  C   UNL     1      29.098  53.251  39.313  1.00  0.00     0.236 C 
HETATM   28  C   UNL     1      28.924  52.668  37.914  1.00  0.00     0.055 C 
ENDBRANCH   4  21
TORSDOF 4
ENDMDL
MODEL 5
REMARK VINA RESULT:      -6.9     25.373     27.994
REMARK  4 active torsions:
REMARK  status: ('A' for Active; 'I' for Inactive)
REMARK    1  A    between atoms: N_4  and  C_5 
REMARK    2  A    between atoms: C_13  and  C_14 
REMARK    3  A    between atoms: N_15  and  C_17 
REMARK    4  A    between atoms: C_17  and  C_18 
ROOT
HETATM    1  C   UNL     1      39.342  44.292  69.060  1.00  0.00     0.095 C 
HETATM    2  C   UNL     1      39.094  44.585  67.633  1.00  0.00     0.144 A 
HETATM    3  N   UNL     1      39.884  45.370  66.894  1.00  0.00    -0.156 NA
HETATM    4  N   UNL     1      39.298  45.315  65.687  1.00  0.00    -0.247 N 
HETATM    5  C   UNL     1      38.133  44.582  65.739  1.00  0.00     0.156 A 
HETATM    6  N   UNL     1      38.003  44.112  66.965  1.00  0.00    -0.215 NA
ENDROOT
BRANCH   5   7
HETATM    7  C   UNL     1      37.122  44.424  64.634  1.00  0.00     0.259 C 
HETATM    8  N   UNL     1      37.031  43.051  63.966  1.00  0.00    -0.056 N 
HETATM    9  H   UNL     1      36.257  43.133  63.296  1.00  0.00     0.281 HD
HETATM   10  C   UNL     1      36.583  41.949  64.899  1.00  0.00     0.236 C 
HETATM   11  C   UNL     1      35.201  42.290  65.442  1.00  0.00     0.028 C 
HETATM   12  C   UNL     1      35.143  43.671  66.084  1.00  0.00     0.004 C 
HETATM   13  C   UNL     1      35.709  44.754  65.160  1.00  0.00     0.041 C 
BRANCH   8  14
HETATM   14  C   UNL     1      38.194  42.673  63.073  1.00  0.00     0.274 C 
BRANCH  14  15
HETATM   15  C   UNL     1      39.065  41.528  63.501  1.00  0.00    -0.033 A 
HETATM   16  C   UNL     1      39.102  40.340  62.754  1.00  0.00     0.009 A 
HETATM   17  C   UNL     1      39.926  39.283  63.139  1.00  0.00     0.001 A 
HETATM   18  C   UNL     1      40.731  39.400  64.267  1.00  0.00     0.000 A 
HETATM   19  C   UNL     1      40.723  40.580  65.008  1.00  0.00     0.001 A 
HETATM   20  C   UNL     1      39.899  41.641  64.625  1.00  0.00     0.009 A 
ENDBRANCH  14  15
ENDBRANCH   8  14
ENDBRANCH   5   7
BRANCH   4  21
HETATM   21  C   UNL     1      39.932  46.024  64.581  1.00  0.00     0.115 C 
HETATM   22  C   UNL     1      40.752  45.100  63.659  1.00  0.00     0.055 C 
HETATM   23  C   UNL     1      42.133  44.733  64.202  1.00  0.00     0.236 C 
HETATM   24  N   UNL     1      42.876  45.985  64.596  1.00  0.00    -0.075 N 
HETATM   25  H   UNL     1      43.011  46.564  63.755  1.00  0.00     0.279 HD
HETATM   26  C   UNL     1      44.274  45.654  65.075  1.00  0.00     0.269 C 
HETATM   27  C   UNL     1      42.132  46.790  65.628  1.00  0.00     0.236 C 
HETATM   28  C   UNL     1      40.777  47.208  65.068  1.00  0.00     0.055 C 
ENDBRANCH   4  21
TORSDOF 4
ENDMDL
MODEL 6
REMARK VINA RESULT:      -6.8      3.217      5.881
REMARK  4 active torsions:
REMARK  status: ('A' for Active; 'I' for Inactive)
REMARK    1  A    between atoms: N_4  and  C_5 
REMARK    2  A    between atoms: C_13  and  C_14 
REMARK    3  A    between atoms: N_15  and  C_17 
REMARK    4  A    between atoms: C_17  and  C_18 
ROOT
HETATM    1  C   UNL     1      25.779  47.198  51.286  1.00  0.00     0.095 C 
HETATM    2  C   UNL     1      24.648  47.141  50.336  1.00  0.00     0.144 A 
HETATM    3  N   UNL     1      24.102  46.000  49.908  1.00  0.00    -0.156 NA
HETATM    4  N   UNL     1      23.112  46.434  49.110  1.00  0.00    -0.247 N 
HETATM    5  C   UNL     1      23.137  47.808  49.001  1.00  0.00     0.156 A 
HETATM    6  N   UNL     1      24.100  48.261  49.779  1.00  0.00    -0.215 NA
ENDROOT
BRANCH   5   7
HETATM    7  C   UNL     1      22.293  48.649  48.080  1.00  0.00     0.259 C 
HETATM    8  N   UNL     1      20.916  49.074  48.594  1.00  0.00    -0.056 N 
HETATM    9  H   UNL     1      20.534  49.680  47.858  1.00  0.00     0.281 HD
HETATM   10  C   UNL     1      20.971  49.975  49.807  1.00  0.00     0.236 C 
HETATM   11  C   UNL     1      21.741  51.241  49.450  1.00  0.00     0.028 C 
HETATM   12  C   UNL     1      23.117  50.949  48.865  1.00  0.00     0.004 C 
HETATM   13  C   UNL     1      23.046  49.945  47.710  1.00  0.00     0.041 C 
BRANCH   8  14
HETATM   14  C   UNL     1      19.877  47.977  48.683  1.00  0.00     0.274 C 
BRANCH  14  15
HETATM   15  C   UNL     1      18.459  48.321  48.328  1.00  0.00    -0.033 A 
HETATM   16  C   UNL     1      17.402  47.484  48.720  1.00  0.00     0.009 A 
HETATM   17  C   UNL     1      16.082  47.813  48.409  1.00  0.00     0.001 A 
HETATM   18  C   UNL     1      15.800  48.983  47.713  1.00  0.00     0.000 A 
HETATM   19  C   UNL     1      16.835  49.834  47.334  1.00  0.00     0.001 A 
HETATM   20  C   UNL     1      18.157  49.510  47.645  1.00  0.00     0.009 A 
ENDBRANCH  14  15
ENDBRANCH   8  14
ENDBRANCH   5   7
BRANCH   4  21
HETATM   21  C   UNL     1      22.238  45.442  48.493  1.00  0.00     0.115 C 
HETATM   22  C   UNL     1      21.727  44.382  49.490  1.00  0.00     0.055 C 
HETATM   23  C   UNL     1      22.736  43.281  49.810  1.00  0.00     0.236 C 
HETATM   24  N   UNL     1      23.264  42.682  48.530  1.00  0.00    -0.075 N 
HETATM   25  H   UNL     1      22.478  42.252  48.023  1.00  0.00     0.279 HD
HETATM   26  C   UNL     1      24.216  41.542  48.820  1.00  0.00     0.269 C 
HETATM   27  C   UNL     1      23.913  43.711  47.644  1.00  0.00     0.236 C 
HETATM   28  C   UNL     1      22.892  44.782  47.273  1.00  0.00     0.055 C 
ENDBRANCH   4  21
TORSDOF 4
ENDMDL
MODEL 7
REMARK VINA RESULT:      -6.8     25.283     27.695
REMARK  4 active torsions:
REMARK  status: ('A' for Active; 'I' for Inactive)
REMARK    1  A    between atoms: N_4  and  C_5 
REMARK    2  A    between atoms: C_13  and  C_14 
REMARK    3  A    between atoms: N_15  and  C_17 
REMARK    4  A    between atoms: C_17  and  C_18 
ROOT
HETATM    1  C   UNL     1      40.584  42.310  67.652  1.00  0.00     0.095 C 
HETATM    2  C   UNL     1      39.998  43.199  66.627  1.00  0.00     0.144 A 
HETATM    3  N   UNL     1      38.999  42.833  65.819  1.00  0.00    -0.156 NA
HETATM    4  N   UNL     1      38.785  43.949  65.102  1.00  0.00    -0.247 N 
HETATM    5  C   UNL     1      39.706  44.923  65.422  1.00  0.00     0.156 A 
HETATM    6  N   UNL     1      40.470  44.457  66.391  1.00  0.00    -0.215 NA
ENDROOT
BRANCH   5   7
HETATM    7  C   UNL     1      39.889  46.246  64.728  1.00  0.00     0.259 C 
HETATM    8  N   UNL     1      39.678  47.507  65.568  1.00  0.00    -0.056 N 
HETATM    9  H   UNL     1      39.906  48.286  64.939  1.00  0.00     0.281 HD
HETATM   10  C   UNL     1      40.669  47.657  66.699  1.00  0.00     0.236 C 
HETATM   11  C   UNL     1      42.077  47.720  66.120  1.00  0.00     0.028 C 
HETATM   12  C   UNL     1      42.392  46.541  65.207  1.00  0.00     0.004 C 
HETATM   13  C   UNL     1      41.313  46.341  64.139  1.00  0.00     0.041 C 
BRANCH   8  14
HETATM   14  C   UNL     1      38.246  47.811  65.954  1.00  0.00     0.274 C 
BRANCH  14  15
HETATM   15  C   UNL     1      37.946  49.164  66.532  1.00  0.00    -0.033 A 
HETATM   16  C   UNL     1      38.070  50.320  65.745  1.00  0.00     0.009 A 
HETATM   17  C   UNL     1      37.772  51.576  66.274  1.00  0.00     0.001 A 
HETATM   18  C   UNL     1      37.338  51.694  67.590  1.00  0.00     0.000 A 
HETATM   19  C   UNL     1      37.190  50.555  68.379  1.00  0.00     0.001 A 
HETATM   20  C   UNL     1      37.486  49.296  67.852  1.00  0.00     0.009 A 
ENDBRANCH  14  15
ENDBRANCH   8  14
ENDBRANCH   5   7
BRANCH   4  21
HETATM   21  C   UNL     1      37.697  43.945  64.130  1.00  0.00     0.115 C 
HETATM   22  C   UNL     1      36.604  44.988  64.439  1.00  0.00     0.055 C 
HETATM   23  C   UNL     1      35.620  44.563  65.528  1.00  0.00     0.236 C 
HETATM   24  N   UNL     1      35.061  43.198  65.210  1.00  0.00    -0.075 N 
HETATM   25  H   UNL     1      34.544  43.257  64.321  1.00  0.00     0.279 HD
HETATM   26  C   UNL     1      34.032  42.783  66.239  1.00  0.00     0.269 C 
HETATM   27  C   UNL     1      36.140  42.157  65.078  1.00  0.00     0.236 C 
HETATM   28  C   UNL     1      37.092  42.547  63.953  1.00  0.00     0.055 C 
ENDBRANCH   4  21
TORSDOF 4
ENDMDL
MODEL 8
REMARK VINA RESULT:      -6.8      2.320      5.249
REMARK  4 active torsions:
REMARK  status: ('A' for Active; 'I' for Inactive)
REMARK    1  A    between atoms: N_4  and  C_5 
REMARK    2  A    between atoms: C_13  and  C_14 
REMARK    3  A    between atoms: N_15  and  C_17 
REMARK    4  A    between atoms: C_17  and  C_18 
ROOT
HETATM    1  C   UNL     1      18.269  51.039  44.203  1.00  0.00     0.095 C 
HETATM    2  C   UNL     1      17.857  50.302  45.416  1.00  0.00     0.144 A 
HETATM    3  N   UNL     1      17.481  49.020  45.407  1.00  0.00    -0.156 NA
HETATM    4  N   UNL     1      17.239  48.780  46.706  1.00  0.00    -0.247 N 
HETATM    5  C   UNL     1      17.384  49.930  47.453  1.00  0.00     0.156 A 
HETATM    6  N   UNL     1      17.781  50.892  46.644  1.00  0.00    -0.215 NA
ENDROOT
BRANCH   5   7
HETATM    7  C   UNL     1      17.048  50.099  48.911  1.00  0.00     0.259 C 
HETATM    8  N   UNL     1      18.124  50.720  49.804  1.00  0.00    -0.056 N 
HETATM    9  H   UNL     1      17.686  50.805  50.728  1.00  0.00     0.281 HD
HETATM   10  C   UNL     1      18.469  52.146  49.439  1.00  0.00     0.236 C 
HETATM   11  C   UNL     1      17.218  53.006  49.561  1.00  0.00     0.028 C 
HETATM   12  C   UNL     1      16.044  52.456  48.759  1.00  0.00     0.004 C 
HETATM   13  C   UNL     1      15.787  50.977  49.063  1.00  0.00     0.041 C 
BRANCH   8  14
HETATM   14  C   UNL     1      19.326  49.846  50.094  1.00  0.00     0.274 C 
BRANCH  14  15
HETATM   15  C   UNL     1      20.617  50.174  49.401  1.00  0.00    -0.033 A 
HETATM   16  C   UNL     1      21.638  50.857  50.081  1.00  0.00     0.009 A 
HETATM   17  C   UNL     1      22.847  51.145  49.446  1.00  0.00     0.001 A 
HETATM   18  C   UNL     1      23.055  50.747  48.129  1.00  0.00     0.000 A 
HETATM   19  C   UNL     1      22.060  50.051  47.447  1.00  0.00     0.001 A 
HETATM   20  C   UNL     1      20.849  49.761  48.080  1.00  0.00     0.009 A 
ENDBRANCH  14  15
ENDBRANCH   8  14
ENDBRANCH   5   7
BRANCH   4  21
HETATM   21  C   UNL     1      16.851  47.429  47.097  1.00  0.00     0.115 C 
HETATM   22  C   UNL     1      17.480  46.982  48.432  1.00  0.00     0.055 C 
HETATM   23  C   UNL     1      18.933  46.522  48.321  1.00  0.00     0.236 C 
HETATM   24  N   UNL     1      19.060  45.487  47.231  1.00  0.00    -0.075 N 
HETATM   25  H   UNL     1      18.490  44.670  47.489  1.00  0.00     0.279 HD
HETATM   26  C   UNL     1      20.479  44.966  47.145  1.00  0.00     0.269 C 
HETATM   27  C   UNL     1      18.597  46.004  45.896  1.00  0.00     0.236 C 
HETATM   28  C   UNL     1      17.129  46.409  45.987  1.00  0.00     0.055 C 
ENDBRANCH   4  21
TORSDOF 4
ENDMDL
MODEL 9
REMARK VINA RESULT:      -6.8     24.947     27.932
REMARK  4 active torsions:
REMARK  status: ('A' for Active; 'I' for Inactive)
REMARK    1  A    between atoms: N_4  and  C_5 
REMARK    2  A    between atoms: C_13  and  C_14 
REMARK    3  A    between atoms: N_15  and  C_17 
REMARK    4  A    between atoms: C_17  and  C_18 
ROOT
HETATM    1  C   UNL     1      34.764  42.495  65.799  1.00  0.00     0.095 C 
HETATM    2  C   UNL     1      35.904  43.282  65.283  1.00  0.00     0.144 A 
HETATM    3  N   UNL     1      35.873  44.608  65.126  1.00  0.00    -0.156 NA
HETATM    4  N   UNL     1      37.111  44.876  64.678  1.00  0.00    -0.247 N 
HETATM    5  C   UNL     1      37.827  43.713  64.490  1.00  0.00     0.156 A 
HETATM    6  N   UNL     1      37.072  42.704  64.878  1.00  0.00    -0.215 NA
ENDROOT
BRANCH   5   7
HETATM    7  C   UNL     1      39.188  43.591  63.857  1.00  0.00     0.259 C 
HETATM    8  N   UNL     1      40.287  42.932  64.692  1.00  0.00    -0.056 N 
HETATM    9  H   UNL     1      41.103  42.890  64.070  1.00  0.00     0.281 HD
HETATM   10  C   UNL     1      40.012  41.482  65.023  1.00  0.00     0.236 C 
HETATM   11  C   UNL     1      39.884  40.693  63.726  1.00  0.00     0.028 C 
HETATM   12  C   UNL     1      38.855  41.289  62.772  1.00  0.00     0.004 C 
HETATM   13  C   UNL     1      39.087  42.786  62.544  1.00  0.00     0.041 C 
BRANCH   8  14
HETATM   14  C   UNL     1      40.808  43.746  65.857  1.00  0.00     0.274 C 
BRANCH  14  15
HETATM   15  C   UNL     1      41.821  44.816  65.569  1.00  0.00    -0.033 A 
HETATM   16  C   UNL     1      42.164  45.758  66.552  1.00  0.00     0.009 A 
HETATM   17  C   UNL     1      43.120  46.740  66.294  1.00  0.00     0.001 A 
HETATM   18  C   UNL     1      43.752  46.790  65.056  1.00  0.00     0.000 A 
HETATM   19  C   UNL     1      43.439  45.851  64.076  1.00  0.00     0.001 A 
HETATM   20  C   UNL     1      42.483  44.865  64.332  1.00  0.00     0.009 A 
ENDBRANCH  14  15
ENDBRANCH   8  14
ENDBRANCH   5   7
BRANCH   4  21
HETATM   21  C   UNL     1      37.473  46.269  64.443  1.00  0.00     0.115 C 
HETATM   22  C   UNL     1      38.709  46.718  65.249  1.00  0.00     0.055 C 
HETATM   23  C   UNL     1      38.421  47.049  66.712  1.00  0.00     0.236 C 
HETATM   24  N   UNL     1      37.273  48.025  66.800  1.00  0.00    -0.075 N 
HETATM   25  H   UNL     1      37.548  48.896  66.327  1.00  0.00     0.279 HD
HETATM   26  C   UNL     1      37.010  48.421  68.236  1.00  0.00     0.269 C 
HETATM   27  C   UNL     1      36.022  47.493  66.153  1.00  0.00     0.236 C 
HETATM   28  C   UNL     1      36.289  47.216  64.677  1.00  0.00     0.055 C 
ENDBRANCH   4  21
TORSDOF 4
ENDMDL
MODEL 10
REMARK VINA RESULT:      -6.8      2.446      8.205
REMARK  4 active torsions:
REMARK  status: ('A' for Active; 'I' for Inactive)
REMARK    1  A    between atoms: N_4  and  C_5 
REMARK    2  A    between atoms: C_13  and  C_14 
REMARK    3  A    between atoms: N_15  and  C_17 
REMARK    4  A    between atoms: C_17  and  C_18 
ROOT
HETATM    1  C   UNL     1      19.622  47.189  45.856  1.00  0.00     0.095 C 
HETATM    2  C   UNL     1      19.971  48.052  47.004  1.00  0.00     0.144 A 
HETATM    3  N   UNL     1      19.228  49.090  47.398  1.00  0.00    -0.156 NA
HETATM    4  N   UNL     1      19.903  49.538  48.470  1.00  0.00    -0.247 N 
HETATM    5  C   UNL     1      21.071  48.830  48.646  1.00  0.00     0.156 A 
HETATM    6  N   UNL     1      21.116  47.885  47.727  1.00  0.00    -0.215 NA
ENDROOT
BRANCH   5   7
HETATM    7  C   UNL     1      22.164  49.134  49.637  1.00  0.00     0.259 C 
HETATM    8  N   UNL     1      23.543  48.535  49.357  1.00  0.00    -0.056 N 
HETATM    9  H   UNL     1      24.148  48.904  50.099  1.00  0.00     0.281 HD
HETATM   10  C   UNL     1      24.182  49.047  48.085  1.00  0.00     0.236 C 
HETATM   11  C   UNL     1      24.348  50.558  48.188  1.00  0.00     0.028 C 
HETATM   12  C   UNL     1      23.046  51.273  48.527  1.00  0.00     0.004 C 
HETATM   13  C   UNL     1      22.360  50.661  49.752  1.00  0.00     0.041 C 
BRANCH   8  14
HETATM   14  C   UNL     1      23.665  47.039  49.553  1.00  0.00     0.274 C 
BRANCH  14  15
HETATM   15  C   UNL     1      24.529  46.546  50.677  1.00  0.00    -0.033 A 
HETATM   16  C   UNL     1      24.493  45.197  51.067  1.00  0.00     0.009 A 
HETATM   17  C   UNL     1      25.310  44.733  52.098  1.00  0.00     0.001 A 
HETATM   18  C   UNL     1      26.179  45.604  52.746  1.00  0.00     0.000 A 
HETATM   19  C   UNL     1      26.242  46.940  52.358  1.00  0.00     0.001 A 
HETATM   20  C   UNL     1      25.426  47.409  51.326  1.00  0.00     0.009 A 
ENDBRANCH  14  15
ENDBRANCH   8  14
ENDBRANCH   5   7
BRANCH   4  21
HETATM   21  C   UNL     1      19.344  50.660  49.216  1.00  0.00     0.115 C 
HETATM   22  C   UNL     1      17.946  50.364  49.797  1.00  0.00     0.055 C 
HETATM   23  C   UNL     1      16.806  50.482  48.786  1.00  0.00     0.236 C 
HETATM   24  N   UNL     1      16.883  51.813  48.080  1.00  0.00    -0.075 N 
HETATM   25  H   UNL     1      16.764  52.560  48.778  1.00  0.00     0.279 HD
HETATM   26  C   UNL     1      15.726  51.982  47.120  1.00  0.00     0.269 C 
HETATM   27  C   UNL     1      18.199  52.010  47.375  1.00  0.00     0.236 C 
HETATM   28  C   UNL     1      19.335  51.952  48.390  1.00  0.00     0.055 C 
ENDBRANCH   4  21
TORSDOF 4
ENDMDL
