MODEL 1
REMARK VINA RESULT:     -10.0      0.000      0.000
REMARK  7 active torsions:
REMARK  status: ('A' for Active; 'I' for Inactive)
REMARK    1  A    between atoms: C_2  and  C_3 
REMARK    2  A    between atoms: C_6  and  N_7 
REMARK       I    between atoms: N_7  and  C_8 
REMARK       I    between atoms: C_8  and  N_9 
REMARK    3  A    between atoms: N_13  and  C_14 
REMARK    4  A    between atoms: N_21  and  C_22 
REMARK    5  A    between atoms: C_22  and  C_23 
REMARK       I    between atoms: C_23  and  N_24 
REMARK    6  A    between atoms: N_24  and  C_25 
REMARK    7  A    between atoms: C_25  and  C_26 
ROOT
HETATM    1  N   UNL     1      23.139  48.004  49.950  1.00  0.00    -0.309 N 
HETATM    2  C   UNL     1      24.441  47.790  49.560  1.00  0.00     0.322 C 
HETATM    3  N   UNL     1      25.017  46.608  50.046  1.00  0.00    -0.334 N 
HETATM    4  C   UNL     1      26.364  46.298  49.574  1.00  0.00     0.130 C 
HETATM    5  C   UNL     1      27.214  45.662  50.666  1.00  0.00     0.061 C 
HETATM    6  C   UNL     1      26.488  44.522  51.401  1.00  0.00     0.118 C 
HETATM    7  N   UNL     1      27.231  44.089  52.625  1.00  0.00    -0.346 N 
HETATM    8  C   UNL     1      27.945  42.841  52.370  1.00  0.00     0.254 C 
HETATM    9  N   UNL     1      27.410  42.357  51.134  1.00  0.00    -0.325 N 
HETATM   10  C   UNL     1      26.600  43.275  50.501  1.00  0.00     0.250 C 
HETATM   11  O   UNL     1      26.104  43.129  49.393  1.00  0.00    -0.270 OA
HETATM   12  C   UNL     1      24.999  44.761  51.688  1.00  0.00     0.061 C 
HETATM   13  C   UNL     1      24.276  45.441  50.527  1.00  0.00     0.130 C 
HETATM   14  O   UNL     1      25.081  48.560  48.848  1.00  0.00    -0.247 OA
HETATM   15  H   UNL     1      22.824  47.492  50.756  1.00  0.00     0.170 HD
ENDROOT
BRANCH   7  16
HETATM   16  C   UNL     1      27.593  44.881  53.705  1.00  0.00     0.032 A 
HETATM   17  C   UNL     1      26.901  46.048  54.072  1.00  0.00     0.029 A 
HETATM   18  C   UNL     1      27.292  46.858  55.149  1.00  0.00     0.002 A 
HETATM   19  C   UNL     1      28.391  46.511  55.919  1.00  0.00     0.000 A 
HETATM   20  C   UNL     1      29.086  45.351  55.614  1.00  0.00     0.002 A 
HETATM   21  C   UNL     1      28.687  44.552  54.533  1.00  0.00     0.029 A 
ENDBRANCH   7  16
BRANCH   9  22
HETATM   22  C   UNL     1      28.054  41.270  50.415  1.00  0.00     0.230 C 
BRANCH  22  23
HETATM   23  C   UNL     1      27.216  40.009  50.225  1.00  0.00     0.235 C 
HETATM   24  N   UNL     1      27.861  38.949  49.638  1.00  0.00    -0.354 N 
HETATM   25  H   UNL     1      28.845  39.019  49.404  1.00  0.00     0.162 HD
HETATM   26  O   UNL     1      26.085  39.912  50.699  1.00  0.00    -0.272 OA
BRANCH  24  27
HETATM   27  C   UNL     1      27.244  37.644  49.634  1.00  0.00     0.187 C 
BRANCH  27  28
HETATM   28  C   UNL     1      27.311  37.010  48.294  1.00  0.00     0.070 A 
HETATM   29  O   UNL     1      28.316  37.386  47.447  1.00  0.00    -0.325 OA
HETATM   30  C   UNL     1      28.153  36.679  46.299  1.00  0.00     0.142 A 
HETATM   31  C   UNL     1      27.062  35.848  46.394  1.00  0.00     0.027 A 
HETATM   32  C   UNL     1      26.517  36.059  47.682  1.00  0.00     0.036 A 
ENDBRANCH  27  28
ENDBRANCH  24  27
ENDBRANCH  22  23
ENDBRANCH   9  22
BRANCH   1  33
HETATM   33  C   UNL     1      22.241  48.981  49.468  1.00  0.00     0.036 A 
HETATM   34  C   UNL     1      22.447  50.355  49.572  1.00  0.00     0.030 A 
HETATM   35  C   UNL     1      21.526  51.260  49.027  1.00  0.00     0.010 A 
HETATM   36  C   UNL     1      20.391  50.810  48.343  1.00  0.00    -0.055 A 
HETATM   37  C   UNL     1      20.178  49.429  48.256  1.00  0.00     0.010 A 
HETATM   38  C   UNL     1      21.090  48.525  48.815  1.00  0.00     0.030 A 
BRANCH  36  39
HETATM   39  C   UNL     1      19.392  51.767  47.717  1.00  0.00     0.010 C 
HETATM   40  C   UNL     1      18.502  52.466  48.750  1.00  0.00     0.015 C 
HETATM   41  C   UNL     1      18.541  51.050  46.668  1.00  0.00     0.015 C 
ENDBRANCH  36  39
ENDBRANCH   1  33
TORSDOF 7
ENDMDL
MODEL 2
REMARK VINA RESULT:      -9.9      3.252     11.005
REMARK  7 active torsions:
REMARK  status: ('A' for Active; 'I' for Inactive)
REMARK    1  A    between atoms: C_2  and  C_3 
REMARK    2  A    between atoms: C_6  and  N_7 
REMARK       I    between atoms: N_7  and  C_8 
REMARK       I    between atoms: C_8  and  N_9 
REMARK    3  A    between atoms: N_13  and  C_14 
REMARK    4  A    between atoms: N_21  and  C_22 
REMARK    5  A    between atoms: C_22  and  C_23 
REMARK       I    between atoms: C_23  and  N_24 
REMARK    6  A    between atoms: N_24  and  C_25 
REMARK    7  A    between atoms: C_25  and  C_26 
ROOT
HETATM    1  N   UNL     1      26.995  43.816  52.639  1.00  0.00    -0.309 N 
HETATM    2  C   UNL     1      27.015  44.360  51.375  1.00  0.00     0.322 C 
HETATM    3  N   UNL     1      25.780  44.355  50.712  1.00  0.00    -0.334 N 
HETATM    4  C   UNL     1      25.739  45.012  49.407  1.00  0.00     0.130 C 
HETATM    5  C   UNL     1      24.832  44.274  48.431  1.00  0.00     0.061 C 
HETATM    6  C   UNL     1      23.465  43.917  49.039  1.00  0.00     0.118 C 
HETATM    7  N   UNL     1      22.697  42.979  48.162  1.00  0.00    -0.346 N 
HETATM    8  C   UNL     1      21.659  43.701  47.432  1.00  0.00     0.254 C 
HETATM    9  N   UNL     1      21.584  44.981  48.069  1.00  0.00    -0.325 N 
HETATM   10  C   UNL     1      22.604  45.194  48.971  1.00  0.00     0.250 C 
HETATM   11  O   UNL     1      22.806  46.241  49.569  1.00  0.00    -0.270 OA
HETATM   12  C   UNL     1      23.492  43.446  50.500  1.00  0.00     0.061 C 
HETATM   13  C   UNL     1      24.471  44.242  51.358  1.00  0.00     0.130 C 
HETATM   14  O   UNL     1      28.021  44.816  50.838  1.00  0.00    -0.247 OA
HETATM   15  H   UNL     1      26.223  43.210  52.854  1.00  0.00     0.170 HD
ENDROOT
BRANCH   7  16
HETATM   16  C   UNL     1      23.102  41.726  47.724  1.00  0.00     0.032 A 
HETATM   17  C   UNL     1      22.212  40.755  47.235  1.00  0.00     0.029 A 
HETATM   18  C   UNL     1      22.629  39.481  46.820  1.00  0.00     0.002 A 
HETATM   19  C   UNL     1      23.972  39.139  46.861  1.00  0.00     0.000 A 
HETATM   20  C   UNL     1      24.891  40.076  47.307  1.00  0.00     0.002 A 
HETATM   21  C   UNL     1      24.460  41.345  47.722  1.00  0.00     0.029 A 
ENDBRANCH   7  16
BRANCH   9  22
HETATM   22  C   UNL     1      20.849  46.076  47.460  1.00  0.00     0.230 C 
BRANCH  22  23
HETATM   23  C   UNL     1      19.692  46.640  48.282  1.00  0.00     0.235 C 
HETATM   24  N   UNL     1      20.034  47.573  49.228  1.00  0.00    -0.354 N 
HETATM   25  H   UNL     1      20.996  47.881  49.314  1.00  0.00     0.162 HD
HETATM   26  O   UNL     1      18.522  46.375  48.009  1.00  0.00    -0.272 OA
BRANCH  24  27
HETATM   27  C   UNL     1      19.003  48.342  49.885  1.00  0.00     0.187 C 
BRANCH  27  28
HETATM   28  C   UNL     1      19.139  49.793  49.606  1.00  0.00     0.070 A 
HETATM   29  O   UNL     1      18.378  50.668  50.331  1.00  0.00    -0.325 OA
HETATM   30  C   UNL     1      18.675  51.916  49.884  1.00  0.00     0.142 A 
HETATM   31  C   UNL     1      19.619  51.860  48.886  1.00  0.00     0.027 A 
HETATM   32  C   UNL     1      19.921  50.490  48.706  1.00  0.00     0.036 A 
ENDBRANCH  27  28
ENDBRANCH  24  27
ENDBRANCH  22  23
ENDBRANCH   9  22
BRANCH   1  33
HETATM   33  C   UNL     1      28.014  43.862  53.616  1.00  0.00     0.036 A 
HETATM   34  C   UNL     1      28.980  42.871  53.790  1.00  0.00     0.030 A 
HETATM   35  C   UNL     1      29.985  43.014  54.755  1.00  0.00     0.010 A 
HETATM   36  C   UNL     1      30.063  44.162  55.551  1.00  0.00    -0.055 A 
HETATM   37  C   UNL     1      29.081  45.146  55.387  1.00  0.00     0.010 A 
HETATM   38  C   UNL     1      28.067  44.997  54.433  1.00  0.00     0.030 A 
BRANCH  36  39
HETATM   39  C   UNL     1      31.159  44.356  56.584  1.00  0.00     0.010 C 
HETATM   40  C   UNL     1      31.761  43.036  57.077  1.00  0.00     0.015 C 
HETATM   41  C   UNL     1      30.650  45.189  57.762  1.00  0.00     0.015 C 
ENDBRANCH  36  39
ENDBRANCH   1  33
TORSDOF 7
ENDMDL
MODEL 3
REMARK VINA RESULT:      -9.9      3.835      9.900
REMARK  7 active torsions:
REMARK  status: ('A' for Active; 'I' for Inactive)
REMARK    1  A    between atoms: C_2  and  C_3 
REMARK    2  A    between atoms: C_6  and  N_7 
REMARK       I    between atoms: N_7  and  C_8 
REMARK       I    between atoms: C_8  and  N_9 
REMARK    3  A    between atoms: N_13  and  C_14 
REMARK    4  A    between atoms: N_21  and  C_22 
REMARK    5  A    between atoms: C_22  and  C_23 
REMARK       I    between atoms: C_23  and  N_24 
REMARK    6  A    between atoms: N_24  and  C_25 
REMARK    7  A    between atoms: C_25  and  C_26 
ROOT
HETATM    1  N   UNL     1      27.414  44.552  52.652  1.00  0.00    -0.309 N 
HETATM    2  C   UNL     1      26.120  44.084  52.629  1.00  0.00     0.322 C 
HETATM    3  N   UNL     1      25.502  44.120  51.371  1.00  0.00    -0.334 N 
HETATM    4  C   UNL     1      24.163  43.540  51.286  1.00  0.00     0.130 C 
HETATM    5  C   UNL     1      23.266  44.328  50.342  1.00  0.00     0.061 C 
HETATM    6  C   UNL     1      23.941  44.641  48.996  1.00  0.00     0.118 C 
HETATM    7  N   UNL     1      23.150  45.624  48.192  1.00  0.00    -0.346 N 
HETATM    8  C   UNL     1      22.415  44.939  47.132  1.00  0.00     0.254 C 
HETATM    9  N   UNL     1      22.978  43.624  47.086  1.00  0.00    -0.325 N 
HETATM   10  C   UNL     1      23.829  43.364  48.138  1.00  0.00     0.250 C 
HETATM   11  O   UNL     1      24.356  42.285  48.366  1.00  0.00    -0.270 OA
HETATM   12  C   UNL     1      25.426  45.025  49.073  1.00  0.00     0.061 C 
HETATM   13  C   UNL     1      26.200  44.186  50.086  1.00  0.00     0.130 C 
HETATM   14  O   UNL     1      25.521  43.667  53.617  1.00  0.00    -0.247 OA
HETATM   15  H   UNL     1      27.691  45.139  51.885  1.00  0.00     0.170 HD
ENDROOT
BRANCH   7  16
HETATM   16  C   UNL     1      22.772  46.903  48.577  1.00  0.00     0.032 A 
HETATM   17  C   UNL     1      23.685  47.880  49.008  1.00  0.00     0.029 A 
HETATM   18  C   UNL     1      23.290  49.162  49.421  1.00  0.00     0.002 A 
HETATM   19  C   UNL     1      21.952  49.521  49.395  1.00  0.00     0.000 A 
HETATM   20  C   UNL     1      21.017  48.600  48.947  1.00  0.00     0.002 A 
HETATM   21  C   UNL     1      21.425  47.321  48.540  1.00  0.00     0.029 A 
ENDBRANCH   7  16
BRANCH   9  22
HETATM   22  C   UNL     1      22.332  42.561  46.334  1.00  0.00     0.230 C 
BRANCH  22  23
HETATM   23  C   UNL     1      21.152  42.984  45.463  1.00  0.00     0.235 C 
HETATM   24  N   UNL     1      19.924  42.970  46.077  1.00  0.00    -0.354 N 
HETATM   25  H   UNL     1      19.851  42.737  47.061  1.00  0.00     0.162 HD
HETATM   26  O   UNL     1      21.318  43.441  44.333  1.00  0.00    -0.272 OA
BRANCH  24  27
HETATM   27  C   UNL     1      18.788  43.579  45.427  1.00  0.00     0.187 C 
BRANCH  27  28
HETATM   28  C   UNL     1      18.350  44.811  46.128  1.00  0.00     0.070 A 
HETATM   29  O   UNL     1      17.893  44.701  47.412  1.00  0.00    -0.325 OA
HETATM   30  C   UNL     1      17.550  45.950  47.819  1.00  0.00     0.142 A 
HETATM   31  C   UNL     1      17.782  46.865  46.820  1.00  0.00     0.027 A 
HETATM   32  C   UNL     1      18.300  46.132  45.727  1.00  0.00     0.036 A 
ENDBRANCH  27  28
ENDBRANCH  24  27
ENDBRANCH  22  23
ENDBRANCH   9  22
BRANCH   1  33
HETATM   33  C   UNL     1      28.349  44.456  53.706  1.00  0.00     0.036 A 
HETATM   34  C   UNL     1      29.293  43.437  53.827  1.00  0.00     0.030 A 
HETATM   35  C   UNL     1      30.216  43.438  54.880  1.00  0.00     0.010 A 
HETATM   36  C   UNL     1      30.232  44.472  55.824  1.00  0.00    -0.055 A 
HETATM   37  C   UNL     1      29.272  45.484  55.710  1.00  0.00     0.010 A 
HETATM   38  C   UNL     1      28.339  45.474  54.666  1.00  0.00     0.030 A 
BRANCH  36  39
HETATM   39  C   UNL     1      31.240  44.514  56.959  1.00  0.00     0.010 C 
HETATM   40  C   UNL     1      31.827  43.138  57.293  1.00  0.00     0.015 C 
HETATM   41  C   UNL     1      30.625  45.154  58.204  1.00  0.00     0.015 C 
ENDBRANCH  36  39
ENDBRANCH   1  33
TORSDOF 7
ENDMDL
MODEL 4
REMARK VINA RESULT:      -9.7      3.010      8.409
REMARK  7 active torsions:
REMARK  status: ('A' for Active; 'I' for Inactive)
REMARK    1  A    between atoms: C_2  and  C_3 
REMARK    2  A    between atoms: C_6  and  N_7 
REMARK       I    between atoms: N_7  and  C_8 
REMARK       I    between atoms: C_8  and  N_9 
REMARK    3  A    between atoms: N_13  and  C_14 
REMARK    4  A    between atoms: N_21  and  C_22 
REMARK    5  A    between atoms: C_22  and  C_23 
REMARK       I    between atoms: C_23  and  N_24 
REMARK    6  A    between atoms: N_24  and  C_25 
REMARK    7  A    between atoms: C_25  and  C_26 
ROOT
HETATM    1  N   UNL     1      27.436  44.737  52.760  1.00  0.00    -0.309 N 
HETATM    2  C   UNL     1      26.198  44.137  52.741  1.00  0.00     0.322 C 
HETATM    3  N   UNL     1      25.610  44.037  51.473  1.00  0.00    -0.334 N 
HETATM    4  C   UNL     1      24.340  43.317  51.399  1.00  0.00     0.130 C 
HETATM    5  C   UNL     1      23.389  43.953  50.394  1.00  0.00     0.061 C 
HETATM    6  C   UNL     1      24.060  44.257  49.044  1.00  0.00     0.118 C 
HETATM    7  N   UNL     1      23.191  45.105  48.170  1.00  0.00    -0.346 N 
HETATM    8  C   UNL     1      22.556  44.288  47.139  1.00  0.00     0.254 C 
HETATM    9  N   UNL     1      23.252  43.038  47.180  1.00  0.00    -0.325 N 
HETATM   10  C   UNL     1      24.100  42.928  48.261  1.00  0.00     0.250 C 
HETATM   11  O   UNL     1      24.730  41.925  48.562  1.00  0.00    -0.270 OA
HETATM   12  C   UNL     1      25.495  44.797  49.124  1.00  0.00     0.061 C 
HETATM   13  C   UNL     1      26.327  44.101  50.198  1.00  0.00     0.130 C 
HETATM   14  O   UNL     1      25.622  43.717  53.742  1.00  0.00    -0.247 OA
HETATM   15  H   UNL     1      27.670  45.306  51.964  1.00  0.00     0.170 HD
ENDROOT
BRANCH   7  16
HETATM   16  C   UNL     1      22.675  46.358  48.471  1.00  0.00     0.032 A 
HETATM   17  C   UNL     1      23.467  47.432  48.913  1.00  0.00     0.029 A 
HETATM   18  C   UNL     1      22.931  48.687  49.242  1.00  0.00     0.002 A 
HETATM   19  C   UNL     1      21.570  48.918  49.117  1.00  0.00     0.000 A 
HETATM   20  C   UNL     1      20.754  47.897  48.655  1.00  0.00     0.002 A 
HETATM   21  C   UNL     1      21.302  46.647  48.332  1.00  0.00     0.029 A 
ENDBRANCH   7  16
BRANCH   9  22
HETATM   22  C   UNL     1      22.736  41.873  46.481  1.00  0.00     0.230 C 
BRANCH  22  23
HETATM   23  C   UNL     1      23.774  41.015  45.763  1.00  0.00     0.235 C 
HETATM   24  N   UNL     1      24.974  41.627  45.500  1.00  0.00    -0.354 N 
HETATM   25  H   UNL     1      25.143  42.573  45.822  1.00  0.00     0.162 HD
HETATM   26  O   UNL     1      23.589  39.814  45.566  1.00  0.00    -0.272 OA
BRANCH  24  27
HETATM   27  C   UNL     1      26.099  40.841  45.050  1.00  0.00     0.187 C 
BRANCH  27  28
HETATM   28  C   UNL     1      26.934  40.378  46.186  1.00  0.00     0.070 A 
HETATM   29  O   UNL     1      26.768  39.097  46.634  1.00  0.00    -0.325 OA
HETATM   30  C   UNL     1      27.628  38.925  47.671  1.00  0.00     0.142 A 
HETATM   31  C   UNL     1      28.350  40.073  47.895  1.00  0.00     0.027 A 
HETATM   32  C   UNL     1      27.904  41.012  46.937  1.00  0.00     0.036 A 
ENDBRANCH  27  28
ENDBRANCH  24  27
ENDBRANCH  22  23
ENDBRANCH   9  22
BRANCH   1  33
HETATM   33  C   UNL     1      28.351  44.799  53.834  1.00  0.00     0.036 A 
HETATM   34  C   UNL     1      28.387  45.824  54.777  1.00  0.00     0.030 A 
HETATM   35  C   UNL     1      29.299  45.788  55.839  1.00  0.00     0.010 A 
HETATM   36  C   UNL     1      30.180  44.712  55.997  1.00  0.00    -0.055 A 
HETATM   37  C   UNL     1      30.155  43.693  55.038  1.00  0.00     0.010 A 
HETATM   38  C   UNL     1      29.253  43.737  53.967  1.00  0.00     0.030 A 
BRANCH  36  39
HETATM   39  C   UNL     1      31.159  44.632  57.155  1.00  0.00     0.010 C 
HETATM   40  C   UNL     1      31.788  43.243  57.316  1.00  0.00     0.015 C 
HETATM   41  C   UNL     1      30.492  45.076  58.458  1.00  0.00     0.015 C 
ENDBRANCH  36  39
ENDBRANCH   1  33
TORSDOF 7
ENDMDL
MODEL 5
REMARK VINA RESULT:      -9.2      5.138      9.460
REMARK  7 active torsions:
REMARK  status: ('A' for Active; 'I' for Inactive)
REMARK    1  A    between atoms: C_2  and  C_3 
REMARK    2  A    between atoms: C_6  and  N_7 
REMARK       I    between atoms: N_7  and  C_8 
REMARK       I    between atoms: C_8  and  N_9 
REMARK    3  A    between atoms: N_13  and  C_14 
REMARK    4  A    between atoms: N_21  and  C_22 
REMARK    5  A    between atoms: C_22  and  C_23 
REMARK       I    between atoms: C_23  and  N_24 
REMARK    6  A    between atoms: N_24  and  C_25 
REMARK    7  A    between atoms: C_25  and  C_26 
ROOT
HETATM    1  N   UNL     1      27.685  42.640  51.865  1.00  0.00    -0.309 N 
HETATM    2  C   UNL     1      27.073  43.345  50.854  1.00  0.00     0.322 C 
HETATM    3  N   UNL     1      26.201  42.594  50.054  1.00  0.00    -0.334 N 
HETATM    4  C   UNL     1      25.457  43.329  49.033  1.00  0.00     0.130 C 
HETATM    5  C   UNL     1      25.300  42.517  47.755  1.00  0.00     0.061 C 
HETATM    6  C   UNL     1      24.825  41.077  48.015  1.00  0.00     0.118 C 
HETATM    7  N   UNL     1      24.924  40.229  46.787  1.00  0.00    -0.346 N 
HETATM    8  C   UNL     1      23.606  40.056  46.182  1.00  0.00     0.254 C 
HETATM    9  N   UNL     1      22.683  40.518  47.174  1.00  0.00    -0.325 N 
HETATM   10  C   UNL     1      23.300  41.147  48.233  1.00  0.00     0.250 C 
HETATM   11  O   UNL     1      22.721  41.705  49.154  1.00  0.00    -0.270 OA
HETATM   12  C   UNL     1      25.443  40.387  49.240  1.00  0.00     0.061 C 
HETATM   13  C   UNL     1      25.581  41.324  50.437  1.00  0.00     0.130 C 
HETATM   14  O   UNL     1      27.260  44.540  50.639  1.00  0.00    -0.247 OA
HETATM   15  H   UNL     1      27.705  41.640  51.763  1.00  0.00     0.170 HD
ENDROOT
BRANCH   7  16
HETATM   16  C   UNL     1      26.064  39.976  46.037  1.00  0.00     0.032 A 
HETATM   17  C   UNL     1      26.449  40.756  44.933  1.00  0.00     0.029 A 
HETATM   18  C   UNL     1      27.590  40.475  44.164  1.00  0.00     0.002 A 
HETATM   19  C   UNL     1      28.405  39.403  44.492  1.00  0.00     0.000 A 
HETATM   20  C   UNL     1      28.081  38.624  45.593  1.00  0.00     0.002 A 
HETATM   21  C   UNL     1      26.937  38.914  46.351  1.00  0.00     0.029 A 
ENDBRANCH   7  16
BRANCH   9  22
HETATM   22  C   UNL     1      21.287  40.749  46.845  1.00  0.00     0.230 C 
BRANCH  22  23
HETATM   23  C   UNL     1      20.452  39.502  46.567  1.00  0.00     0.235 C 
HETATM   24  N   UNL     1      20.139  38.738  47.664  1.00  0.00    -0.354 N 
HETATM   25  H   UNL     1      20.419  39.041  48.591  1.00  0.00     0.162 HD
HETATM   26  O   UNL     1      19.977  39.281  45.454  1.00  0.00    -0.272 OA
BRANCH  24  27
HETATM   27  C   UNL     1      19.160  37.683  47.551  1.00  0.00     0.187 C 
BRANCH  27  28
HETATM   28  C   UNL     1      19.585  36.461  48.279  1.00  0.00     0.070 A 
HETATM   29  O   UNL     1      20.858  36.001  48.088  1.00  0.00    -0.325 OA
HETATM   30  C   UNL     1      20.993  34.882  48.846  1.00  0.00     0.142 A 
HETATM   31  C   UNL     1      19.828  34.616  49.526  1.00  0.00     0.027 A 
HETATM   32  C   UNL     1      18.918  35.635  49.162  1.00  0.00     0.036 A 
ENDBRANCH  27  28
ENDBRANCH  24  27
ENDBRANCH  22  23
ENDBRANCH   9  22
BRANCH   1  33
HETATM   33  C   UNL     1      28.443  43.152  52.940  1.00  0.00     0.036 A 
HETATM   34  C   UNL     1      27.980  44.111  53.840  1.00  0.00     0.030 A 
HETATM   35  C   UNL     1      28.781  44.534  54.909  1.00  0.00     0.010 A 
HETATM   36  C   UNL     1      30.054  43.990  55.117  1.00  0.00    -0.055 A 
HETATM   37  C   UNL     1      30.523  43.041  54.201  1.00  0.00     0.010 A 
HETATM   38  C   UNL     1      29.728  42.629  53.123  1.00  0.00     0.030 A 
BRANCH  36  39
HETATM   39  C   UNL     1      30.931  44.409  56.283  1.00  0.00     0.010 C 
HETATM   40  C   UNL     1      31.427  43.224  57.118  1.00  0.00     0.015 C 
HETATM   41  C   UNL     1      30.206  45.426  57.166  1.00  0.00     0.015 C 
ENDBRANCH  36  39
ENDBRANCH   1  33
TORSDOF 7
ENDMDL
MODEL 6
REMARK VINA RESULT:      -9.2      2.034      2.259
REMARK  7 active torsions:
REMARK  status: ('A' for Active; 'I' for Inactive)
REMARK    1  A    between atoms: C_2  and  C_3 
REMARK    2  A    between atoms: C_6  and  N_7 
REMARK       I    between atoms: N_7  and  C_8 
REMARK       I    between atoms: C_8  and  N_9 
REMARK    3  A    between atoms: N_13  and  C_14 
REMARK    4  A    between atoms: N_21  and  C_22 
REMARK    5  A    between atoms: C_22  and  C_23 
REMARK       I    between atoms: C_23  and  N_24 
REMARK    6  A    between atoms: N_24  and  C_25 
REMARK    7  A    between atoms: C_25  and  C_26 
ROOT
HETATM    1  N   UNL     1      23.351  47.636  50.036  1.00  0.00    -0.309 N 
HETATM    2  C   UNL     1      24.585  47.246  49.567  1.00  0.00     0.322 C 
HETATM    3  N   UNL     1      25.077  46.056  50.118  1.00  0.00    -0.334 N 
HETATM    4  C   UNL     1      26.338  45.558  49.574  1.00  0.00     0.130 C 
HETATM    5  C   UNL     1      27.211  44.932  50.653  1.00  0.00     0.061 C 
HETATM    6  C   UNL     1      26.440  43.948  51.550  1.00  0.00     0.118 C 
HETATM    7  N   UNL     1      27.240  43.544  52.748  1.00  0.00    -0.346 N 
HETATM    8  C   UNL     1      27.798  42.208  52.560  1.00  0.00     0.254 C 
HETATM    9  N   UNL     1      27.109  41.679  51.422  1.00  0.00    -0.325 N 
HETATM   10  C   UNL     1      26.344  42.621  50.769  1.00  0.00     0.250 C 
HETATM   11  O   UNL     1      25.739  42.434  49.723  1.00  0.00    -0.270 OA
HETATM   12  C   UNL     1      25.015  44.374  51.928  1.00  0.00     0.061 C 
HETATM   13  C   UNL     1      24.266  45.024  50.768  1.00  0.00     0.130 C 
HETATM   14  O   UNL     1      25.234  47.876  48.736  1.00  0.00    -0.247 OA
HETATM   15  H   UNL     1      23.058  47.235  50.910  1.00  0.00     0.170 HD
ENDROOT
BRANCH   7  16
HETATM   16  C   UNL     1      27.776  44.384  53.714  1.00  0.00     0.032 A 
HETATM   17  C   UNL     1      27.199  45.615  54.072  1.00  0.00     0.029 A 
HETATM   18  C   UNL     1      27.764  46.470  55.031  1.00  0.00     0.002 A 
HETATM   19  C   UNL     1      28.929  46.107  55.688  1.00  0.00     0.000 A 
HETATM   20  C   UNL     1      29.517  44.888  55.391  1.00  0.00     0.002 A 
HETATM   21  C   UNL     1      28.944  44.044  54.428  1.00  0.00     0.029 A 
ENDBRANCH   7  16
BRANCH   9  22
HETATM   22  C   UNL     1      27.572  40.469  50.765  1.00  0.00     0.230 C 
BRANCH  22  23
HETATM   23  C   UNL     1      27.625  40.518  49.240  1.00  0.00     0.235 C 
HETATM   24  N   UNL     1      26.551  39.964  48.589  1.00  0.00    -0.354 N 
HETATM   25  H   UNL     1      25.768  39.599  49.120  1.00  0.00     0.162 HD
HETATM   26  O   UNL     1      28.505  41.141  48.648  1.00  0.00    -0.272 OA
BRANCH  24  27
HETATM   27  C   UNL     1      26.384  40.172  47.170  1.00  0.00     0.187 C 
BRANCH  27  28
HETATM   28  C   UNL     1      24.959  40.369  46.808  1.00  0.00     0.070 A 
HETATM   29  O   UNL     1      24.139  39.275  46.779  1.00  0.00    -0.325 OA
HETATM   30  C   UNL     1      22.906  39.713  46.416  1.00  0.00     0.142 A 
HETATM   31  C   UNL     1      22.916  41.073  46.215  1.00  0.00     0.027 A 
HETATM   32  C   UNL     1      24.240  41.499  46.470  1.00  0.00     0.036 A 
ENDBRANCH  27  28
ENDBRANCH  24  27
ENDBRANCH  22  23
ENDBRANCH   9  22
BRANCH   1  33
HETATM   33  C   UNL     1      22.519  48.660  49.533  1.00  0.00     0.036 A 
HETATM   34  C   UNL     1      22.874  50.007  49.483  1.00  0.00     0.030 A 
HETATM   35  C   UNL     1      22.007  50.955  48.927  1.00  0.00     0.010 A 
HETATM   36  C   UNL     1      20.773  50.575  48.385  1.00  0.00    -0.055 A 
HETATM   37  C   UNL     1      20.411  49.225  48.454  1.00  0.00     0.010 A 
HETATM   38  C   UNL     1      21.272  48.279  49.024  1.00  0.00     0.030 A 
BRANCH  36  39
HETATM   39  C   UNL     1      19.826  51.578  47.750  1.00  0.00     0.010 C 
HETATM   40  C   UNL     1      19.018  52.377  48.779  1.00  0.00     0.015 C 
HETATM   41  C   UNL     1      18.895  50.885  46.754  1.00  0.00     0.015 C 
ENDBRANCH  36  39
ENDBRANCH   1  33
TORSDOF 7
ENDMDL
MODEL 7
REMARK VINA RESULT:      -9.1      4.566     11.056
REMARK  7 active torsions:
REMARK  status: ('A' for Active; 'I' for Inactive)
REMARK    1  A    between atoms: C_2  and  C_3 
REMARK    2  A    between atoms: C_6  and  N_7 
REMARK       I    between atoms: N_7  and  C_8 
REMARK       I    between atoms: C_8  and  N_9 
REMARK    3  A    between atoms: N_13  and  C_14 
REMARK    4  A    between atoms: N_21  and  C_22 
REMARK    5  A    between atoms: C_22  and  C_23 
REMARK       I    between atoms: C_23  and  N_24 
REMARK    6  A    between atoms: N_24  and  C_25 
REMARK    7  A    between atoms: C_25  and  C_26 
ROOT
HETATM    1  N   UNL     1      24.792  44.186  50.225  1.00  0.00    -0.309 N 
HETATM    2  C   UNL     1      24.046  45.279  49.846  1.00  0.00     0.322 C 
HETATM    3  N   UNL     1      23.025  45.005  48.926  1.00  0.00    -0.334 N 
HETATM    4  C   UNL     1      22.149  46.121  48.575  1.00  0.00     0.130 C 
HETATM    5  C   UNL     1      21.748  46.083  47.106  1.00  0.00     0.061 C 
HETATM    6  C   UNL     1      21.269  44.693  46.652  1.00  0.00     0.118 C 
HETATM    7  N   UNL     1      21.127  44.614  45.165  1.00  0.00    -0.346 N 
HETATM    8  C   UNL     1      19.720  44.707  44.784  1.00  0.00     0.254 C 
HETATM    9  N   UNL     1      18.996  44.535  46.006  1.00  0.00    -0.325 N 
HETATM   10  C   UNL     1      19.806  44.556  47.121  1.00  0.00     0.250 C 
HETATM   11  O   UNL     1      19.411  44.521  48.277  1.00  0.00    -0.270 OA
HETATM   12  C   UNL     1      22.056  43.504  47.219  1.00  0.00     0.061 C 
HETATM   13  C   UNL     1      22.430  43.689  48.687  1.00  0.00     0.130 C 
HETATM   14  O   UNL     1      24.240  46.420  50.257  1.00  0.00    -0.247 OA
HETATM   15  H   UNL     1      24.757  43.387  49.617  1.00  0.00     0.170 HD
ENDROOT
BRANCH   7  16
HETATM   16  C   UNL     1      22.114  44.851  44.219  1.00  0.00     0.032 A 
HETATM   17  C   UNL     1      23.404  44.298  44.297  1.00  0.00     0.029 A 
HETATM   18  C   UNL     1      24.405  44.566  43.349  1.00  0.00     0.002 A 
HETATM   19  C   UNL     1      24.138  45.390  42.267  1.00  0.00     0.000 A 
HETATM   20  C   UNL     1      22.869  45.933  42.133  1.00  0.00     0.002 A 
HETATM   21  C   UNL     1      21.879  45.659  43.088  1.00  0.00     0.029 A 
ENDBRANCH   7  16
BRANCH   9  22
HETATM   22  C   UNL     1      17.574  44.826  46.078  1.00  0.00     0.230 C 
BRANCH  22  23
HETATM   23  C   UNL     1      17.205  46.278  46.371  1.00  0.00     0.235 C 
HETATM   24  N   UNL     1      16.809  46.543  47.658  1.00  0.00    -0.354 N 
HETATM   25  H   UNL     1      16.820  45.807  48.355  1.00  0.00     0.162 HD
HETATM   26  O   UNL     1      17.391  47.167  45.542  1.00  0.00    -0.272 OA
BRANCH  24  27
HETATM   27  C   UNL     1      16.674  47.911  48.102  1.00  0.00     0.187 C 
BRANCH  27  28
HETATM   28  C   UNL     1      17.954  48.444  48.631  1.00  0.00     0.070 A 
HETATM   29  O   UNL     1      18.326  49.710  48.275  1.00  0.00    -0.325 OA
HETATM   30  C   UNL     1      19.521  49.955  48.873  1.00  0.00     0.142 A 
HETATM   31  C   UNL     1      19.922  48.868  49.613  1.00  0.00     0.027 A 
HETATM   32  C   UNL     1      18.911  47.892  49.460  1.00  0.00     0.036 A 
ENDBRANCH  27  28
ENDBRANCH  24  27
ENDBRANCH  22  23
ENDBRANCH   9  22
BRANCH   1  33
HETATM   33  C   UNL     1      25.739  44.106  51.270  1.00  0.00     0.036 A 
HETATM   34  C   UNL     1      25.420  44.176  52.625  1.00  0.00     0.030 A 
HETATM   35  C   UNL     1      26.415  44.044  53.602  1.00  0.00     0.010 A 
HETATM   36  C   UNL     1      27.750  43.814  53.246  1.00  0.00    -0.055 A 
HETATM   37  C   UNL     1      28.069  43.763  51.884  1.00  0.00     0.010 A 
HETATM   38  C   UNL     1      27.076  43.911  50.908  1.00  0.00     0.030 A 
BRANCH  36  39
HETATM   39  C   UNL     1      28.844  43.638  54.284  1.00  0.00     0.010 C 
HETATM   40  C   UNL     1      29.158  44.927  55.051  1.00  0.00     0.015 C 
HETATM   41  C   UNL     1      30.111  43.070  53.642  1.00  0.00     0.015 C 
ENDBRANCH  36  39
ENDBRANCH   1  33
TORSDOF 7
ENDMDL
MODEL 8
REMARK VINA RESULT:      -9.0      5.458      9.378
REMARK  7 active torsions:
REMARK  status: ('A' for Active; 'I' for Inactive)
REMARK    1  A    between atoms: C_2  and  C_3 
REMARK    2  A    between atoms: C_6  and  N_7 
REMARK       I    between atoms: N_7  and  C_8 
REMARK       I    between atoms: C_8  and  N_9 
REMARK    3  A    between atoms: N_13  and  C_14 
REMARK    4  A    between atoms: N_21  and  C_22 
REMARK    5  A    between atoms: C_22  and  C_23 
REMARK       I    between atoms: C_23  and  N_24 
REMARK    6  A    between atoms: N_24  and  C_25 
REMARK    7  A    between atoms: C_25  and  C_26 
ROOT
HETATM    1  N   UNL     1      27.981  42.587  52.639  1.00  0.00    -0.309 N 
HETATM    2  C   UNL     1      27.750  43.117  51.390  1.00  0.00     0.322 C 
HETATM    3  N   UNL     1      26.863  42.382  50.592  1.00  0.00    -0.334 N 
HETATM    4  C   UNL     1      26.516  42.964  49.297  1.00  0.00     0.130 C 
HETATM    5  C   UNL     1      26.373  41.898  48.219  1.00  0.00     0.061 C 
HETATM    6  C   UNL     1      25.508  40.707  48.666  1.00  0.00     0.118 C 
HETATM    7  N   UNL     1      25.591  39.568  47.700  1.00  0.00    -0.346 N 
HETATM    8  C   UNL     1      24.394  39.522  46.865  1.00  0.00     0.254 C 
HETATM    9  N   UNL     1      23.467  40.408  47.501  1.00  0.00    -0.325 N 
HETATM   10  C   UNL     1      24.038  41.148  48.514  1.00  0.00     0.250 C 
HETATM   11  O   UNL     1      23.474  42.034  49.140  1.00  0.00    -0.270 OA
HETATM   12  C   UNL     1      25.712  40.248  50.116  1.00  0.00     0.061 C 
HETATM   13  C   UNL     1      25.882  41.414  51.086  1.00  0.00     0.130 C 
HETATM   14  O   UNL     1      28.271  44.149  50.973  1.00  0.00    -0.247 OA
HETATM   15  H   UNL     1      27.761  41.614  52.760  1.00  0.00     0.170 HD
ENDROOT
BRANCH   7  16
HETATM   16  C   UNL     1      26.737  38.897  47.299  1.00  0.00     0.032 A 
HETATM   17  C   UNL     1      27.677  38.368  48.200  1.00  0.00     0.029 A 
HETATM   18  C   UNL     1      28.847  37.715  47.784  1.00  0.00     0.002 A 
HETATM   19  C   UNL     1      29.110  37.549  46.433  1.00  0.00     0.000 A 
HETATM   20  C   UNL     1      28.196  38.027  45.507  1.00  0.00     0.002 A 
HETATM   21  C   UNL     1      27.031  38.680  45.936  1.00  0.00     0.029 A 
ENDBRANCH   7  16
BRANCH   9  22
HETATM   22  C   UNL     1      22.253  40.831  46.824  1.00  0.00     0.230 C 
BRANCH  22  23
HETATM   23  C   UNL     1      21.305  39.714  46.396  1.00  0.00     0.235 C 
HETATM   24  N   UNL     1      20.692  39.030  47.417  1.00  0.00    -0.354 N 
HETATM   25  H   UNL     1      20.845  39.309  48.379  1.00  0.00     0.162 HD
HETATM   26  O   UNL     1      21.007  39.541  45.215  1.00  0.00    -0.272 OA
BRANCH  24  27
HETATM   27  C   UNL     1      19.603  38.128  47.126  1.00  0.00     0.187 C 
BRANCH  27  28
HETATM   28  C   UNL     1      19.711  36.869  47.904  1.00  0.00     0.070 A 
HETATM   29  O   UNL     1      18.765  36.611  48.857  1.00  0.00    -0.325 OA
HETATM   30  C   UNL     1      19.089  35.421  49.425  1.00  0.00     0.142 A 
HETATM   31  C   UNL     1      20.226  34.905  48.850  1.00  0.00     0.027 A 
HETATM   32  C   UNL     1      20.628  35.837  47.866  1.00  0.00     0.036 A 
ENDBRANCH  27  28
ENDBRANCH  24  27
ENDBRANCH  22  23
ENDBRANCH   9  22
BRANCH   1  33
HETATM   33  C   UNL     1      28.653  43.192  53.724  1.00  0.00     0.036 A 
HETATM   34  C   UNL     1      29.921  42.821  54.167  1.00  0.00     0.030 A 
HETATM   35  C   UNL     1      30.537  43.503  55.225  1.00  0.00     0.010 A 
HETATM   36  C   UNL     1      29.908  44.588  55.848  1.00  0.00    -0.055 A 
HETATM   37  C   UNL     1      28.627  44.946  55.412  1.00  0.00     0.010 A 
HETATM   38  C   UNL     1      28.005  44.254  54.365  1.00  0.00     0.030 A 
BRANCH  36  39
HETATM   39  C   UNL     1      30.564  45.363  56.976  1.00  0.00     0.010 C 
HETATM   40  C   UNL     1      31.422  44.482  57.891  1.00  0.00     0.015 C 
HETATM   41  C   UNL     1      29.516  46.125  57.789  1.00  0.00     0.015 C 
ENDBRANCH  36  39
ENDBRANCH   1  33
TORSDOF 7
ENDMDL
MODEL 9
REMARK VINA RESULT:      -8.9      4.074     11.146
REMARK  7 active torsions:
REMARK  status: ('A' for Active; 'I' for Inactive)
REMARK    1  A    between atoms: C_2  and  C_3 
REMARK    2  A    between atoms: C_6  and  N_7 
REMARK       I    between atoms: N_7  and  C_8 
REMARK       I    between atoms: C_8  and  N_9 
REMARK    3  A    between atoms: N_13  and  C_14 
REMARK    4  A    between atoms: N_21  and  C_22 
REMARK    5  A    between atoms: C_22  and  C_23 
REMARK       I    between atoms: C_23  and  N_24 
REMARK    6  A    between atoms: N_24  and  C_25 
REMARK    7  A    between atoms: C_25  and  C_26 
ROOT
HETATM    1  N   UNL     1      25.387  44.417  51.268  1.00  0.00    -0.309 N 
HETATM    2  C   UNL     1      24.913  45.492  50.552  1.00  0.00     0.322 C 
HETATM    3  N   UNL     1      23.806  45.217  49.738  1.00  0.00    -0.334 N 
HETATM    4  C   UNL     1      23.213  46.355  49.038  1.00  0.00     0.130 C 
HETATM    5  C   UNL     1      22.735  45.973  47.644  1.00  0.00     0.061 C 
HETATM    6  C   UNL     1      21.904  44.678  47.630  1.00  0.00     0.118 C 
HETATM    7  N   UNL     1      21.664  44.187  46.237  1.00  0.00    -0.346 N 
HETATM    8  C   UNL     1      20.305  44.510  45.812  1.00  0.00     0.254 C 
HETATM    9  N   UNL     1      19.630  44.906  47.009  1.00  0.00    -0.325 N 
HETATM   10  C   UNL     1      20.481  45.062  48.082  1.00  0.00     0.250 C 
HETATM   11  O   UNL     1      20.155  45.481  49.183  1.00  0.00    -0.270 OA
HETATM   12  C   UNL     1      22.405  43.560  48.555  1.00  0.00     0.061 C 
HETATM   13  C   UNL     1      22.893  44.084  49.903  1.00  0.00     0.130 C 
HETATM   14  O   UNL     1      25.404  46.617  50.595  1.00  0.00    -0.247 OA
HETATM   15  H   UNL     1      25.123  43.506  50.935  1.00  0.00     0.170 HD
ENDROOT
BRANCH   7  16
HETATM   16  C   UNL     1      22.626  43.869  45.288  1.00  0.00     0.032 A 
HETATM   17  C   UNL     1      23.292  42.632  45.251  1.00  0.00     0.029 A 
HETATM   18  C   UNL     1      24.283  42.330  44.304  1.00  0.00     0.002 A 
HETATM   19  C   UNL     1      24.630  43.260  43.336  1.00  0.00     0.000 A 
HETATM   20  C   UNL     1      23.977  44.483  43.315  1.00  0.00     0.002 A 
HETATM   21  C   UNL     1      22.990  44.773  44.269  1.00  0.00     0.029 A 
ENDBRANCH   7  16
BRANCH   9  22
HETATM   22  C   UNL     1      18.329  45.552  46.954  1.00  0.00     0.230 C 
BRANCH  22  23
HETATM   23  C   UNL     1      18.328  47.008  46.497  1.00  0.00     0.235 C 
HETATM   24  N   UNL     1      18.794  47.920  47.412  1.00  0.00    -0.354 N 
HETATM   25  H   UNL     1      19.155  47.604  48.306  1.00  0.00     0.162 HD
HETATM   26  O   UNL     1      18.060  47.317  45.337  1.00  0.00    -0.272 OA
BRANCH  24  27
HETATM   27  C   UNL     1      19.063  49.278  47.002  1.00  0.00     0.187 C 
BRANCH  27  28
HETATM   28  C   UNL     1      18.881  50.235  48.121  1.00  0.00     0.070 A 
HETATM   29  O   UNL     1      17.779  50.100  48.918  1.00  0.00    -0.325 OA
HETATM   30  C   UNL     1      17.838  51.089  49.848  1.00  0.00     0.142 A 
HETATM   31  C   UNL     1      18.965  51.856  49.665  1.00  0.00     0.027 A 
HETATM   32  C   UNL     1      19.640  51.305  48.552  1.00  0.00     0.036 A 
ENDBRANCH  27  28
ENDBRANCH  24  27
ENDBRANCH  22  23
ENDBRANCH   9  22
BRANCH   1  33
HETATM   33  C   UNL     1      26.342  44.424  52.308  1.00  0.00     0.036 A 
HETATM   34  C   UNL     1      26.096  44.900  53.596  1.00  0.00     0.030 A 
HETATM   35  C   UNL     1      27.085  44.831  54.585  1.00  0.00     0.010 A 
HETATM   36  C   UNL     1      28.336  44.261  54.316  1.00  0.00    -0.055 A 
HETATM   37  C   UNL     1      28.585  43.801  53.018  1.00  0.00     0.010 A 
HETATM   38  C   UNL     1      27.601  43.885  52.025  1.00  0.00     0.030 A 
BRANCH  36  39
HETATM   39  C   UNL     1      29.416  44.147  55.377  1.00  0.00     0.010 C 
HETATM   40  C   UNL     1      29.867  45.505  55.925  1.00  0.00     0.015 C 
HETATM   41  C   UNL     1      30.613  43.355  54.846  1.00  0.00     0.015 C 
ENDBRANCH  36  39
ENDBRANCH   1  33
TORSDOF 7
ENDMDL
MODEL 10
REMARK VINA RESULT:      -8.9      3.116      9.910
REMARK  7 active torsions:
REMARK  status: ('A' for Active; 'I' for Inactive)
REMARK    1  A    between atoms: C_2  and  C_3 
REMARK    2  A    between atoms: C_6  and  N_7 
REMARK       I    between atoms: N_7  and  C_8 
REMARK       I    between atoms: C_8  and  N_9 
REMARK    3  A    between atoms: N_13  and  C_14 
REMARK    4  A    between atoms: N_21  and  C_22 
REMARK    5  A    between atoms: C_22  and  C_23 
REMARK       I    between atoms: C_23  and  N_24 
REMARK    6  A    between atoms: N_24  and  C_25 
REMARK    7  A    between atoms: C_25  and  C_26 
ROOT
HETATM    1  N   UNL     1      27.979  42.632  52.659  1.00  0.00    -0.309 N 
HETATM    2  C   UNL     1      27.746  43.178  51.418  1.00  0.00     0.322 C 
HETATM    3  N   UNL     1      26.848  42.460  50.616  1.00  0.00    -0.334 N 
HETATM    4  C   UNL     1      26.500  43.060  49.330  1.00  0.00     0.130 C 
HETATM    5  C   UNL     1      26.342  42.009  48.240  1.00  0.00     0.061 C 
HETATM    6  C   UNL     1      25.468  40.820  48.678  1.00  0.00     0.118 C 
HETATM    7  N   UNL     1      25.535  39.692  47.698  1.00  0.00    -0.346 N 
HETATM    8  C   UNL     1      24.334  39.666  46.869  1.00  0.00     0.254 C 
HETATM    9  N   UNL     1      23.419  40.553  47.520  1.00  0.00    -0.325 N 
HETATM   10  C   UNL     1      24.001  41.276  48.539  1.00  0.00     0.250 C 
HETATM   11  O   UNL     1      23.449  42.160  49.178  1.00  0.00    -0.270 OA
HETATM   12  C   UNL     1      25.675  40.342  50.122  1.00  0.00     0.061 C 
HETATM   13  C   UNL     1      25.861  41.495  51.104  1.00  0.00     0.130 C 
HETATM   14  O   UNL     1      28.274  44.210  51.011  1.00  0.00    -0.247 OA
HETATM   15  H   UNL     1      27.750  41.659  52.770  1.00  0.00     0.170 HD
ENDROOT
BRANCH   7  16
HETATM   16  C   UNL     1      26.674  39.015  47.283  1.00  0.00     0.032 A 
HETATM   17  C   UNL     1      27.056  38.904  45.935  1.00  0.00     0.029 A 
HETATM   18  C   UNL     1      28.195  38.194  45.523  1.00  0.00     0.002 A 
HETATM   19  C   UNL     1      29.011  37.581  46.461  1.00  0.00     0.000 A 
HETATM   20  C   UNL     1      28.691  37.691  47.805  1.00  0.00     0.002 A 
HETATM   21  C   UNL     1      27.549  38.401  48.203  1.00  0.00     0.029 A 
ENDBRANCH   7  16
BRANCH   9  22
HETATM   22  C   UNL     1      22.205  40.995  46.855  1.00  0.00     0.230 C 
BRANCH  22  23
HETATM   23  C   UNL     1      22.343  42.232  45.972  1.00  0.00     0.235 C 
HETATM   24  N   UNL     1      22.138  43.436  46.599  1.00  0.00    -0.354 N 
HETATM   25  H   UNL     1      21.958  43.466  47.596  1.00  0.00     0.162 HD
HETATM   26  O   UNL     1      22.750  42.153  44.814  1.00  0.00    -0.272 OA
BRANCH  24  27
HETATM   27  C   UNL     1      22.480  44.666  45.924  1.00  0.00     0.187 C 
BRANCH  27  28
HETATM   28  C   UNL     1      21.633  45.796  46.381  1.00  0.00     0.070 A 
HETATM   29  O   UNL     1      22.236  46.839  47.029  1.00  0.00    -0.325 OA
HETATM   30  C   UNL     1      21.258  47.725  47.348  1.00  0.00     0.142 A 
HETATM   31  C   UNL     1      20.036  47.274  46.912  1.00  0.00     0.027 A 
HETATM   32  C   UNL     1      20.275  46.029  46.286  1.00  0.00     0.036 A 
ENDBRANCH  27  28
ENDBRANCH  24  27
ENDBRANCH  22  23
ENDBRANCH   9  22
BRANCH   1  33
HETATM   33  C   UNL     1      28.661  43.218  53.748  1.00  0.00     0.036 A 
HETATM   34  C   UNL     1      29.913  42.807  54.203  1.00  0.00     0.030 A 
HETATM   35  C   UNL     1      30.543  43.471  55.263  1.00  0.00     0.010 A 
HETATM   36  C   UNL     1      29.946  44.578  55.877  1.00  0.00    -0.055 A 
HETATM   37  C   UNL     1      28.680  44.977  55.430  1.00  0.00     0.010 A 
HETATM   38  C   UNL     1      28.044  44.303  54.380  1.00  0.00     0.030 A 
BRANCH  36  39
HETATM   39  C   UNL     1      30.618  45.335  57.009  1.00  0.00     0.010 C 
HETATM   40  C   UNL     1      31.495  44.441  57.891  1.00  0.00     0.015 C 
HETATM   41  C   UNL     1      29.581  46.077  57.854  1.00  0.00     0.015 C 
ENDBRANCH  36  39
ENDBRANCH   1  33
TORSDOF 7
ENDMDL
