MODEL 1
REMARK VINA RESULT:      -7.3      0.000      0.000
REMARK  1 active torsions:
REMARK  status: ('A' for Active; 'I' for Inactive)
REMARK    1  A    between atoms: C_6  and  N_7 
ROOT
HETATM    1  N   UNL     1      32.912  49.616  40.855  1.00  0.00    -0.320 N 
HETATM    2  C   UNL     1      32.625  48.235  41.112  1.00  0.00     0.141 C 
HETATM    3  N   UNL     1      33.384  47.492  41.865  1.00  0.00    -0.380 N 
HETATM    4  H   UNL     1      34.207  47.903  42.285  1.00  0.00     0.158 HD
HETATM    5  H   UNL     1      33.150  46.521  42.010  1.00  0.00     0.158 HD
HETATM    6  S   UNL     1      31.202  47.670  40.310  1.00  0.00    -0.086 SA
HETATM    7  C   UNL     1      31.167  49.177  39.290  1.00  0.00     0.093 C 
HETATM    8  C   UNL     1      31.745  50.262  40.225  1.00  0.00     0.121 C 
HETATM    9  C   UNL     1      29.882  49.762  38.761  1.00  0.00     0.158 C 
HETATM   10  S   UNL     1      30.385  51.456  38.394  1.00  0.00     0.147 S 
HETATM   11  O   UNL     1      30.695  51.550  36.985  1.00  0.00    -0.228 OA
HETATM   12  O   UNL     1      29.465  52.356  39.055  1.00  0.00    -0.228 OA
HETATM   13  C   UNL     1      31.937  51.452  39.315  1.00  0.00     0.167 C 
ENDROOT
BRANCH   1  14
HETATM   14  C   UNL     1      33.703  50.442  41.678  1.00  0.00     0.048 A 
HETATM   15  C   UNL     1      35.050  50.682  41.316  1.00  0.00    -0.034 A 
HETATM   16  C   UNL     1      35.860  51.494  42.127  1.00  0.00     0.015 A 
HETATM   17  C   UNL     1      35.673  50.112  40.067  1.00  0.00     0.050 C 
HETATM   18  C   UNL     1      35.373  52.049  43.309  1.00  0.00    -0.061 A 
HETATM   19  C   UNL     1      36.268  52.865  44.197  1.00  0.00     0.048 C 
HETATM   20  C   UNL     1      34.058  51.775  43.689  1.00  0.00     0.015 A 
HETATM   21  C   UNL     1      33.210  50.992  42.886  1.00  0.00    -0.034 A 
HETATM   22  C   UNL     1      31.823  50.726  43.413  1.00  0.00     0.050 C 
ENDBRANCH   1  14
TORSDOF 1
ENDMDL
MODEL 2
REMARK VINA RESULT:      -7.1      2.497      3.961
REMARK  1 active torsions:
REMARK  status: ('A' for Active; 'I' for Inactive)
REMARK    1  A    between atoms: C_6  and  N_7 
ROOT
HETATM    1  N   UNL     1      31.213  51.841  41.070  1.00  0.00    -0.320 N 
HETATM    2  C   UNL     1      30.684  53.116  40.683  1.00  0.00     0.141 C 
HETATM    3  N   UNL     1      31.328  54.230  40.886  1.00  0.00    -0.380 N 
HETATM    4  H   UNL     1      32.235  54.195  41.332  1.00  0.00     0.158 HD
HETATM    5  H   UNL     1      30.914  55.107  40.607  1.00  0.00     0.158 HD
HETATM    6  S   UNL     1      29.120  53.018  39.955  1.00  0.00    -0.086 SA
HETATM    7  C   UNL     1      28.963  51.289  40.505  1.00  0.00     0.093 C 
HETATM    8  C   UNL     1      30.413  50.761  40.461  1.00  0.00     0.121 C 
HETATM    9  C   UNL     1      28.153  50.272  39.740  1.00  0.00     0.158 C 
HETATM   10  S   UNL     1      28.841  48.725  40.369  1.00  0.00     0.147 S 
HETATM   11  O   UNL     1      27.976  48.230  41.417  1.00  0.00    -0.228 OA
HETATM   12  O   UNL     1      29.243  47.916  39.239  1.00  0.00    -0.228 OA
HETATM   13  C   UNL     1      30.323  49.412  41.135  1.00  0.00     0.167 C 
ENDROOT
BRANCH   1  14
HETATM   14  C   UNL     1      32.580  51.559  41.264  1.00  0.00     0.048 A 
HETATM   15  C   UNL     1      33.083  51.484  42.585  1.00  0.00    -0.034 A 
HETATM   16  C   UNL     1      34.444  51.215  42.803  1.00  0.00     0.015 A 
HETATM   17  C   UNL     1      32.211  51.664  43.802  1.00  0.00     0.050 C 
HETATM   18  C   UNL     1      35.328  51.050  41.737  1.00  0.00    -0.061 A 
HETATM   19  C   UNL     1      36.791  50.824  41.985  1.00  0.00     0.048 C 
HETATM   20  C   UNL     1      34.840  51.170  40.435  1.00  0.00     0.015 A 
HETATM   21  C   UNL     1      33.477  51.408  40.180  1.00  0.00    -0.034 A 
HETATM   22  C   UNL     1      33.068  51.561  38.737  1.00  0.00     0.050 C 
ENDBRANCH   1  14
TORSDOF 1
ENDMDL
MODEL 3
REMARK VINA RESULT:      -7.0      2.777      6.310
REMARK  1 active torsions:
REMARK  status: ('A' for Active; 'I' for Inactive)
REMARK    1  A    between atoms: C_6  and  N_7 
ROOT
HETATM    1  N   UNL     1      29.974  50.035  40.859  1.00  0.00    -0.320 N 
HETATM    2  C   UNL     1      30.235  49.278  42.048  1.00  0.00     0.141 C 
HETATM    3  N   UNL     1      29.335  48.516  42.602  1.00  0.00    -0.380 N 
HETATM    4  H   UNL     1      28.419  48.454  42.179  1.00  0.00     0.158 HD
HETATM    5  H   UNL     1      29.559  48.008  43.446  1.00  0.00     0.158 HD
HETATM    6  S   UNL     1      31.833  49.502  42.667  1.00  0.00    -0.086 SA
HETATM    7  C   UNL     1      32.072  50.927  41.559  1.00  0.00     0.093 C 
HETATM    8  C   UNL     1      31.239  50.560  40.312  1.00  0.00     0.121 C 
HETATM    9  C   UNL     1      33.429  51.311  41.024  1.00  0.00     0.158 C 
HETATM   10  S   UNL     1      32.975  52.322  39.598  1.00  0.00     0.147 S 
HETATM   11  O   UNL     1      33.030  53.714  39.985  1.00  0.00    -0.228 OA
HETATM   12  O   UNL     1      33.667  51.804  38.438  1.00  0.00    -0.228 OA
HETATM   13  C   UNL     1      31.242  51.831  39.495  1.00  0.00     0.167 C 
ENDROOT
BRANCH   1  14
HETATM   14  C   UNL     1      28.972  49.735  39.914  1.00  0.00     0.048 A 
HETATM   15  C   UNL     1      27.769  50.481  39.931  1.00  0.00    -0.034 A 
HETATM   16  C   UNL     1      26.752  50.192  39.006  1.00  0.00     0.015 A 
HETATM   17  C   UNL     1      27.521  51.608  40.901  1.00  0.00     0.050 C 
HETATM   18  C   UNL     1      26.888  49.157  38.083  1.00  0.00    -0.061 A 
HETATM   19  C   UNL     1      25.769  48.820  37.140  1.00  0.00     0.048 C 
HETATM   20  C   UNL     1      28.055  48.391  38.098  1.00  0.00     0.015 A 
HETATM   21  C   UNL     1      29.107  48.673  38.989  1.00  0.00    -0.034 A 
HETATM   22  C   UNL     1      30.303  47.756  38.946  1.00  0.00     0.050 C 
ENDBRANCH   1  14
TORSDOF 1
ENDMDL
MODEL 4
REMARK VINA RESULT:      -7.0     13.451     15.022
REMARK  1 active torsions:
REMARK  status: ('A' for Active; 'I' for Inactive)
REMARK    1  A    between atoms: C_6  and  N_7 
ROOT
HETATM    1  N   UNL     1      26.932  43.770  53.645  1.00  0.00    -0.320 N 
HETATM    2  C   UNL     1      25.644  43.885  54.265  1.00  0.00     0.141 C 
HETATM    3  N   UNL     1      25.452  43.624  55.527  1.00  0.00    -0.380 N 
HETATM    4  H   UNL     1      26.238  43.330  56.090  1.00  0.00     0.158 HD
HETATM    5  H   UNL     1      24.526  43.708  55.921  1.00  0.00     0.158 HD
HETATM    6  S   UNL     1      24.398  44.375  53.174  1.00  0.00    -0.086 SA
HETATM    7  C   UNL     1      25.501  44.062  51.759  1.00  0.00     0.093 C 
HETATM    8  C   UNL     1      26.903  44.400  52.311  1.00  0.00     0.121 C 
HETATM    9  C   UNL     1      25.393  44.834  50.468  1.00  0.00     0.158 C 
HETATM   10  S   UNL     1      27.021  44.546  49.744  1.00  0.00     0.147 S 
HETATM   11  O   UNL     1      26.916  43.461  48.793  1.00  0.00    -0.228 OA
HETATM   12  O   UNL     1      27.601  45.828  49.408  1.00  0.00    -0.228 OA
HETATM   13  C   UNL     1      27.839  43.921  51.226  1.00  0.00     0.167 C 
ENDROOT
BRANCH   1  14
HETATM   14  C   UNL     1      28.165  43.827  54.326  1.00  0.00     0.048 A 
HETATM   15  C   UNL     1      28.971  42.665  54.381  1.00  0.00    -0.034 A 
HETATM   16  C   UNL     1      30.198  42.695  55.063  1.00  0.00     0.015 A 
HETATM   17  C   UNL     1      28.582  41.369  53.715  1.00  0.00     0.050 C 
HETATM   18  C   UNL     1      30.631  43.845  55.721  1.00  0.00    -0.061 A 
HETATM   19  C   UNL     1      31.916  43.844  56.498  1.00  0.00     0.048 C 
HETATM   20  C   UNL     1      29.814  44.977  55.706  1.00  0.00     0.015 A 
HETATM   21  C   UNL     1      28.593  44.992  55.006  1.00  0.00    -0.034 A 
HETATM   22  C   UNL     1      27.772  46.253  55.091  1.00  0.00     0.050 C 
ENDBRANCH   1  14
TORSDOF 1
ENDMDL
MODEL 5
REMARK VINA RESULT:      -6.6      3.688      6.675
REMARK  1 active torsions:
REMARK  status: ('A' for Active; 'I' for Inactive)
REMARK    1  A    between atoms: C_6  and  N_7 
ROOT
HETATM    1  N   UNL     1      28.674  50.600  40.111  1.00  0.00    -0.320 N 
HETATM    2  C   UNL     1      28.004  51.647  40.823  1.00  0.00     0.141 C 
HETATM    3  N   UNL     1      26.728  51.607  41.087  1.00  0.00    -0.380 N 
HETATM    4  H   UNL     1      26.191  50.808  40.778  1.00  0.00     0.158 HD
HETATM    5  H   UNL     1      26.294  52.372  41.582  1.00  0.00     0.158 HD
HETATM    6  S   UNL     1      29.045  52.953  41.266  1.00  0.00    -0.086 SA
HETATM    7  C   UNL     1      30.340  52.306  40.161  1.00  0.00     0.093 C 
HETATM    8  C   UNL     1      30.135  50.777  40.218  1.00  0.00     0.121 C 
HETATM    9  C   UNL     1      31.809  52.514  40.433  1.00  0.00     0.158 C 
HETATM   10  S   UNL     1      32.546  51.210  39.425  1.00  0.00     0.147 S 
HETATM   11  O   UNL     1      32.971  51.785  38.168  1.00  0.00    -0.228 OA
HETATM   12  O   UNL     1      33.426  50.430  40.267  1.00  0.00    -0.228 OA
HETATM   13  C   UNL     1      31.044  50.254  39.131  1.00  0.00     0.167 C 
ENDROOT
BRANCH   1  14
HETATM   14  C   UNL     1      28.221  49.269  40.015  1.00  0.00     0.048 A 
HETATM   15  C   UNL     1      27.391  48.904  38.929  1.00  0.00    -0.034 A 
HETATM   16  C   UNL     1      26.919  47.585  38.819  1.00  0.00     0.015 A 
HETATM   17  C   UNL     1      26.991  49.873  37.846  1.00  0.00     0.050 C 
HETATM   18  C   UNL     1      27.225  46.626  39.783  1.00  0.00    -0.061 A 
HETATM   19  C   UNL     1      26.663  45.237  39.685  1.00  0.00     0.048 C 
HETATM   20  C   UNL     1      28.005  46.998  40.879  1.00  0.00     0.015 A 
HETATM   21  C   UNL     1      28.521  48.301  41.004  1.00  0.00    -0.034 A 
HETATM   22  C   UNL     1      29.317  48.605  42.248  1.00  0.00     0.050 C 
ENDBRANCH   1  14
TORSDOF 1
ENDMDL
MODEL 6
REMARK VINA RESULT:      -6.6      2.846      4.241
REMARK  1 active torsions:
REMARK  status: ('A' for Active; 'I' for Inactive)
REMARK    1  A    between atoms: C_6  and  N_7 
ROOT
HETATM    1  N   UNL     1      30.225  50.416  40.925  1.00  0.00    -0.320 N 
HETATM    2  C   UNL     1      29.152  51.297  41.283  1.00  0.00     0.141 C 
HETATM    3  N   UNL     1      29.358  52.456  41.843  1.00  0.00    -0.380 N 
HETATM    4  H   UNL     1      30.308  52.745  42.032  1.00  0.00     0.158 HD
HETATM    5  H   UNL     1      28.572  53.040  42.089  1.00  0.00     0.158 HD
HETATM    6  S   UNL     1      27.589  50.658  40.920  1.00  0.00    -0.086 SA
HETATM    7  C   UNL     1      28.318  49.015  40.631  1.00  0.00     0.093 C 
HETATM    8  C   UNL     1      29.717  49.334  40.060  1.00  0.00     0.121 C 
HETATM    9  C   UNL     1      27.718  48.027  39.662  1.00  0.00     0.158 C 
HETATM   10  S   UNL     1      29.120  46.931  39.356  1.00  0.00     0.147 S 
HETATM   11  O   UNL     1      28.990  45.769  40.207  1.00  0.00    -0.228 OA
HETATM   12  O   UNL     1      29.317  46.836  37.926  1.00  0.00    -0.228 OA
HETATM   13  C   UNL     1      30.410  47.992  40.040  1.00  0.00     0.167 C 
ENDROOT
BRANCH   1  14
HETATM   14  C   UNL     1      31.556  50.818  40.691  1.00  0.00     0.048 A 
HETATM   15  C   UNL     1      32.497  50.714  41.742  1.00  0.00    -0.034 A 
HETATM   16  C   UNL     1      33.827  51.118  41.535  1.00  0.00     0.015 A 
HETATM   17  C   UNL     1      32.146  50.164  43.101  1.00  0.00     0.050 C 
HETATM   18  C   UNL     1      34.238  51.654  40.315  1.00  0.00    -0.061 A 
HETATM   19  C   UNL     1      35.646  52.138  40.128  1.00  0.00     0.048 C 
HETATM   20  C   UNL     1      33.297  51.799  39.294  1.00  0.00     0.015 A 
HETATM   21  C   UNL     1      31.965  51.376  39.456  1.00  0.00    -0.034 A 
HETATM   22  C   UNL     1      31.026  51.617  38.302  1.00  0.00     0.050 C 
ENDBRANCH   1  14
TORSDOF 1
ENDMDL
MODEL 7
REMARK VINA RESULT:      -6.5      3.895      5.420
REMARK  1 active torsions:
REMARK  status: ('A' for Active; 'I' for Inactive)
REMARK    1  A    between atoms: C_6  and  N_7 
ROOT
HETATM    1  N   UNL     1      28.789  48.656  40.563  1.00  0.00    -0.320 N 
HETATM    2  C   UNL     1      27.486  49.002  41.052  1.00  0.00     0.141 C 
HETATM    3  N   UNL     1      27.264  50.083  41.744  1.00  0.00    -0.380 N 
HETATM    4  H   UNL     1      28.038  50.702  41.944  1.00  0.00     0.158 HD
HETATM    5  H   UNL     1      26.332  50.282  42.077  1.00  0.00     0.158 HD
HETATM    6  S   UNL     1      26.272  47.840  40.650  1.00  0.00    -0.086 SA
HETATM    7  C   UNL     1      27.559  46.656  40.145  1.00  0.00     0.093 C 
HETATM    8  C   UNL     1      28.682  47.556  39.585  1.00  0.00     0.121 C 
HETATM    9  C   UNL     1      27.323  45.616  39.078  1.00  0.00     0.158 C 
HETATM   10  S   UNL     1      29.016  45.199  38.607  1.00  0.00     0.147 S 
HETATM   11  O   UNL     1      29.406  43.998  39.313  1.00  0.00    -0.228 OA
HETATM   12  O   UNL     1      29.134  45.337  37.172  1.00  0.00    -0.228 OA
HETATM   13  C   UNL     1      29.837  46.605  39.385  1.00  0.00     0.167 C 
ENDROOT
BRANCH   1  14
HETATM   14  C   UNL     1      29.840  49.570  40.348  1.00  0.00     0.048 A 
HETATM   15  C   UNL     1      30.906  49.619  41.278  1.00  0.00    -0.034 A 
HETATM   16  C   UNL     1      31.959  50.530  41.090  1.00  0.00     0.015 A 
HETATM   17  C   UNL     1      30.983  48.712  42.480  1.00  0.00     0.050 C 
HETATM   18  C   UNL     1      31.962  51.418  40.016  1.00  0.00    -0.061 A 
HETATM   19  C   UNL     1      33.063  52.427  39.861  1.00  0.00     0.048 C 
HETATM   20  C   UNL     1      30.888  51.401  39.125  1.00  0.00     0.015 A 
HETATM   21  C   UNL     1      29.832  50.481  39.265  1.00  0.00    -0.034 A 
HETATM   22  C   UNL     1      28.704  50.579  38.270  1.00  0.00     0.050 C 
ENDBRANCH   1  14
TORSDOF 1
ENDMDL
MODEL 8
REMARK VINA RESULT:      -6.4      2.958      4.276
REMARK  1 active torsions:
REMARK  status: ('A' for Active; 'I' for Inactive)
REMARK    1  A    between atoms: C_6  and  N_7 
ROOT
HETATM    1  N   UNL     1      29.971  50.404  40.770  1.00  0.00    -0.320 N 
HETATM    2  C   UNL     1      28.838  51.219  41.101  1.00  0.00     0.141 C 
HETATM    3  N   UNL     1      28.961  52.400  41.636  1.00  0.00    -0.380 N 
HETATM    4  H   UNL     1      29.888  52.757  41.826  1.00  0.00     0.158 HD
HETATM    5  H   UNL     1      28.136  52.936  41.863  1.00  0.00     0.158 HD
HETATM    6  S   UNL     1      27.324  50.469  40.740  1.00  0.00    -0.086 SA
HETATM    7  C   UNL     1      28.164  48.872  40.492  1.00  0.00     0.093 C 
HETATM    8  C   UNL     1      29.544  49.272  39.926  1.00  0.00     0.121 C 
HETATM    9  C   UNL     1      27.639  47.826  39.541  1.00  0.00     0.158 C 
HETATM   10  S   UNL     1      29.114  46.820  39.270  1.00  0.00     0.147 S 
HETATM   11  O   UNL     1      29.054  45.670  40.146  1.00  0.00    -0.228 OA
HETATM   12  O   UNL     1      29.330  46.707  37.844  1.00  0.00    -0.228 OA
HETATM   13  C   UNL     1      30.324  47.979  39.941  1.00  0.00     0.167 C 
ENDROOT
BRANCH   1  14
HETATM   14  C   UNL     1      31.274  50.888  40.537  1.00  0.00     0.048 A 
HETATM   15  C   UNL     1      31.571  51.483  39.288  1.00  0.00    -0.034 A 
HETATM   16  C   UNL     1      32.865  51.963  39.030  1.00  0.00     0.015 A 
HETATM   17  C   UNL     1      30.542  51.650  38.198  1.00  0.00     0.050 C 
HETATM   18  C   UNL     1      33.884  51.837  39.973  1.00  0.00    -0.061 A 
HETATM   19  C   UNL     1      35.278  52.299  39.661  1.00  0.00     0.048 C 
HETATM   20  C   UNL     1      33.602  51.208  41.187  1.00  0.00     0.015 A 
HETATM   21  C   UNL     1      32.309  50.744  41.491  1.00  0.00    -0.034 A 
HETATM   22  C   UNL     1      32.128  50.044  42.814  1.00  0.00     0.050 C 
ENDBRANCH   1  14
TORSDOF 1
ENDMDL
MODEL 9
REMARK VINA RESULT:      -6.4     12.704     14.538
REMARK  1 active torsions:
REMARK  status: ('A' for Active; 'I' for Inactive)
REMARK    1  A    between atoms: C_6  and  N_7 
ROOT
HETATM    1  N   UNL     1      26.167  43.854  52.058  1.00  0.00    -0.320 N 
HETATM    2  C   UNL     1      26.162  44.093  53.471  1.00  0.00     0.141 C 
HETATM    3  N   UNL     1      26.130  43.126  54.343  1.00  0.00    -0.380 N 
HETATM    4  H   UNL     1      26.108  42.171  54.013  1.00  0.00     0.158 HD
HETATM    5  H   UNL     1      26.117  43.340  55.330  1.00  0.00     0.158 HD
HETATM    6  S   UNL     1      26.180  45.771  53.883  1.00  0.00    -0.086 SA
HETATM    7  C   UNL     1      25.800  46.208  52.156  1.00  0.00     0.093 C 
HETATM    8  C   UNL     1      26.498  45.099  51.340  1.00  0.00     0.121 C 
HETATM    9  C   UNL     1      26.261  47.501  51.533  1.00  0.00     0.158 C 
HETATM   10  S   UNL     1      26.141  47.111  49.774  1.00  0.00     0.147 S 
HETATM   11  O   UNL     1      24.887  47.627  49.272  1.00  0.00    -0.228 OA
HETATM   12  O   UNL     1      27.414  47.412  49.156  1.00  0.00    -0.228 OA
HETATM   13  C   UNL     1      25.993  45.320  49.933  1.00  0.00     0.167 C 
ENDROOT
BRANCH   1  14
HETATM   14  C   UNL     1      26.590  42.658  51.443  1.00  0.00     0.048 A 
HETATM   15  C   UNL     1      25.640  41.874  50.745  1.00  0.00    -0.034 A 
HETATM   16  C   UNL     1      26.036  40.673  50.133  1.00  0.00     0.015 A 
HETATM   17  C   UNL     1      24.194  42.277  50.604  1.00  0.00     0.050 C 
HETATM   18  C   UNL     1      27.349  40.214  50.225  1.00  0.00    -0.061 A 
HETATM   19  C   UNL     1      27.744  38.898  49.619  1.00  0.00     0.048 C 
HETATM   20  C   UNL     1      28.274  40.964  50.953  1.00  0.00     0.015 A 
HETATM   21  C   UNL     1      27.920  42.187  51.552  1.00  0.00    -0.034 A 
HETATM   22  C   UNL     1      28.988  42.893  52.348  1.00  0.00     0.050 C 
ENDBRANCH   1  14
TORSDOF 1
ENDMDL
MODEL 10
REMARK VINA RESULT:      -6.3     13.705     15.748
REMARK  1 active torsions:
REMARK  status: ('A' for Active; 'I' for Inactive)
REMARK    1  A    between atoms: C_6  and  N_7 
ROOT
HETATM    1  N   UNL     1      19.011  49.734  47.858  1.00  0.00    -0.320 N 
HETATM    2  C   UNL     1      18.406  48.544  48.378  1.00  0.00     0.141 C 
HETATM    3  N   UNL     1      17.126  48.315  48.291  1.00  0.00    -0.380 N 
HETATM    4  H   UNL     1      16.537  49.002  47.840  1.00  0.00     0.158 HD
HETATM    5  H   UNL     1      16.740  47.468  48.680  1.00  0.00     0.158 HD
HETATM    6  S   UNL     1      19.532  47.477  49.139  1.00  0.00    -0.086 SA
HETATM    7  C   UNL     1      20.797  48.787  49.124  1.00  0.00     0.093 C 
HETATM    8  C   UNL     1      20.479  49.584  47.840  1.00  0.00     0.121 C 
HETATM    9  C   UNL     1      22.271  48.482  49.039  1.00  0.00     0.158 C 
HETATM   10  S   UNL     1      22.930  50.062  48.465  1.00  0.00     0.147 S 
HETATM   11  O   UNL     1      23.421  50.798  49.609  1.00  0.00    -0.228 OA
HETATM   12  O   UNL     1      23.734  49.817  47.288  1.00  0.00    -0.228 OA
HETATM   13  C   UNL     1      21.367  50.800  47.945  1.00  0.00     0.167 C 
ENDROOT
BRANCH   1  14
HETATM   14  C   UNL     1      18.463  50.542  46.841  1.00  0.00     0.048 A 
HETATM   15  C   UNL     1      17.988  51.833  47.173  1.00  0.00    -0.034 A 
HETATM   16  C   UNL     1      17.428  52.651  46.177  1.00  0.00     0.015 A 
HETATM   17  C   UNL     1      18.069  52.400  48.567  1.00  0.00     0.050 C 
HETATM   18  C   UNL     1      17.297  52.204  44.864  1.00  0.00    -0.061 A 
HETATM   19  C   UNL     1      16.641  53.065  43.824  1.00  0.00     0.048 C 
HETATM   20  C   UNL     1      17.723  50.912  44.547  1.00  0.00     0.015 A 
HETATM   21  C   UNL     1      18.318  50.078  45.512  1.00  0.00    -0.034 A 
HETATM   22  C   UNL     1      18.703  48.689  45.070  1.00  0.00     0.050 C 
ENDBRANCH   1  14
TORSDOF 1
ENDMDL
