MODEL 1
REMARK VINA RESULT:     -11.5      0.000      0.000
REMARK  4 active torsions:
REMARK  status: ('A' for Active; 'I' for Inactive)
REMARK    1  A    between atoms: C_4  and  C_5 
REMARK    2  A    between atoms: C_6  and  N_7 
REMARK    3  A    between atoms: C_9  and  C_10 
REMARK       I    between atoms: C_10  and  N_11 
REMARK    4  A    between atoms: N_11  and  C_12 
ROOT
HETATM    1  C   UNL     1      28.302  44.538  54.332  1.00  0.00     0.019 A 
HETATM    2  C   UNL     1      27.341  45.446  54.021  1.00  0.00     0.111 A 
HETATM    3  C   UNL     1      27.161  46.671  54.917  1.00  0.00     0.273 A 
HETATM    4  O   UNL     1      26.266  47.497  54.738  1.00  0.00    -0.266 OA
HETATM    5  N   UNL     1      28.025  46.833  55.959  1.00  0.00    -0.321 N 
HETATM    6  C   UNL     1      29.030  45.925  56.279  1.00  0.00     0.046 A 
HETATM    7  C   UNL     1      29.194  44.775  55.501  1.00  0.00     0.006 A 
HETATM    8  C   UNL     1      29.849  46.185  57.381  1.00  0.00     0.032 A 
HETATM    9  C   UNL     1      30.855  45.283  57.722  1.00  0.00     0.026 A 
HETATM   10  C   UNL     1      31.033  44.133  56.957  1.00  0.00     0.035 A 
HETATM   11 CL   UNL     1      32.272  43.016  57.378  1.00  0.00    -0.084 Cl
HETATM   12  C   UNL     1      30.215  43.878  55.853  1.00  0.00     0.038 A 
HETATM   13  H   UNL     1      27.877  47.658  56.521  1.00  0.00     0.169 HD
ENDROOT
BRANCH   2  14
HETATM   14  N   UNL     1      26.443  45.312  52.928  1.00  0.00    -0.375 N 
HETATM   15  C   UNL     1      26.130  46.539  52.156  1.00  0.00     0.137 C 
HETATM   16  C   UNL     1      25.397  46.230  50.847  1.00  0.00     0.096 C 
HETATM   17  C   UNL     1      24.202  45.295  51.057  1.00  0.00     0.017 C 
HETATM   18  C   UNL     1      24.627  44.056  51.836  1.00  0.00     0.021 C 
HETATM   19  C   UNL     1      25.265  44.453  53.162  1.00  0.00     0.123 C 
BRANCH  16  20
HETATM   20  C   UNL     1      24.968  47.527  50.159  1.00  0.00     0.229 C 
HETATM   21  N   UNL     1      23.604  47.629  49.952  1.00  0.00    -0.311 N 
HETATM   22  H   UNL     1      23.011  46.881  50.277  1.00  0.00     0.170 HD
HETATM   23  O   UNL     1      25.820  48.357  49.852  1.00  0.00    -0.273 OA
BRANCH  21  24
HETATM   24  C   UNL     1      22.937  48.711  49.361  1.00  0.00     0.129 A 
HETATM   25  N   UNL     1      23.145  49.970  49.780  1.00  0.00    -0.243 NA
HETATM   26  C   UNL     1      22.471  50.964  49.163  1.00  0.00     0.119 A 
HETATM   27  C   UNL     1      21.575  50.761  48.129  1.00  0.00     0.019 A 
HETATM   28  C   UNL     1      21.362  49.458  47.702  1.00  0.00     0.005 A 
HETATM   29  C   UNL     1      22.055  48.419  48.322  1.00  0.00     0.050 A 
ENDBRANCH  21  24
ENDBRANCH  16  20
ENDBRANCH   2  14
BRANCH   1  30
HETATM   30  C   UNL     1      28.412  43.330  53.474  1.00  0.00    -0.023 A 
HETATM   31  C   UNL     1      28.171  42.055  54.002  1.00  0.00     0.012 A 
HETATM   32  C   UNL     1      28.231  40.932  53.176  1.00  0.00     0.001 A 
HETATM   33  C   UNL     1      28.533  41.073  51.822  1.00  0.00     0.000 A 
HETATM   34  C   UNL     1      28.780  42.339  51.290  1.00  0.00     0.001 A 
HETATM   35  C   UNL     1      28.719  43.464  52.113  1.00  0.00     0.012 A 
ENDBRANCH   1  30
TORSDOF 4
ENDMDL
MODEL 2
REMARK VINA RESULT:     -10.7      0.778      1.324
REMARK  4 active torsions:
REMARK  status: ('A' for Active; 'I' for Inactive)
REMARK    1  A    between atoms: C_4  and  C_5 
REMARK    2  A    between atoms: C_6  and  N_7 
REMARK    3  A    between atoms: C_9  and  C_10 
REMARK       I    between atoms: C_10  and  N_11 
REMARK    4  A    between atoms: N_11  and  C_12 
ROOT
HETATM    1  C   UNL     1      27.907  44.771  53.965  1.00  0.00     0.019 A 
HETATM    2  C   UNL     1      26.982  45.691  53.586  1.00  0.00     0.111 A 
HETATM    3  C   UNL     1      26.801  46.951  54.432  1.00  0.00     0.273 A 
HETATM    4  O   UNL     1      25.935  47.792  54.190  1.00  0.00    -0.266 OA
HETATM    5  N   UNL     1      27.629  47.128  55.501  1.00  0.00    -0.321 N 
HETATM    6  C   UNL     1      28.597  46.208  55.890  1.00  0.00     0.046 A 
HETATM    7  C   UNL     1      28.761  45.026  55.158  1.00  0.00     0.006 A 
HETATM    8  C   UNL     1      29.380  46.486  57.014  1.00  0.00     0.032 A 
HETATM    9  C   UNL     1      30.348  45.571  57.423  1.00  0.00     0.026 A 
HETATM   10  C   UNL     1      30.525  44.390  56.706  1.00  0.00     0.035 A 
HETATM   11 CL   UNL     1      31.718  43.258  57.213  1.00  0.00    -0.084 Cl
HETATM   12  C   UNL     1      29.743  44.117  55.581  1.00  0.00     0.038 A 
HETATM   13  H   UNL     1      27.481  47.976  56.028  1.00  0.00     0.169 HD
ENDROOT
BRANCH   2  14
HETATM   14  N   UNL     1      26.124  45.542  52.464  1.00  0.00    -0.375 N 
HETATM   15  C   UNL     1      25.708  46.779  51.761  1.00  0.00     0.137 C 
HETATM   16  C   UNL     1      25.034  46.485  50.417  1.00  0.00     0.096 C 
HETATM   17  C   UNL     1      23.932  45.428  50.539  1.00  0.00     0.017 C 
HETATM   18  C   UNL     1      24.461  44.189  51.251  1.00  0.00     0.021 C 
HETATM   19  C   UNL     1      25.031  44.560  52.615  1.00  0.00     0.123 C 
BRANCH  16  20
HETATM   20  C   UNL     1      24.495  47.776  49.799  1.00  0.00     0.229 C 
HETATM   21  N   UNL     1      23.122  47.789  49.634  1.00  0.00    -0.311 N 
HETATM   22  H   UNL     1      22.592  46.988  49.943  1.00  0.00     0.170 HD
HETATM   23  O   UNL     1      25.277  48.676  49.504  1.00  0.00    -0.273 OA
BRANCH  21  24
HETATM   24  C   UNL     1      22.363  48.845  49.110  1.00  0.00     0.129 A 
HETATM   25  N   UNL     1      21.682  48.710  47.961  1.00  0.00    -0.243 NA
HETATM   26  C   UNL     1      20.970  49.767  47.517  1.00  0.00     0.119 A 
HETATM   27  C   UNL     1      20.905  50.983  48.173  1.00  0.00     0.019 A 
HETATM   28  C   UNL     1      21.614  51.118  49.358  1.00  0.00     0.005 A 
HETATM   29  C   UNL     1      22.348  50.034  49.838  1.00  0.00     0.050 A 
ENDBRANCH  21  24
ENDBRANCH  16  20
ENDBRANCH   2  14
BRANCH   1  30
HETATM   30  C   UNL     1      28.018  43.532  53.153  1.00  0.00    -0.023 A 
HETATM   31  C   UNL     1      28.352  43.596  51.795  1.00  0.00     0.012 A 
HETATM   32  C   UNL     1      28.500  42.423  51.052  1.00  0.00     0.001 A 
HETATM   33  C   UNL     1      28.315  41.182  51.660  1.00  0.00     0.000 A 
HETATM   34  C   UNL     1      27.977  41.110  53.012  1.00  0.00     0.001 A 
HETATM   35  C   UNL     1      27.829  42.280  53.757  1.00  0.00     0.012 A 
ENDBRANCH   1  30
TORSDOF 4
ENDMDL
MODEL 3
REMARK VINA RESULT:      -9.9      3.800      9.033
REMARK  4 active torsions:
REMARK  status: ('A' for Active; 'I' for Inactive)
REMARK    1  A    between atoms: C_4  and  C_5 
REMARK    2  A    between atoms: C_6  and  N_7 
REMARK    3  A    between atoms: C_9  and  C_10 
REMARK       I    between atoms: C_10  and  N_11 
REMARK    4  A    between atoms: N_11  and  C_12 
ROOT
HETATM    1  C   UNL     1      23.494  45.606  49.124  1.00  0.00     0.019 A 
HETATM    2  C   UNL     1      24.501  45.884  49.992  1.00  0.00     0.111 A 
HETATM    3  C   UNL     1      24.706  47.328  50.451  1.00  0.00     0.273 A 
HETATM    4  O   UNL     1      25.640  47.664  51.180  1.00  0.00    -0.266 OA
HETATM    5  N   UNL     1      23.821  48.268  50.016  1.00  0.00    -0.321 N 
HETATM    6  C   UNL     1      22.771  47.998  49.144  1.00  0.00     0.046 A 
HETATM    7  C   UNL     1      22.580  46.694  48.677  1.00  0.00     0.006 A 
HETATM    8  C   UNL     1      21.933  49.045  48.751  1.00  0.00     0.032 A 
HETATM    9  C   UNL     1      20.882  48.794  47.872  1.00  0.00     0.026 A 
HETATM   10  C   UNL     1      20.677  47.501  47.397  1.00  0.00     0.035 A 
HETATM   11 CL   UNL     1      19.381  47.191  46.308  1.00  0.00    -0.084 Cl
HETATM   12  C   UNL     1      21.514  46.456  47.795  1.00  0.00     0.038 A 
HETATM   13  H   UNL     1      23.988  49.207  50.348  1.00  0.00     0.169 HD
ENDROOT
BRANCH   2  14
HETATM   14  N   UNL     1      25.423  44.918  50.479  1.00  0.00    -0.375 N 
HETATM   15  C   UNL     1      25.818  45.019  51.905  1.00  0.00     0.137 C 
HETATM   16  C   UNL     1      26.573  43.776  52.387  1.00  0.00     0.096 C 
HETATM   17  C   UNL     1      27.713  43.386  51.442  1.00  0.00     0.017 C 
HETATM   18  C   UNL     1      27.205  43.285  50.009  1.00  0.00     0.021 C 
HETATM   19  C   UNL     1      26.549  44.593  49.582  1.00  0.00     0.123 C 
BRANCH  16  20
HETATM   20  C   UNL     1      27.085  43.985  53.813  1.00  0.00     0.229 C 
HETATM   21  N   UNL     1      28.400  44.410  53.881  1.00  0.00    -0.311 N 
HETATM   22  H   UNL     1      28.900  44.568  53.019  1.00  0.00     0.170 HD
HETATM   23  O   UNL     1      26.333  43.776  54.761  1.00  0.00    -0.273 OA
BRANCH  21  24
HETATM   24  C   UNL     1      29.116  44.695  55.052  1.00  0.00     0.129 A 
HETATM   25  N   UNL     1      28.782  45.731  55.838  1.00  0.00    -0.243 NA
HETATM   26  C   UNL     1      29.513  45.944  56.952  1.00  0.00     0.119 A 
HETATM   27  C   UNL     1      30.590  45.161  57.329  1.00  0.00     0.019 A 
HETATM   28  C   UNL     1      30.932  44.094  56.511  1.00  0.00     0.005 A 
HETATM   29  C   UNL     1      30.183  43.853  55.360  1.00  0.00     0.050 A 
ENDBRANCH  21  24
ENDBRANCH  16  20
ENDBRANCH   2  14
BRANCH   1  30
HETATM   30  C   UNL     1      23.358  44.203  48.654  1.00  0.00    -0.023 A 
HETATM   31  C   UNL     1      22.952  43.192  49.534  1.00  0.00     0.012 A 
HETATM   32  C   UNL     1      22.782  41.886  49.072  1.00  0.00     0.001 A 
HETATM   33  C   UNL     1      23.016  41.582  47.731  1.00  0.00     0.000 A 
HETATM   34  C   UNL     1      23.425  42.583  46.850  1.00  0.00     0.001 A 
HETATM   35  C   UNL     1      23.595  43.889  47.308  1.00  0.00     0.012 A 
ENDBRANCH   1  30
TORSDOF 4
ENDMDL
MODEL 4
REMARK VINA RESULT:      -9.7     13.682     16.642
REMARK  4 active torsions:
REMARK  status: ('A' for Active; 'I' for Inactive)
REMARK    1  A    between atoms: C_4  and  C_5 
REMARK    2  A    between atoms: C_6  and  N_7 
REMARK    3  A    between atoms: C_9  and  C_10 
REMARK       I    between atoms: C_10  and  N_11 
REMARK    4  A    between atoms: N_11  and  C_12 
ROOT
HETATM    1  C   UNL     1      29.860  49.280  39.933  1.00  0.00     0.019 A 
HETATM    2  C   UNL     1      31.051  48.979  40.513  1.00  0.00     0.111 A 
HETATM    3  C   UNL     1      31.597  47.557  40.390  1.00  0.00     0.273 A 
HETATM    4  O   UNL     1      32.633  47.195  40.949  1.00  0.00    -0.266 OA
HETATM    5  N   UNL     1      30.890  46.664  39.641  1.00  0.00    -0.321 N 
HETATM    6  C   UNL     1      29.681  46.960  39.021  1.00  0.00     0.046 A 
HETATM    7  C   UNL     1      29.136  48.242  39.148  1.00  0.00     0.006 A 
HETATM    8  C   UNL     1      29.034  45.960  38.290  1.00  0.00     0.032 A 
HETATM    9  C   UNL     1      27.817  46.236  37.670  1.00  0.00     0.026 A 
HETATM   10  C   UNL     1      27.261  47.508  37.785  1.00  0.00     0.035 A 
HETATM   11 CL   UNL     1      25.756  47.849  37.023  1.00  0.00    -0.084 Cl
HETATM   12  C   UNL     1      27.912  48.506  38.514  1.00  0.00     0.038 A 
HETATM   13  H   UNL     1      31.290  45.738  39.579  1.00  0.00     0.169 HD
ENDROOT
BRANCH   2  14
HETATM   14  N   UNL     1      31.819  49.898  41.279  1.00  0.00    -0.375 N 
HETATM   15  C   UNL     1      33.095  50.369  40.690  1.00  0.00     0.137 C 
HETATM   16  C   UNL     1      33.684  51.557  41.456  1.00  0.00     0.096 C 
HETATM   17  C   UNL     1      33.742  51.304  42.965  1.00  0.00     0.017 C 
HETATM   18  C   UNL     1      32.382  50.848  43.480  1.00  0.00     0.021 C 
HETATM   19  C   UNL     1      31.913  49.611  42.724  1.00  0.00     0.123 C 
BRANCH  16  20
HETATM   20  C   UNL     1      35.065  51.914  40.903  1.00  0.00     0.229 C 
HETATM   21  N   UNL     1      35.273  51.498  39.600  1.00  0.00    -0.311 N 
HETATM   22  H   UNL     1      34.521  51.029  39.119  1.00  0.00     0.170 HD
HETATM   23  O   UNL     1      35.861  52.521  41.614  1.00  0.00    -0.273 OA
BRANCH  21  24
HETATM   24  C   UNL     1      36.434  51.705  38.842  1.00  0.00     0.129 A 
HETATM   25  N   UNL     1      36.698  52.898  38.285  1.00  0.00    -0.243 NA
HETATM   26  C   UNL     1      37.836  53.027  37.570  1.00  0.00     0.119 A 
HETATM   27  C   UNL     1      38.743  52.001  37.376  1.00  0.00     0.019 A 
HETATM   28  C   UNL     1      38.464  50.771  37.952  1.00  0.00     0.005 A 
HETATM   29  C   UNL     1      37.297  50.620  38.700  1.00  0.00     0.050 A 
ENDBRANCH  21  24
ENDBRANCH  16  20
ENDBRANCH   2  14
BRANCH   1  30
HETATM   30  C   UNL     1      29.331  50.655  40.120  1.00  0.00    -0.023 A 
HETATM   31  C   UNL     1      28.505  50.960  41.210  1.00  0.00     0.012 A 
HETATM   32  C   UNL     1      28.052  52.266  41.403  1.00  0.00     0.001 A 
HETATM   33  C   UNL     1      28.417  53.273  40.510  1.00  0.00     0.000 A 
HETATM   34  C   UNL     1      29.234  52.976  39.419  1.00  0.00     0.001 A 
HETATM   35  C   UNL     1      29.691  51.672  39.225  1.00  0.00     0.012 A 
ENDBRANCH   1  30
TORSDOF 4
ENDMDL
MODEL 5
REMARK VINA RESULT:      -9.5      6.808     12.489
REMARK  4 active torsions:
REMARK  status: ('A' for Active; 'I' for Inactive)
REMARK    1  A    between atoms: C_4  and  C_5 
REMARK    2  A    between atoms: C_6  and  N_7 
REMARK    3  A    between atoms: C_9  and  C_10 
REMARK       I    between atoms: C_10  and  N_11 
REMARK    4  A    between atoms: N_11  and  C_12 
ROOT
HETATM    1  C   UNL     1      17.755  48.125  46.554  1.00  0.00     0.019 A 
HETATM    2  C   UNL     1      18.607  48.017  47.606  1.00  0.00     0.111 A 
HETATM    3  C   UNL     1      19.021  46.626  48.085  1.00  0.00     0.273 A 
HETATM    4  O   UNL     1      19.732  46.451  49.075  1.00  0.00    -0.266 OA
HETATM    5  N   UNL     1      18.563  45.548  47.387  1.00  0.00    -0.321 N 
HETATM    6  C   UNL     1      17.709  45.640  46.294  1.00  0.00     0.046 A 
HETATM    7  C   UNL     1      17.282  46.898  45.855  1.00  0.00     0.006 A 
HETATM    8  C   UNL     1      17.290  44.465  45.663  1.00  0.00     0.032 A 
HETATM    9  C   UNL     1      16.426  44.538  44.572  1.00  0.00     0.026 A 
HETATM   10  C   UNL     1      15.993  45.783  44.121  1.00  0.00     0.035 A 
HETATM   11 CL   UNL     1      14.923  45.873  42.776  1.00  0.00    -0.084 Cl
HETATM   12  C   UNL     1      16.416  46.955  44.752  1.00  0.00     0.038 A 
HETATM   13  H   UNL     1      18.866  44.648  47.732  1.00  0.00     0.169 HD
ENDROOT
BRANCH   2  14
HETATM   14  N   UNL     1      19.116  49.125  48.335  1.00  0.00    -0.375 N 
HETATM   15  C   UNL     1      20.585  49.190  48.531  1.00  0.00     0.137 C 
HETATM   16  C   UNL     1      21.039  50.551  49.067  1.00  0.00     0.096 C 
HETATM   17  C   UNL     1      20.221  51.001  50.281  1.00  0.00     0.017 C 
HETATM   18  C   UNL     1      18.730  50.922  49.975  1.00  0.00     0.021 C 
HETATM   19  C   UNL     1      18.349  49.513  49.536  1.00  0.00     0.123 C 
BRANCH  16  20
HETATM   20  C   UNL     1      22.534  50.523  49.388  1.00  0.00     0.229 C 
HETATM   21  N   UNL     1      23.198  49.420  48.879  1.00  0.00    -0.311 N 
HETATM   22  H   UNL     1      22.674  48.753  48.333  1.00  0.00     0.170 HD
HETATM   23  O   UNL     1      23.028  51.436  50.043  1.00  0.00    -0.273 OA
BRANCH  21  24
HETATM   24  C   UNL     1      24.567  49.149  49.007  1.00  0.00     0.129 A 
HETATM   25  N   UNL     1      25.012  48.181  49.824  1.00  0.00    -0.243 NA
HETATM   26  C   UNL     1      26.344  47.973  49.896  1.00  0.00     0.119 A 
HETATM   27  C   UNL     1      27.277  48.702  49.180  1.00  0.00     0.019 A 
HETATM   28  C   UNL     1      26.812  49.702  48.339  1.00  0.00     0.005 A 
HETATM   29  C   UNL     1      25.439  49.926  48.246  1.00  0.00     0.050 A 
ENDBRANCH  21  24
ENDBRANCH  16  20
ENDBRANCH   2  14
BRANCH   1  30
HETATM   30  C   UNL     1      17.328  49.490  46.150  1.00  0.00    -0.023 A 
HETATM   31  C   UNL     1      16.166  50.060  46.682  1.00  0.00     0.012 A 
HETATM   32  C   UNL     1      15.799  51.361  46.332  1.00  0.00     0.001 A 
HETATM   33  C   UNL     1      16.589  52.097  45.449  1.00  0.00     0.000 A 
HETATM   34  C   UNL     1      17.745  51.534  44.911  1.00  0.00     0.001 A 
HETATM   35  C   UNL     1      18.115  50.234  45.260  1.00  0.00     0.012 A 
ENDBRANCH   1  30
TORSDOF 4
ENDMDL
MODEL 6
REMARK VINA RESULT:      -9.4      7.174     13.617
REMARK  4 active torsions:
REMARK  status: ('A' for Active; 'I' for Inactive)
REMARK    1  A    between atoms: C_4  and  C_5 
REMARK    2  A    between atoms: C_6  and  N_7 
REMARK    3  A    between atoms: C_9  and  C_10 
REMARK       I    between atoms: C_10  and  N_11 
REMARK    4  A    between atoms: N_11  and  C_12 
ROOT
HETATM    1  C   UNL     1      17.498  50.929  46.033  1.00  0.00     0.019 A 
HETATM    2  C   UNL     1      18.160  49.752  45.876  1.00  0.00     0.111 A 
HETATM    3  C   UNL     1      18.294  49.158  44.475  1.00  0.00     0.273 A 
HETATM    4  O   UNL     1      18.817  48.063  44.267  1.00  0.00    -0.266 OA
HETATM    5  N   UNL     1      17.796  49.874  43.427  1.00  0.00    -0.321 N 
HETATM    6  C   UNL     1      17.135  51.090  43.565  1.00  0.00     0.046 A 
HETATM    7  C   UNL     1      16.963  51.641  44.840  1.00  0.00     0.006 A 
HETATM    8  C   UNL     1      16.651  51.730  42.421  1.00  0.00     0.032 A 
HETATM    9  C   UNL     1      15.979  52.944  42.542  1.00  0.00     0.026 A 
HETATM   10  C   UNL     1      15.800  53.508  43.803  1.00  0.00     0.035 A 
HETATM   11 CL   UNL     1      14.967  55.006  43.953  1.00  0.00    -0.084 Cl
HETATM   12  C   UNL     1      16.289  52.868  44.944  1.00  0.00     0.038 A 
HETATM   13  H   UNL     1      17.911  49.449  42.518  1.00  0.00     0.169 HD
ENDROOT
BRANCH   2  14
HETATM   14  N   UNL     1      18.708  48.999  46.949  1.00  0.00    -0.375 N 
HETATM   15  C   UNL     1      20.183  48.841  46.981  1.00  0.00     0.137 C 
HETATM   16  C   UNL     1      20.676  48.271  48.314  1.00  0.00     0.096 C 
HETATM   17  C   UNL     1      19.899  47.019  48.734  1.00  0.00     0.017 C 
HETATM   18  C   UNL     1      18.399  47.287  48.692  1.00  0.00     0.021 C 
HETATM   19  C   UNL     1      17.981  47.765  47.307  1.00  0.00     0.123 C 
BRANCH  16  20
HETATM   20  C   UNL     1      22.178  47.991  48.249  1.00  0.00     0.229 C 
HETATM   21  N   UNL     1      22.957  48.966  48.848  1.00  0.00    -0.311 N 
HETATM   22  H   UNL     1      22.496  49.747  49.288  1.00  0.00     0.170 HD
HETATM   23  O   UNL     1      22.579  46.969  47.698  1.00  0.00    -0.273 OA
BRANCH  21  24
HETATM   24  C   UNL     1      24.356  48.958  48.949  1.00  0.00     0.129 A 
HETATM   25  N   UNL     1      24.990  48.096  49.759  1.00  0.00    -0.243 NA
HETATM   26  C   UNL     1      26.339  48.142  49.805  1.00  0.00     0.119 A 
HETATM   27  C   UNL     1      27.104  49.029  49.070  1.00  0.00     0.019 A 
HETATM   28  C   UNL     1      26.443  49.920  48.236  1.00  0.00     0.005 A 
HETATM   29  C   UNL     1      25.051  49.881  48.170  1.00  0.00     0.050 A 
ENDBRANCH  21  24
ENDBRANCH  16  20
ENDBRANCH   2  14
BRANCH   1  30
HETATM   30  C   UNL     1      17.337  51.450  47.414  1.00  0.00    -0.023 A 
HETATM   31  C   UNL     1      18.381  52.139  48.043  1.00  0.00     0.012 A 
HETATM   32  C   UNL     1      18.204  52.666  49.323  1.00  0.00     0.001 A 
HETATM   33  C   UNL     1      16.985  52.507  49.983  1.00  0.00     0.000 A 
HETATM   34  C   UNL     1      15.942  51.817  49.365  1.00  0.00     0.001 A 
HETATM   35  C   UNL     1      16.116  51.290  48.085  1.00  0.00     0.012 A 
ENDBRANCH   1  30
TORSDOF 4
ENDMDL
MODEL 7
REMARK VINA RESULT:      -9.2     13.501     16.486
REMARK  4 active torsions:
REMARK  status: ('A' for Active; 'I' for Inactive)
REMARK    1  A    between atoms: C_4  and  C_5 
REMARK    2  A    between atoms: C_6  and  N_7 
REMARK    3  A    between atoms: C_9  and  C_10 
REMARK       I    between atoms: C_10  and  N_11 
REMARK    4  A    between atoms: N_11  and  C_12 
ROOT
HETATM    1  C   UNL     1      30.126  49.308  40.086  1.00  0.00     0.019 A 
HETATM    2  C   UNL     1      31.307  49.033  40.700  1.00  0.00     0.111 A 
HETATM    3  C   UNL     1      31.882  47.620  40.602  1.00  0.00     0.273 A 
HETATM    4  O   UNL     1      32.909  47.282  41.190  1.00  0.00    -0.266 OA
HETATM    5  N   UNL     1      31.212  46.709  39.841  1.00  0.00    -0.321 N 
HETATM    6  C   UNL     1      30.014  46.978  39.187  1.00  0.00     0.046 A 
HETATM    7  C   UNL     1      29.443  48.251  39.290  1.00  0.00     0.006 A 
HETATM    8  C   UNL     1      29.405  45.961  38.447  1.00  0.00     0.032 A 
HETATM    9  C   UNL     1      28.200  46.211  37.794  1.00  0.00     0.026 A 
HETATM   10  C   UNL     1      27.618  47.473  37.884  1.00  0.00     0.035 A 
HETATM   11 CL   UNL     1      26.128  47.781  37.080  1.00  0.00    -0.084 Cl
HETATM   12  C   UNL     1      28.232  48.488  38.622  1.00  0.00     0.038 A 
HETATM   13  H   UNL     1      31.630  45.791  39.797  1.00  0.00     0.169 HD
ENDROOT
BRANCH   2  14
HETATM   14  N   UNL     1      32.037  49.971  41.478  1.00  0.00    -0.375 N 
HETATM   15  C   UNL     1      33.411  50.302  41.028  1.00  0.00     0.137 C 
HETATM   16  C   UNL     1      33.984  51.519  41.759  1.00  0.00     0.096 C 
HETATM   17  C   UNL     1      33.829  51.410  43.279  1.00  0.00     0.017 C 
HETATM   18  C   UNL     1      32.383  51.093  43.643  1.00  0.00     0.021 C 
HETATM   19  C   UNL     1      31.923  49.820  42.943  1.00  0.00     0.123 C 
BRANCH  16  20
HETATM   20  C   UNL     1      35.447  51.733  41.368  1.00  0.00     0.229 C 
HETATM   21  N   UNL     1      36.081  52.729  42.089  1.00  0.00    -0.311 N 
HETATM   22  H   UNL     1      35.562  53.208  42.809  1.00  0.00     0.170 HD
HETATM   23  O   UNL     1      35.944  51.039  40.485  1.00  0.00    -0.273 OA
BRANCH  21  24
HETATM   24  C   UNL     1      37.420  53.123  41.952  1.00  0.00     0.129 A 
HETATM   25  N   UNL     1      38.399  52.513  42.638  1.00  0.00    -0.243 NA
HETATM   26  C   UNL     1      39.666  52.942  42.455  1.00  0.00     0.119 A 
HETATM   27  C   UNL     1      40.013  53.978  41.605  1.00  0.00     0.019 A 
HETATM   28  C   UNL     1      38.996  54.607  40.901  1.00  0.00     0.005 A 
HETATM   29  C   UNL     1      37.683  54.171  41.071  1.00  0.00     0.050 A 
ENDBRANCH  21  24
ENDBRANCH  16  20
ENDBRANCH   2  14
BRANCH   1  30
HETATM   30  C   UNL     1      29.567  50.674  40.249  1.00  0.00    -0.023 A 
HETATM   31  C   UNL     1      29.903  51.694  39.349  1.00  0.00     0.012 A 
HETATM   32  C   UNL     1      29.335  52.962  39.483  1.00  0.00     0.001 A 
HETATM   33  C   UNL     1      28.432  53.220  40.514  1.00  0.00     0.000 A 
HETATM   34  C   UNL     1      28.098  52.211  41.417  1.00  0.00     0.001 A 
HETATM   35  C   UNL     1      28.662  50.942  41.286  1.00  0.00     0.012 A 
ENDBRANCH   1  30
TORSDOF 4
ENDMDL
MODEL 8
REMARK VINA RESULT:      -9.2     12.784     15.551
REMARK  4 active torsions:
REMARK  status: ('A' for Active; 'I' for Inactive)
REMARK    1  A    between atoms: C_4  and  C_5 
REMARK    2  A    between atoms: C_6  and  N_7 
REMARK    3  A    between atoms: C_9  and  C_10 
REMARK       I    between atoms: C_10  and  N_11 
REMARK    4  A    between atoms: N_11  and  C_12 
ROOT
HETATM    1  C   UNL     1      28.802  48.499  39.837  1.00  0.00     0.019 A 
HETATM    2  C   UNL     1      28.474  49.694  39.281  1.00  0.00     0.111 A 
HETATM    3  C   UNL     1      27.283  49.764  38.324  1.00  0.00     0.273 A 
HETATM    4  O   UNL     1      26.972  50.796  37.729  1.00  0.00    -0.266 OA
HETATM    5  N   UNL     1      26.558  48.627  38.123  1.00  0.00    -0.321 N 
HETATM    6  C   UNL     1      26.866  47.400  38.702  1.00  0.00     0.046 A 
HETATM    7  C   UNL     1      27.972  47.296  39.552  1.00  0.00     0.006 A 
HETATM    8  C   UNL     1      26.060  46.295  38.412  1.00  0.00     0.032 A 
HETATM    9  C   UNL     1      26.359  45.057  38.976  1.00  0.00     0.026 A 
HETATM   10  C   UNL     1      27.457  44.936  39.825  1.00  0.00     0.035 A 
HETATM   11 CL   UNL     1      27.829  43.406  40.519  1.00  0.00    -0.084 Cl
HETATM   12  C   UNL     1      28.257  46.043  40.116  1.00  0.00     0.038 A 
HETATM   13  H   UNL     1      25.776  48.718  37.491  1.00  0.00     0.169 HD
ENDROOT
BRANCH   2  14
HETATM   14  N   UNL     1      29.199  50.897  39.492  1.00  0.00    -0.375 N 
HETATM   15  C   UNL     1      30.678  50.816  39.428  1.00  0.00     0.137 C 
HETATM   16  C   UNL     1      31.334  52.200  39.381  1.00  0.00     0.096 C 
HETATM   17  C   UNL     1      30.801  53.133  40.472  1.00  0.00     0.017 C 
HETATM   18  C   UNL     1      29.277  53.168  40.443  1.00  0.00     0.021 C 
HETATM   19  C   UNL     1      28.708  51.761  40.585  1.00  0.00     0.123 C 
BRANCH  16  20
HETATM   20  C   UNL     1      32.856  52.069  39.461  1.00  0.00     0.229 C 
HETATM   21  N   UNL     1      33.343  51.965  40.752  1.00  0.00    -0.311 N 
HETATM   22  H   UNL     1      32.685  51.958  41.516  1.00  0.00     0.170 HD
HETATM   23  O   UNL     1      33.516  52.063  38.426  1.00  0.00    -0.273 OA
BRANCH  21  24
HETATM   24  C   UNL     1      34.689  51.818  41.117  1.00  0.00     0.129 A 
HETATM   25  N   UNL     1      35.582  52.794  40.890  1.00  0.00    -0.243 NA
HETATM   26  C   UNL     1      36.861  52.586  41.270  1.00  0.00     0.119 A 
HETATM   27  C   UNL     1      37.305  51.423  41.874  1.00  0.00     0.019 A 
HETATM   28  C   UNL     1      36.378  50.417  42.103  1.00  0.00     0.005 A 
HETATM   29  C   UNL     1      35.051  50.617  41.725  1.00  0.00     0.050 A 
ENDBRANCH  21  24
ENDBRANCH  16  20
ENDBRANCH   2  14
BRANCH   1  30
HETATM   30  C   UNL     1      29.998  48.455  40.717  1.00  0.00    -0.023 A 
HETATM   31  C   UNL     1      29.908  48.832  42.063  1.00  0.00     0.012 A 
HETATM   32  C   UNL     1      31.027  48.742  42.893  1.00  0.00     0.001 A 
HETATM   33  C   UNL     1      32.240  48.277  42.385  1.00  0.00     0.000 A 
HETATM   34  C   UNL     1      32.339  47.905  41.044  1.00  0.00     0.001 A 
HETATM   35  C   UNL     1      31.222  47.992  40.212  1.00  0.00     0.012 A 
ENDBRANCH   1  30
TORSDOF 4
ENDMDL
MODEL 9
REMARK VINA RESULT:      -9.1      4.116      9.864
REMARK  4 active torsions:
REMARK  status: ('A' for Active; 'I' for Inactive)
REMARK    1  A    between atoms: C_4  and  C_5 
REMARK    2  A    between atoms: C_6  and  N_7 
REMARK    3  A    between atoms: C_9  and  C_10 
REMARK       I    between atoms: C_10  and  N_11 
REMARK    4  A    between atoms: N_11  and  C_12 
ROOT
HETATM    1  C   UNL     1      21.322  48.283  48.708  1.00  0.00     0.019 A 
HETATM    2  C   UNL     1      22.330  49.061  49.182  1.00  0.00     0.111 A 
HETATM    3  C   UNL     1      22.000  50.449  49.729  1.00  0.00     0.273 A 
HETATM    4  O   UNL     1      22.869  51.235  50.108  1.00  0.00    -0.266 OA
HETATM    5  N   UNL     1      20.690  50.822  49.779  1.00  0.00    -0.321 N 
HETATM    6  C   UNL     1      19.642  50.030  49.320  1.00  0.00     0.046 A 
HETATM    7  C   UNL     1      19.916  48.769  48.778  1.00  0.00     0.006 A 
HETATM    8  C   UNL     1      18.336  50.520  49.406  1.00  0.00     0.032 A 
HETATM    9  C   UNL     1      17.276  49.744  48.943  1.00  0.00     0.026 A 
HETATM   10  C   UNL     1      17.531  48.487  48.402  1.00  0.00     0.035 A 
HETATM   11 CL   UNL     1      16.222  47.529  47.826  1.00  0.00    -0.084 Cl
HETATM   12  C   UNL     1      18.837  47.998  48.321  1.00  0.00     0.038 A 
HETATM   13  H   UNL     1      20.515  51.743  50.154  1.00  0.00     0.169 HD
ENDROOT
BRANCH   2  14
HETATM   14  N   UNL     1      23.701  48.687  49.162  1.00  0.00    -0.375 N 
HETATM   15  C   UNL     1      24.216  47.945  50.339  1.00  0.00     0.137 C 
HETATM   16  C   UNL     1      25.604  47.349  50.086  1.00  0.00     0.096 C 
HETATM   17  C   UNL     1      26.583  48.377  49.510  1.00  0.00     0.017 C 
HETATM   18  C   UNL     1      25.974  49.066  48.295  1.00  0.00     0.021 C 
HETATM   19  C   UNL     1      24.640  49.708  48.658  1.00  0.00     0.123 C 
BRANCH  16  20
HETATM   20  C   UNL     1      26.154  46.721  51.368  1.00  0.00     0.229 C 
HETATM   21  N   UNL     1      26.405  45.364  51.266  1.00  0.00    -0.311 N 
HETATM   22  H   UNL     1      26.236  44.909  50.382  1.00  0.00     0.170 HD
HETATM   23  O   UNL     1      26.332  47.426  52.357  1.00  0.00    -0.273 OA
BRANCH  21  24
HETATM   24  C   UNL     1      26.925  44.542  52.276  1.00  0.00     0.129 A 
HETATM   25  N   UNL     1      26.249  44.328  53.416  1.00  0.00    -0.243 NA
HETATM   26  C   UNL     1      26.808  43.523  54.344  1.00  0.00     0.119 A 
HETATM   27  C   UNL     1      28.039  42.911  54.191  1.00  0.00     0.019 A 
HETATM   28  C   UNL     1      28.734  43.138  53.012  1.00  0.00     0.005 A 
HETATM   29  C   UNL     1      28.168  43.960  52.038  1.00  0.00     0.050 A 
ENDBRANCH  21  24
ENDBRANCH  16  20
ENDBRANCH   2  14
BRANCH   1  30
HETATM   30  C   UNL     1      21.683  46.963  48.131  1.00  0.00    -0.023 A 
HETATM   31  C   UNL     1      21.882  45.852  48.961  1.00  0.00     0.012 A 
HETATM   32  C   UNL     1      22.175  44.605  48.406  1.00  0.00     0.001 A 
HETATM   33  C   UNL     1      22.272  44.460  47.022  1.00  0.00     0.000 A 
HETATM   34  C   UNL     1      22.081  45.563  46.190  1.00  0.00     0.001 A 
HETATM   35  C   UNL     1      21.787  46.810  46.742  1.00  0.00     0.012 A 
ENDBRANCH   1  30
TORSDOF 4
ENDMDL
MODEL 10
REMARK VINA RESULT:      -8.8      5.285      7.269
REMARK  4 active torsions:
REMARK  status: ('A' for Active; 'I' for Inactive)
REMARK    1  A    between atoms: C_4  and  C_5 
REMARK    2  A    between atoms: C_6  and  N_7 
REMARK    3  A    between atoms: C_9  and  C_10 
REMARK       I    between atoms: C_10  and  N_11 
REMARK    4  A    between atoms: N_11  and  C_12 
ROOT
HETATM    1  C   UNL     1      27.381  43.092  51.194  1.00  0.00     0.019 A 
HETATM    2  C   UNL     1      27.443  41.965  50.436  1.00  0.00     0.111 A 
HETATM    3  C   UNL     1      28.344  40.816  50.888  1.00  0.00     0.273 A 
HETATM    4  O   UNL     1      28.504  39.797  50.216  1.00  0.00    -0.266 OA
HETATM    5  N   UNL     1      29.000  40.948  52.076  1.00  0.00    -0.321 N 
HETATM    6  C   UNL     1      28.931  42.084  52.876  1.00  0.00     0.046 A 
HETATM    7  C   UNL     1      28.145  43.168  52.470  1.00  0.00     0.006 A 
HETATM    8  C   UNL     1      29.659  42.116  54.068  1.00  0.00     0.032 A 
HETATM    9  C   UNL     1      29.609  43.249  54.877  1.00  0.00     0.026 A 
HETATM   10  C   UNL     1      28.831  44.336  54.489  1.00  0.00     0.035 A 
HETATM   11 CL   UNL     1      28.771  45.738  55.486  1.00  0.00    -0.084 Cl
HETATM   12  C   UNL     1      28.101  44.300  53.298  1.00  0.00     0.038 A 
HETATM   13  H   UNL     1      29.578  40.164  52.341  1.00  0.00     0.169 HD
ENDROOT
BRANCH   2  14
HETATM   14  N   UNL     1      26.751  41.794  49.206  1.00  0.00    -0.375 N 
HETATM   15  C   UNL     1      25.339  41.349  49.281  1.00  0.00     0.137 C 
HETATM   16  C   UNL     1      24.618  41.478  47.936  1.00  0.00     0.096 C 
HETATM   17  C   UNL     1      25.416  40.854  46.787  1.00  0.00     0.017 C 
HETATM   18  C   UNL     1      26.843  41.389  46.779  1.00  0.00     0.021 C 
HETATM   19  C   UNL     1      27.514  41.140  48.124  1.00  0.00     0.123 C 
BRANCH  16  20
HETATM   20  C   UNL     1      23.215  40.875  48.025  1.00  0.00     0.229 C 
HETATM   21  N   UNL     1      23.023  39.776  47.207  1.00  0.00    -0.311 N 
HETATM   22  H   UNL     1      23.798  39.449  46.650  1.00  0.00     0.170 HD
HETATM   23  O   UNL     1      22.389  41.378  48.782  1.00  0.00    -0.273 OA
BRANCH  21  24
HETATM   24  C   UNL     1      21.847  39.021  47.101  1.00  0.00     0.129 A 
HETATM   25  N   UNL     1      20.639  39.588  47.257  1.00  0.00    -0.243 NA
HETATM   26  C   UNL     1      19.549  38.801  47.139  1.00  0.00     0.119 A 
HETATM   27  C   UNL     1      19.603  37.445  46.872  1.00  0.00     0.019 A 
HETATM   28  C   UNL     1      20.853  36.864  46.714  1.00  0.00     0.005 A 
HETATM   29  C   UNL     1      21.991  37.662  46.824  1.00  0.00     0.050 A 
ENDBRANCH  21  24
ENDBRANCH  16  20
ENDBRANCH   2  14
BRANCH   1  30
HETATM   30  C   UNL     1      26.541  44.211  50.697  1.00  0.00    -0.023 A 
HETATM   31  C   UNL     1      25.184  44.288  51.034  1.00  0.00     0.012 A 
HETATM   32  C   UNL     1      24.414  45.369  50.601  1.00  0.00     0.001 A 
HETATM   33  C   UNL     1      24.992  46.376  49.829  1.00  0.00     0.000 A 
HETATM   34  C   UNL     1      26.342  46.303  49.484  1.00  0.00     0.001 A 
HETATM   35  C   UNL     1      27.115  45.225  49.917  1.00  0.00     0.012 A 
ENDBRANCH   1  30
TORSDOF 4
ENDMDL
