MODEL 1
REMARK VINA RESULT:      -9.6      0.000      0.000
REMARK  4 active torsions:
REMARK  status: ('A' for Active; 'I' for Inactive)
REMARK       I    between atoms: C_2  and  N_3 
REMARK    1  A    between atoms: N_3  and  C_4 
REMARK    2  A    between atoms: C_7  and  C_8 
REMARK    3  A    between atoms: C_12  and  N_13 
REMARK    4  A    between atoms: C_20  and  C_21 
ROOT
HETATM    1  C   UNL     1      26.099  43.491  51.702  1.00  0.00     0.105 C 
HETATM    2  C   UNL     1      25.392  42.527  50.754  1.00  0.00     0.067 C 
HETATM    3  C   UNL     1      23.897  42.740  50.588  1.00  0.00     0.020 C 
HETATM    4  N   UNL     1      22.656  42.917  50.450  1.00  0.00    -0.096 N 
HETATM    5  C   UNL     1      25.995  41.440  50.202  1.00  0.00     0.139 C 
HETATM    6  O   UNL     1      27.339  41.124  50.479  1.00  0.00    -0.279 OA
HETATM    7  C   UNL     1      27.921  41.842  51.435  1.00  0.00     0.175 A 
HETATM    8  C   UNL     1      27.431  42.945  52.085  1.00  0.00     0.040 A 
HETATM    9  N   UNL     1      29.142  41.585  51.963  1.00  0.00    -0.256 N 
HETATM   10  H   UNL     1      29.789  40.842  51.723  1.00  0.00     0.191 HD
HETATM   11  N   UNL     1      29.479  42.450  52.938  1.00  0.00    -0.172 NA
HETATM   12  C   UNL     1      28.417  43.274  53.054  1.00  0.00     0.099 A 
ENDROOT
BRANCH   1  13
HETATM   13  C   UNL     1      26.345  44.849  51.058  1.00  0.00    -0.044 A 
HETATM   14  C   UNL     1      25.646  45.973  51.522  1.00  0.00     0.010 A 
HETATM   15  C   UNL     1      25.809  47.234  50.927  1.00  0.00     0.030 A 
HETATM   16  C   UNL     1      26.678  47.408  49.853  1.00  0.00     0.034 A 
HETATM   17  C   UNL     1      27.370  46.287  49.378  1.00  0.00     0.030 A 
HETATM   18  C   UNL     1      27.202  45.027  49.961  1.00  0.00     0.010 A 
BRANCH  16  19
HETATM   19  N   UNL     1      26.928  48.614  49.175  1.00  0.00    -0.328 N 
HETATM   20  C   UNL     1      26.154  49.536  48.540  1.00  0.00     0.218 C 
HETATM   21  C   UNL     1      24.664  49.406  48.462  1.00  0.00     0.117 C 
HETATM   22  O   UNL     1      26.720  50.503  48.019  1.00  0.00    -0.274 OA
HETATM   23  H   UNL     1      27.899  48.900  49.128  1.00  0.00     0.169 HD
ENDBRANCH  16  19
ENDBRANCH   1  13
BRANCH   5  24
HETATM   24  N   UNL     1      25.391  40.531  49.365  1.00  0.00    -0.282 NA
HETATM   25  H   UNL     1      24.418  40.319  49.574  1.00  0.00     0.126 HD
HETATM   26  H   UNL     1      25.548  40.748  48.384  1.00  0.00     0.126 HD
ENDBRANCH   5  24
BRANCH  12  27
HETATM   27  C   UNL     1      28.399  44.332  54.062  1.00  0.00    -0.005 A 
HETATM   28  C   UNL     1      29.492  44.499  54.923  1.00  0.00     0.014 A 
HETATM   29  C   UNL     1      29.485  45.502  55.896  1.00  0.00     0.001 A 
HETATM   30  C   UNL     1      28.383  46.344  56.021  1.00  0.00     0.000 A 
HETATM   31  C   UNL     1      27.283  46.180  55.180  1.00  0.00     0.001 A 
HETATM   32  C   UNL     1      27.288  45.175  54.209  1.00  0.00     0.014 A 
ENDBRANCH  12  27
TORSDOF 4
ENDMDL
MODEL 2
REMARK VINA RESULT:      -8.8      3.209      6.824
REMARK  4 active torsions:
REMARK  status: ('A' for Active; 'I' for Inactive)
REMARK       I    between atoms: C_2  and  N_3 
REMARK    1  A    between atoms: N_3  and  C_4 
REMARK    2  A    between atoms: C_7  and  C_8 
REMARK    3  A    between atoms: C_12  and  N_13 
REMARK    4  A    between atoms: C_20  and  C_21 
ROOT
HETATM    1  C   UNL     1      23.543  45.534  48.246  1.00  0.00     0.105 C 
HETATM    2  C   UNL     1      22.422  44.613  47.773  1.00  0.00     0.067 C 
HETATM    3  C   UNL     1      22.850  43.441  46.905  1.00  0.00     0.020 C 
HETATM    4  N   UNL     1      23.205  42.468  46.186  1.00  0.00    -0.096 N 
HETATM    5  C   UNL     1      21.102  44.881  47.961  1.00  0.00     0.139 C 
HETATM    6  O   UNL     1      20.675  46.052  48.614  1.00  0.00    -0.279 OA
HETATM    7  C   UNL     1      21.618  46.951  48.876  1.00  0.00     0.175 A 
HETATM    8  C   UNL     1      22.976  46.824  48.725  1.00  0.00     0.040 A 
HETATM    9  N   UNL     1      21.390  48.203  49.342  1.00  0.00    -0.256 N 
HETATM   10  H   UNL     1      20.503  48.640  49.564  1.00  0.00     0.191 HD
HETATM   11  N   UNL     1      22.522  48.916  49.491  1.00  0.00    -0.172 NA
HETATM   12  C   UNL     1      23.509  48.093  49.079  1.00  0.00     0.099 A 
ENDROOT
BRANCH   1  13
HETATM   13  C   UNL     1      24.324  44.933  49.408  1.00  0.00    -0.044 A 
HETATM   14  C   UNL     1      25.628  44.462  49.197  1.00  0.00     0.010 A 
HETATM   15  C   UNL     1      26.365  43.862  50.230  1.00  0.00     0.030 A 
HETATM   16  C   UNL     1      25.821  43.717  51.504  1.00  0.00     0.034 A 
HETATM   17  C   UNL     1      24.514  44.175  51.717  1.00  0.00     0.030 A 
HETATM   18  C   UNL     1      23.773  44.764  50.688  1.00  0.00     0.010 A 
BRANCH  16  19
HETATM   19  N   UNL     1      26.455  43.136  52.616  1.00  0.00    -0.328 N 
HETATM   20  C   UNL     1      27.182  43.611  53.664  1.00  0.00     0.218 C 
HETATM   21  C   UNL     1      27.456  45.073  53.843  1.00  0.00     0.117 C 
HETATM   22  O   UNL     1      27.618  42.794  54.480  1.00  0.00    -0.274 OA
HETATM   23  H   UNL     1      26.372  42.128  52.693  1.00  0.00     0.169 HD
ENDBRANCH  16  19
ENDBRANCH   1  13
BRANCH   5  24
HETATM   24  N   UNL     1      20.059  44.094  47.529  1.00  0.00    -0.282 NA
HETATM   25  H   UNL     1      20.172  43.680  46.608  1.00  0.00     0.126 HD
HETATM   26  H   UNL     1      19.767  43.421  48.234  1.00  0.00     0.126 HD
ENDBRANCH   5  24
BRANCH  12  27
HETATM   27  C   UNL     1      24.898  48.546  49.053  1.00  0.00    -0.005 A 
HETATM   28  C   UNL     1      25.861  47.899  49.839  1.00  0.00     0.014 A 
HETATM   29  C   UNL     1      27.192  48.326  49.829  1.00  0.00     0.001 A 
HETATM   30  C   UNL     1      27.571  49.407  49.037  1.00  0.00     0.000 A 
HETATM   31  C   UNL     1      26.620  50.069  48.262  1.00  0.00     0.001 A 
HETATM   32  C   UNL     1      25.288  49.645  48.274  1.00  0.00     0.014 A 
ENDBRANCH  12  27
TORSDOF 4
ENDMDL
MODEL 3
REMARK VINA RESULT:      -8.4      5.883      9.522
REMARK  4 active torsions:
REMARK  status: ('A' for Active; 'I' for Inactive)
REMARK       I    between atoms: C_2  and  N_3 
REMARK    1  A    between atoms: N_3  and  C_4 
REMARK    2  A    between atoms: C_7  and  C_8 
REMARK    3  A    between atoms: C_12  and  N_13 
REMARK    4  A    between atoms: C_20  and  C_21 
ROOT
HETATM    1  C   UNL     1      19.677  47.185  46.648  1.00  0.00     0.105 C 
HETATM    2  C   UNL     1      19.675  45.883  45.852  1.00  0.00     0.067 C 
HETATM    3  C   UNL     1      20.519  45.879  44.588  1.00  0.00     0.020 C 
HETATM    4  N   UNL     1      21.221  45.876  43.540  1.00  0.00    -0.096 N 
HETATM    5  C   UNL     1      18.862  44.831  46.136  1.00  0.00     0.139 C 
HETATM    6  O   UNL     1      17.944  44.878  47.203  1.00  0.00    -0.279 OA
HETATM    7  C   UNL     1      17.800  46.058  47.797  1.00  0.00     0.175 A 
HETATM    8  C   UNL     1      18.534  47.201  47.603  1.00  0.00     0.040 A 
HETATM    9  N   UNL     1      16.855  46.351  48.723  1.00  0.00    -0.256 N 
HETATM   10  H   UNL     1      16.138  45.745  49.104  1.00  0.00     0.191 HD
HETATM   11  N   UNL     1      16.914  47.630  49.139  1.00  0.00    -0.172 NA
HETATM   12  C   UNL     1      17.921  48.181  48.430  1.00  0.00     0.099 A 
ENDROOT
BRANCH   1  13
HETATM   13  C   UNL     1      20.947  47.350  47.473  1.00  0.00    -0.044 A 
HETATM   14  C   UNL     1      21.494  48.629  47.655  1.00  0.00     0.010 A 
HETATM   15  C   UNL     1      22.687  48.819  48.370  1.00  0.00     0.030 A 
HETATM   16  C   UNL     1      23.365  47.737  48.926  1.00  0.00     0.034 A 
HETATM   17  C   UNL     1      22.829  46.457  48.737  1.00  0.00     0.030 A 
HETATM   18  C   UNL     1      21.647  46.262  48.016  1.00  0.00     0.010 A 
BRANCH  16  19
HETATM   19  N   UNL     1      24.563  47.797  49.660  1.00  0.00    -0.328 N 
HETATM   20  C   UNL     1      25.737  48.474  49.528  1.00  0.00     0.218 C 
HETATM   21  C   UNL     1      25.979  49.437  48.407  1.00  0.00     0.117 C 
HETATM   22  O   UNL     1      26.615  48.272  50.373  1.00  0.00    -0.274 OA
HETATM   23  H   UNL     1      24.600  47.217  50.490  1.00  0.00     0.169 HD
ENDBRANCH  16  19
ENDBRANCH   1  13
BRANCH   5  24
HETATM   24  N   UNL     1      18.808  43.651  45.432  1.00  0.00    -0.282 NA
HETATM   25  H   UNL     1      18.883  43.738  44.421  1.00  0.00     0.126 HD
HETATM   26  H   UNL     1      19.430  42.944  45.817  1.00  0.00     0.126 HD
ENDBRANCH   5  24
BRANCH  12  27
HETATM   27  C   UNL     1      18.256  49.596  48.581  1.00  0.00    -0.005 A 
HETATM   28  C   UNL     1      18.140  50.464  47.487  1.00  0.00     0.014 A 
HETATM   29  C   UNL     1      18.462  51.817  47.616  1.00  0.00     0.001 A 
HETATM   30  C   UNL     1      18.908  52.314  48.838  1.00  0.00     0.000 A 
HETATM   31  C   UNL     1      19.042  51.458  49.931  1.00  0.00     0.001 A 
HETATM   32  C   UNL     1      18.722  50.104  49.802  1.00  0.00     0.014 A 
ENDBRANCH  12  27
TORSDOF 4
ENDMDL
MODEL 4
REMARK VINA RESULT:      -8.3      8.016     12.407
REMARK  4 active torsions:
REMARK  status: ('A' for Active; 'I' for Inactive)
REMARK       I    between atoms: C_2  and  N_3 
REMARK    1  A    between atoms: N_3  and  C_4 
REMARK    2  A    between atoms: C_7  and  C_8 
REMARK    3  A    between atoms: C_12  and  N_13 
REMARK    4  A    between atoms: C_20  and  C_21 
ROOT
HETATM    1  C   UNL     1      20.123  50.198  47.320  1.00  0.00     0.105 C 
HETATM    2  C   UNL     1      21.149  49.438  48.157  1.00  0.00     0.067 C 
HETATM    3  C   UNL     1      22.258  50.280  48.767  1.00  0.00     0.020 C 
HETATM    4  N   UNL     1      23.177  50.978  49.275  1.00  0.00    -0.096 N 
HETATM    5  C   UNL     1      21.192  48.082  48.241  1.00  0.00     0.139 C 
HETATM    6  O   UNL     1      20.277  47.272  47.543  1.00  0.00    -0.279 OA
HETATM    7  C   UNL     1      19.491  47.897  46.672  1.00  0.00     0.175 A 
HETATM    8  C   UNL     1      19.353  49.247  46.470  1.00  0.00     0.040 A 
HETATM    9  N   UNL     1      18.668  47.283  45.788  1.00  0.00    -0.256 N 
HETATM   10  H   UNL     1      18.517  46.289  45.655  1.00  0.00     0.191 HD
HETATM   11  N   UNL     1      18.007  48.152  45.001  1.00  0.00    -0.172 NA
HETATM   12  C   UNL     1      18.447  49.370  45.383  1.00  0.00     0.099 A 
ENDROOT
BRANCH   1  13
HETATM   13  C   UNL     1      19.112  50.936  48.187  1.00  0.00    -0.044 A 
HETATM   14  C   UNL     1      18.100  50.216  48.839  1.00  0.00     0.010 A 
HETATM   15  C   UNL     1      17.122  50.862  49.611  1.00  0.00     0.030 A 
HETATM   16  C   UNL     1      17.129  52.247  49.757  1.00  0.00     0.034 A 
HETATM   17  C   UNL     1      18.130  52.973  49.098  1.00  0.00     0.030 A 
HETATM   18  C   UNL     1      19.100  52.333  48.319  1.00  0.00     0.010 A 
BRANCH  16  19
HETATM   19  N   UNL     1      16.209  53.008  50.499  1.00  0.00    -0.328 N 
HETATM   20  C   UNL     1      15.080  53.706  50.202  1.00  0.00     0.218 C 
HETATM   21  C   UNL     1      14.530  53.775  48.810  1.00  0.00     0.117 C 
HETATM   22  O   UNL     1      14.506  54.293  51.125  1.00  0.00    -0.274 OA
HETATM   23  H   UNL     1      16.395  53.075  51.494  1.00  0.00     0.169 HD
ENDBRANCH  16  19
ENDBRANCH   1  13
BRANCH   5  24
HETATM   24  N   UNL     1      22.113  47.356  48.961  1.00  0.00    -0.282 NA
HETATM   25  H   UNL     1      22.891  46.979  48.426  1.00  0.00     0.126 HD
HETATM   26  H   UNL     1      22.408  47.840  49.805  1.00  0.00     0.126 HD
ENDBRANCH   5  24
BRANCH  12  27
HETATM   27  C   UNL     1      17.978  50.579  44.709  1.00  0.00    -0.005 A 
HETATM   28  C   UNL     1      17.164  51.492  45.393  1.00  0.00     0.014 A 
HETATM   29  C   UNL     1      16.703  52.649  44.758  1.00  0.00     0.001 A 
HETATM   30  C   UNL     1      17.048  52.901  43.433  1.00  0.00     0.000 A 
HETATM   31  C   UNL     1      17.845  51.993  42.736  1.00  0.00     0.001 A 
HETATM   32  C   UNL     1      18.304  50.835  43.369  1.00  0.00     0.014 A 
ENDBRANCH  12  27
TORSDOF 4
ENDMDL
MODEL 5
REMARK VINA RESULT:      -8.2      5.603      9.183
REMARK  4 active torsions:
REMARK  status: ('A' for Active; 'I' for Inactive)
REMARK       I    between atoms: C_2  and  N_3 
REMARK    1  A    between atoms: N_3  and  C_4 
REMARK    2  A    between atoms: C_7  and  C_8 
REMARK    3  A    between atoms: C_12  and  N_13 
REMARK    4  A    between atoms: C_20  and  C_21 
ROOT
HETATM    1  C   UNL     1      20.272  46.597  46.621  1.00  0.00     0.105 C 
HETATM    2  C   UNL     1      20.402  45.267  45.882  1.00  0.00     0.067 C 
HETATM    3  C   UNL     1      21.358  45.258  44.701  1.00  0.00     0.020 C 
HETATM    4  N   UNL     1      22.153  45.250  43.722  1.00  0.00    -0.096 N 
HETATM    5  C   UNL     1      19.613  44.189  46.135  1.00  0.00     0.139 C 
HETATM    6  O   UNL     1      18.600  44.231  47.111  1.00  0.00    -0.279 OA
HETATM    7  C   UNL     1      18.350  45.424  47.641  1.00  0.00     0.175 A 
HETATM    8  C   UNL     1      19.047  46.593  47.468  1.00  0.00     0.040 A 
HETATM    9  N   UNL     1      17.311  45.706  48.465  1.00  0.00    -0.256 N 
HETATM   10  H   UNL     1      16.590  45.080  48.804  1.00  0.00     0.191 HD
HETATM   11  N   UNL     1      17.275  47.000  48.832  1.00  0.00    -0.172 NA
HETATM   12  C   UNL     1      18.318  47.572  48.195  1.00  0.00     0.099 A 
ENDROOT
BRANCH   1  13
HETATM   13  C   UNL     1      21.452  46.852  47.550  1.00  0.00    -0.044 A 
HETATM   14  C   UNL     1      22.071  45.773  48.198  1.00  0.00     0.010 A 
HETATM   15  C   UNL     1      23.132  45.969  49.096  1.00  0.00     0.030 A 
HETATM   16  C   UNL     1      23.608  47.249  49.369  1.00  0.00     0.034 A 
HETATM   17  C   UNL     1      22.986  48.331  48.733  1.00  0.00     0.030 A 
HETATM   18  C   UNL     1      21.922  48.141  47.846  1.00  0.00     0.010 A 
BRANCH  16  19
HETATM   19  N   UNL     1      24.659  47.574  50.244  1.00  0.00    -0.328 N 
HETATM   20  C   UNL     1      25.271  46.946  51.285  1.00  0.00     0.218 C 
HETATM   21  C   UNL     1      24.872  45.573  51.731  1.00  0.00     0.117 C 
HETATM   22  O   UNL     1      26.182  47.546  51.864  1.00  0.00    -0.274 OA
HETATM   23  H   UNL     1      25.091  48.480  50.096  1.00  0.00     0.169 HD
ENDBRANCH  16  19
ENDBRANCH   1  13
BRANCH   5  24
HETATM   24  N   UNL     1      19.677  42.983  45.477  1.00  0.00    -0.282 NA
HETATM   25  H   UNL     1      18.912  42.791  44.834  1.00  0.00     0.126 HD
HETATM   26  H   UNL     1      20.592  42.816  45.067  1.00  0.00     0.126 HD
ENDBRANCH   5  24
BRANCH  12  27
HETATM   27  C   UNL     1      18.574  49.006  48.318  1.00  0.00    -0.005 A 
HETATM   28  C   UNL     1      18.826  49.567  49.577  1.00  0.00     0.014 A 
HETATM   29  C   UNL     1      19.066  50.937  49.710  1.00  0.00     0.001 A 
HETATM   30  C   UNL     1      19.051  51.760  48.586  1.00  0.00     0.000 A 
HETATM   31  C   UNL     1      18.788  51.216  47.329  1.00  0.00     0.001 A 
HETATM   32  C   UNL     1      18.544  49.846  47.196  1.00  0.00     0.014 A 
ENDBRANCH  12  27
TORSDOF 4
ENDMDL
MODEL 6
REMARK VINA RESULT:      -8.0     16.636     18.620
REMARK  4 active torsions:
REMARK  status: ('A' for Active; 'I' for Inactive)
REMARK       I    between atoms: C_2  and  N_3 
REMARK    1  A    between atoms: N_3  and  C_4 
REMARK    2  A    between atoms: C_7  and  C_8 
REMARK    3  A    between atoms: C_12  and  N_13 
REMARK    4  A    between atoms: C_20  and  C_21 
ROOT
HETATM    1  C   UNL     1      37.617  45.307  66.485  1.00  0.00     0.105 C 
HETATM    2  C   UNL     1      36.298  44.865  67.115  1.00  0.00     0.067 C 
HETATM    3  C   UNL     1      36.184  45.063  68.617  1.00  0.00     0.020 C 
HETATM    4  N   UNL     1      36.089  45.228  69.864  1.00  0.00    -0.096 N 
HETATM    5  C   UNL     1      35.332  44.190  66.436  1.00  0.00     0.139 C 
HETATM    6  O   UNL     1      35.490  43.843  65.081  1.00  0.00    -0.279 OA
HETATM    7  C   UNL     1      36.695  44.058  64.561  1.00  0.00     0.175 A 
HETATM    8  C   UNL     1      37.761  44.707  65.129  1.00  0.00     0.040 A 
HETATM    9  N   UNL     1      37.097  43.640  63.337  1.00  0.00    -0.256 N 
HETATM   10  H   UNL     1      36.568  43.125  62.642  1.00  0.00     0.191 HD
HETATM   11  N   UNL     1      38.376  43.964  63.071  1.00  0.00    -0.172 NA
HETATM   12  C   UNL     1      38.814  44.591  64.183  1.00  0.00     0.099 A 
ENDROOT
BRANCH   1  13
HETATM   13  C   UNL     1      37.689  46.819  66.311  1.00  0.00    -0.044 A 
HETATM   14  C   UNL     1      36.975  47.432  65.272  1.00  0.00     0.010 A 
HETATM   15  C   UNL     1      37.049  48.816  65.050  1.00  0.00     0.030 A 
HETATM   16  C   UNL     1      37.838  49.627  65.862  1.00  0.00     0.034 A 
HETATM   17  C   UNL     1      38.562  49.018  66.895  1.00  0.00     0.030 A 
HETATM   18  C   UNL     1      38.499  47.638  67.113  1.00  0.00     0.010 A 
BRANCH  16  19
HETATM   19  N   UNL     1      37.995  51.019  65.743  1.00  0.00    -0.328 N 
HETATM   20  C   UNL     1      37.766  52.084  66.558  1.00  0.00     0.218 C 
HETATM   21  C   UNL     1      37.242  51.921  67.952  1.00  0.00     0.117 C 
HETATM   22  O   UNL     1      38.008  53.211  66.115  1.00  0.00    -0.274 OA
HETATM   23  H   UNL     1      38.364  51.346  64.857  1.00  0.00     0.169 HD
ENDBRANCH  16  19
ENDBRANCH   1  13
BRANCH   5  24
HETATM   24  N   UNL     1      34.143  43.750  66.969  1.00  0.00    -0.282 NA
HETATM   25  H   UNL     1      33.435  44.466  67.116  1.00  0.00     0.126 HD
HETATM   26  H   UNL     1      33.784  42.931  66.485  1.00  0.00     0.126 HD
ENDBRANCH   5  24
BRANCH  12  27
HETATM   27  C   UNL     1      40.197  45.054  64.284  1.00  0.00    -0.005 A 
HETATM   28  C   UNL     1      40.468  46.418  64.455  1.00  0.00     0.014 A 
HETATM   29  C   UNL     1      41.785  46.875  64.547  1.00  0.00     0.001 A 
HETATM   30  C   UNL     1      42.844  45.974  64.464  1.00  0.00     0.000 A 
HETATM   31  C   UNL     1      42.588  44.616  64.280  1.00  0.00     0.001 A 
HETATM   32  C   UNL     1      41.271  44.158  64.185  1.00  0.00     0.014 A 
ENDBRANCH  12  27
TORSDOF 4
ENDMDL
MODEL 7
REMARK VINA RESULT:      -8.0      5.709      9.705
REMARK  4 active torsions:
REMARK  status: ('A' for Active; 'I' for Inactive)
REMARK       I    between atoms: C_2  and  N_3 
REMARK    1  A    between atoms: N_3  and  C_4 
REMARK    2  A    between atoms: C_7  and  C_8 
REMARK    3  A    between atoms: C_12  and  N_13 
REMARK    4  A    between atoms: C_20  and  C_21 
ROOT
HETATM    1  C   UNL     1      19.207  48.168  47.181  1.00  0.00     0.105 C 
HETATM    2  C   UNL     1      17.768  47.882  46.761  1.00  0.00     0.067 C 
HETATM    3  C   UNL     1      17.570  47.494  45.305  1.00  0.00     0.020 C 
HETATM    4  N   UNL     1      17.405  47.172  44.097  1.00  0.00    -0.096 N 
HETATM    5  C   UNL     1      16.694  48.103  47.564  1.00  0.00     0.139 C 
HETATM    6  O   UNL     1      16.842  48.627  48.863  1.00  0.00    -0.279 OA
HETATM    7  C   UNL     1      18.060  49.049  49.186  1.00  0.00     0.175 A 
HETATM    8  C   UNL     1      19.224  48.908  48.474  1.00  0.00     0.040 A 
HETATM    9  N   UNL     1      18.371  49.733  50.313  1.00  0.00    -0.256 N 
HETATM   10  H   UNL     1      17.755  50.017  51.067  1.00  0.00     0.191 HD
HETATM   11  N   UNL     1      19.673  50.066  50.377  1.00  0.00    -0.172 NA
HETATM   12  C   UNL     1      20.209  49.598  49.231  1.00  0.00     0.099 A 
ENDROOT
BRANCH   1  13
HETATM   13  C   UNL     1      20.007  46.888  47.392  1.00  0.00    -0.044 A 
HETATM   14  C   UNL     1      19.700  46.050  48.474  1.00  0.00     0.010 A 
HETATM   15  C   UNL     1      20.440  44.885  48.730  1.00  0.00     0.030 A 
HETATM   16  C   UNL     1      21.506  44.523  47.911  1.00  0.00     0.034 A 
HETATM   17  C   UNL     1      21.824  45.363  46.835  1.00  0.00     0.030 A 
HETATM   18  C   UNL     1      21.096  46.530  46.583  1.00  0.00     0.010 A 
BRANCH  16  19
HETATM   19  N   UNL     1      22.321  43.387  48.061  1.00  0.00    -0.328 N 
HETATM   20  C   UNL     1      23.175  42.939  49.021  1.00  0.00     0.218 C 
HETATM   21  C   UNL     1      23.415  43.698  50.290  1.00  0.00     0.117 C 
HETATM   22  O   UNL     1      23.760  41.871  48.818  1.00  0.00    -0.274 OA
HETATM   23  H   UNL     1      22.290  42.719  47.299  1.00  0.00     0.169 HD
ENDBRANCH  16  19
ENDBRANCH   1  13
BRANCH   5  24
HETATM   24  N   UNL     1      15.381  47.885  47.218  1.00  0.00    -0.282 NA
HETATM   25  H   UNL     1      14.850  48.713  46.961  1.00  0.00     0.126 HD
HETATM   26  H   UNL     1      15.280  47.125  46.549  1.00  0.00     0.126 HD
ENDBRANCH   5  24
BRANCH  12  27
HETATM   27  C   UNL     1      21.620  49.817  48.921  1.00  0.00    -0.005 A 
HETATM   28  C   UNL     1      22.549  48.787  49.121  1.00  0.00     0.014 A 
HETATM   29  C   UNL     1      23.903  48.984  48.835  1.00  0.00     0.001 A 
HETATM   30  C   UNL     1      24.341  50.215  48.351  1.00  0.00     0.000 A 
HETATM   31  C   UNL     1      23.429  51.252  48.161  1.00  0.00     0.001 A 
HETATM   32  C   UNL     1      22.075  51.056  48.450  1.00  0.00     0.014 A 
ENDBRANCH  12  27
TORSDOF 4
ENDMDL
MODEL 8
REMARK VINA RESULT:      -7.9      6.075     10.160
REMARK  4 active torsions:
REMARK  status: ('A' for Active; 'I' for Inactive)
REMARK       I    between atoms: C_2  and  N_3 
REMARK    1  A    between atoms: N_3  and  C_4 
REMARK    2  A    between atoms: C_7  and  C_8 
REMARK    3  A    between atoms: C_12  and  N_13 
REMARK    4  A    between atoms: C_20  and  C_21 
ROOT
HETATM    1  C   UNL     1      21.866  48.392  47.689  1.00  0.00     0.105 C 
HETATM    2  C   UNL     1      23.151  48.257  48.502  1.00  0.00     0.067 C 
HETATM    3  C   UNL     1      24.165  49.375  48.327  1.00  0.00     0.020 C 
HETATM    4  N   UNL     1      25.006  50.303  48.182  1.00  0.00    -0.096 N 
HETATM    5  C   UNL     1      23.470  47.147  49.220  1.00  0.00     0.139 C 
HETATM    6  O   UNL     1      22.621  46.025  49.258  1.00  0.00    -0.279 OA
HETATM    7  C   UNL     1      21.588  46.047  48.422  1.00  0.00     0.175 A 
HETATM    8  C   UNL     1      21.158  47.083  47.632  1.00  0.00     0.040 A 
HETATM    9  N   UNL     1      20.757  45.003  48.186  1.00  0.00    -0.256 N 
HETATM   10  H   UNL     1      20.780  44.076  48.595  1.00  0.00     0.191 HD
HETATM   11  N   UNL     1      19.812  45.287  47.270  1.00  0.00    -0.172 NA
HETATM   12  C   UNL     1      20.068  46.556  46.889  1.00  0.00     0.099 A 
ENDROOT
BRANCH   1  13
HETATM   13  C   UNL     1      20.899  49.393  48.310  1.00  0.00    -0.044 A 
HETATM   14  C   UNL     1      20.187  49.042  49.466  1.00  0.00     0.010 A 
HETATM   15  C   UNL     1      19.254  49.917  50.045  1.00  0.00     0.030 A 
HETATM   16  C   UNL     1      19.009  51.169  49.486  1.00  0.00     0.034 A 
HETATM   17  C   UNL     1      19.710  51.520  48.324  1.00  0.00     0.030 A 
HETATM   18  C   UNL     1      20.632  50.646  47.739  1.00  0.00     0.010 A 
BRANCH  16  19
HETATM   19  N   UNL     1      18.104  52.131  49.969  1.00  0.00    -0.328 N 
HETATM   20  C   UNL     1      16.786  52.397  49.763  1.00  0.00     0.218 C 
HETATM   21  C   UNL     1      15.938  51.561  48.852  1.00  0.00     0.117 C 
HETATM   22  O   UNL     1      16.293  53.361  50.355  1.00  0.00    -0.274 OA
HETATM   23  H   UNL     1      18.483  52.799  50.630  1.00  0.00     0.169 HD
ENDBRANCH  16  19
ENDBRANCH   1  13
BRANCH   5  24
HETATM   24  N   UNL     1      24.626  46.971  49.944  1.00  0.00    -0.282 NA
HETATM   25  H   UNL     1      24.703  46.088  50.443  1.00  0.00     0.126 HD
HETATM   26  H   UNL     1      25.458  47.195  49.402  1.00  0.00     0.126 HD
ENDBRANCH   5  24
BRANCH  12  27
HETATM   27  C   UNL     1      19.262  47.202  45.854  1.00  0.00    -0.005 A 
HETATM   28  C   UNL     1      19.419  46.833  44.512  1.00  0.00     0.014 A 
HETATM   29  C   UNL     1      18.660  47.447  43.512  1.00  0.00     0.001 A 
HETATM   30  C   UNL     1      17.740  48.439  43.844  1.00  0.00     0.000 A 
HETATM   31  C   UNL     1      17.585  48.825  45.175  1.00  0.00     0.001 A 
HETATM   32  C   UNL     1      18.346  48.214  46.175  1.00  0.00     0.014 A 
ENDBRANCH  12  27
TORSDOF 4
ENDMDL
MODEL 9
REMARK VINA RESULT:      -7.7     10.675     13.167
REMARK  4 active torsions:
REMARK  status: ('A' for Active; 'I' for Inactive)
REMARK       I    between atoms: C_2  and  N_3 
REMARK    1  A    between atoms: N_3  and  C_4 
REMARK    2  A    between atoms: C_7  and  C_8 
REMARK    3  A    between atoms: C_12  and  N_13 
REMARK    4  A    between atoms: C_20  and  C_21 
ROOT
HETATM    1  C   UNL     1      27.544  47.262  40.418  1.00  0.00     0.105 C 
HETATM    2  C   UNL     1      27.424  45.759  40.657  1.00  0.00     0.067 C 
HETATM    3  C   UNL     1      26.322  45.328  41.611  1.00  0.00     0.020 C 
HETATM    4  N   UNL     1      25.408  44.969  42.402  1.00  0.00    -0.096 N 
HETATM    5  C   UNL     1      28.323  44.851  40.192  1.00  0.00     0.139 C 
HETATM    6  O   UNL     1      29.450  45.248  39.447  1.00  0.00    -0.279 OA
HETATM    7  C   UNL     1      29.673  46.556  39.378  1.00  0.00     0.175 A 
HETATM    8  C   UNL     1      28.868  47.578  39.813  1.00  0.00     0.040 A 
HETATM    9  N   UNL     1      30.786  47.128  38.858  1.00  0.00    -0.256 N 
HETATM   10  H   UNL     1      31.594  46.674  38.448  1.00  0.00     0.191 HD
HETATM   11  N   UNL     1      30.767  48.471  38.941  1.00  0.00    -0.172 NA
HETATM   12  C   UNL     1      29.606  48.766  39.562  1.00  0.00     0.099 A 
ENDROOT
BRANCH   1  13
HETATM   13  C   UNL     1      26.481  47.775  39.454  1.00  0.00    -0.044 A 
HETATM   14  C   UNL     1      25.776  48.948  39.760  1.00  0.00     0.010 A 
HETATM   15  C   UNL     1      24.759  49.430  38.922  1.00  0.00     0.030 A 
HETATM   16  C   UNL     1      24.419  48.755  37.752  1.00  0.00     0.034 A 
HETATM   17  C   UNL     1      25.113  47.576  37.448  1.00  0.00     0.030 A 
HETATM   18  C   UNL     1      26.119  47.087  38.286  1.00  0.00     0.010 A 
BRANCH  16  19
HETATM   19  N   UNL     1      23.424  49.134  36.834  1.00  0.00    -0.328 N 
HETATM   20  C   UNL     1      22.075  48.973  36.759  1.00  0.00     0.218 C 
HETATM   21  C   UNL     1      21.299  48.264  37.826  1.00  0.00     0.117 C 
HETATM   22  O   UNL     1      21.493  49.434  35.773  1.00  0.00    -0.274 OA
HETATM   23  H   UNL     1      23.746  49.654  36.025  1.00  0.00     0.169 HD
ENDBRANCH  16  19
ENDBRANCH   1  13
BRANCH   5  24
HETATM   24  N   UNL     1      28.268  43.494  40.404  1.00  0.00    -0.282 NA
HETATM   25  H   UNL     1      27.341  43.111  40.568  1.00  0.00     0.126 HD
HETATM   26  H   UNL     1      28.796  42.974  39.707  1.00  0.00     0.126 HD
ENDBRANCH   5  24
BRANCH  12  27
HETATM   27  C   UNL     1      29.255  50.150  39.874  1.00  0.00    -0.005 A 
HETATM   28  C   UNL     1      29.305  50.605  41.198  1.00  0.00     0.014 A 
HETATM   29  C   UNL     1      28.966  51.923  41.512  1.00  0.00     0.001 A 
HETATM   30  C   UNL     1      28.569  52.799  40.504  1.00  0.00     0.000 A 
HETATM   31  C   UNL     1      28.502  52.355  39.184  1.00  0.00     0.001 A 
HETATM   32  C   UNL     1      28.838  51.035  38.870  1.00  0.00     0.014 A 
ENDBRANCH  12  27
TORSDOF 4
ENDMDL
MODEL 10
REMARK VINA RESULT:      -7.6      9.235     13.051
REMARK  4 active torsions:
REMARK  status: ('A' for Active; 'I' for Inactive)
REMARK       I    between atoms: C_2  and  N_3 
REMARK    1  A    between atoms: N_3  and  C_4 
REMARK    2  A    between atoms: C_7  and  C_8 
REMARK    3  A    between atoms: C_12  and  N_13 
REMARK    4  A    between atoms: C_20  and  C_21 
ROOT
HETATM    1  C   UNL     1      17.257  51.523  46.516  1.00  0.00     0.105 C 
HETATM    2  C   UNL     1      16.107  52.310  45.893  1.00  0.00     0.067 C 
HETATM    3  C   UNL     1      16.187  52.519  44.390  1.00  0.00     0.020 C 
HETATM    4  N   UNL     1      16.252  52.691  43.142  1.00  0.00    -0.096 N 
HETATM    5  C   UNL     1      15.143  52.933  46.622  1.00  0.00     0.139 C 
HETATM    6  O   UNL     1      15.146  52.897  48.029  1.00  0.00    -0.279 OA
HETATM    7  C   UNL     1      16.228  52.373  48.597  1.00  0.00     0.175 A 
HETATM    8  C   UNL     1      17.278  51.731  47.991  1.00  0.00     0.040 A 
HETATM    9  N   UNL     1      16.498  52.400  49.924  1.00  0.00    -0.256 N 
HETATM   10  H   UNL     1      15.942  52.798  50.672  1.00  0.00     0.191 HD
HETATM   11  N   UNL     1      17.677  51.824  50.227  1.00  0.00    -0.172 NA
HETATM   12  C   UNL     1      18.190  51.439  49.040  1.00  0.00     0.099 A 
ENDROOT
BRANCH   1  13
HETATM   13  C   UNL     1      17.119  50.025  46.281  1.00  0.00    -0.044 A 
HETATM   14  C   UNL     1      15.909  49.384  46.585  1.00  0.00     0.010 A 
HETATM   15  C   UNL     1      15.754  47.998  46.424  1.00  0.00     0.030 A 
HETATM   16  C   UNL     1      16.804  47.213  45.953  1.00  0.00     0.034 A 
HETATM   17  C   UNL     1      18.018  47.847  45.659  1.00  0.00     0.030 A 
HETATM   18  C   UNL     1      18.179  49.225  45.827  1.00  0.00     0.010 A 
BRANCH  16  19
HETATM   19  N   UNL     1      16.774  45.822  45.751  1.00  0.00    -0.328 N 
HETATM   20  C   UNL     1      16.511  45.012  44.689  1.00  0.00     0.218 C 
HETATM   21  C   UNL     1      16.172  45.559  43.336  1.00  0.00     0.117 C 
HETATM   22  O   UNL     1      16.559  43.792  44.870  1.00  0.00    -0.274 OA
HETATM   23  H   UNL     1      16.997  45.254  46.560  1.00  0.00     0.169 HD
ENDBRANCH  16  19
ENDBRANCH   1  13
BRANCH   5  24
HETATM   24  N   UNL     1      14.105  53.673  46.105  1.00  0.00    -0.282 NA
HETATM   25  H   UNL     1      13.749  53.362  45.204  1.00  0.00     0.126 HD
HETATM   26  H   UNL     1      13.370  53.834  46.789  1.00  0.00     0.126 HD
ENDBRANCH   5  24
BRANCH  12  27
HETATM   27  C   UNL     1      19.506  50.807  48.964  1.00  0.00    -0.005 A 
HETATM   28  C   UNL     1      20.626  51.562  48.590  1.00  0.00     0.014 A 
HETATM   29  C   UNL     1      21.889  50.970  48.508  1.00  0.00     0.001 A 
HETATM   30  C   UNL     1      22.043  49.616  48.794  1.00  0.00     0.000 A 
HETATM   31  C   UNL     1      20.935  48.850  49.153  1.00  0.00     0.001 A 
HETATM   32  C   UNL     1      19.671  49.441  49.233  1.00  0.00     0.014 A 
ENDBRANCH  12  27
TORSDOF 4
ENDMDL
