MODEL 1
REMARK VINA RESULT:      -8.4      0.000      0.000
REMARK  3 active torsions:
REMARK  status: ('A' for Active; 'I' for Inactive)
REMARK    1  A    between atoms: C_4  and  C_5 
REMARK    2  A    between atoms: C_12  and  N_13 
REMARK       I    between atoms: N_13  and  C_14 
REMARK    3  A    between atoms: C_14  and  C_15 
ROOT
HETATM    1  C   UNL     1      26.888  48.105  49.169  1.00  0.00     0.048 C 
HETATM    2  C   UNL     1      26.517  47.162  50.276  1.00  0.00    -0.060 A 
HETATM    3  C   UNL     1      26.552  45.781  50.081  1.00  0.00     0.023 A 
HETATM    4  C   UNL     1      26.243  44.897  51.127  1.00  0.00     0.020 A 
HETATM    5  C   UNL     1      25.886  45.404  52.402  1.00  0.00     0.053 A 
HETATM    6  C   UNL     1      25.923  46.795  52.629  1.00  0.00    -0.034 A 
HETATM    7  C   UNL     1      25.828  47.449  53.982  1.00  0.00     0.050 C 
HETATM    8  C   UNL     1      26.209  47.655  51.547  1.00  0.00     0.015 A 
ENDROOT
BRANCH   5   9
HETATM    9  N   UNL     1      25.705  44.471  53.441  1.00  0.00    -0.322 N 
HETATM   10  C   UNL     1      26.567  43.926  54.348  1.00  0.00     0.278 C 
HETATM   11  O   UNL     1      26.130  42.982  55.024  1.00  0.00    -0.268 OA
HETATM   12  H   UNL     1      24.743  44.208  53.636  1.00  0.00     0.169 HD
BRANCH  10  13
HETATM   13  C   UNL     1      27.960  44.534  54.674  1.00  0.00     0.366 C 
HETATM   14  O   UNL     1      28.147  45.402  55.790  1.00  0.00    -0.308 OA
HETATM   15  C   UNL     1      29.352  44.981  56.258  1.00  0.00     0.106 A 
HETATM   16  C   UNL     1      29.770  43.828  55.639  1.00  0.00     0.106 A 
HETATM   17  C   UNL     1      30.108  45.600  57.229  1.00  0.00     0.040 A 
HETATM   18  O   UNL     1      28.882  43.405  54.702  1.00  0.00    -0.308 OA
HETATM   19  C   UNL     1      30.961  43.217  55.965  1.00  0.00     0.040 A 
HETATM   20  C   UNL     1      31.754  43.827  56.941  1.00  0.00     0.003 A 
HETATM   21  C   UNL     1      31.331  45.015  57.567  1.00  0.00     0.003 A 
ENDBRANCH  10  13
ENDBRANCH   5   9
BRANCH   4  22
HETATM   22  C   UNL     1      26.288  43.463  50.838  1.00  0.00     0.064 A 
HETATM   23  N   UNL     1      25.181  42.719  50.515  1.00  0.00    -0.277 N 
HETATM   24  H   UNL     1      24.220  43.037  50.436  1.00  0.00     0.189 HD
HETATM   25  N   UNL     1      25.446  41.421  50.290  1.00  0.00    -0.179 NA
HETATM   26  C   UNL     1      26.771  41.327  50.449  1.00  0.00     0.053 A 
HETATM   27  C   UNL     1      27.463  40.028  50.272  1.00  0.00     0.072 C 
HETATM   28  C   UNL     1      27.343  42.575  50.779  1.00  0.00     0.060 A 
ENDBRANCH   4  22
TORSDOF 3
ENDMDL
MODEL 2
REMARK VINA RESULT:      -8.4      2.706      6.518
REMARK  3 active torsions:
REMARK  status: ('A' for Active; 'I' for Inactive)
REMARK    1  A    between atoms: C_4  and  C_5 
REMARK    2  A    between atoms: C_12  and  N_13 
REMARK       I    between atoms: N_13  and  C_14 
REMARK    3  A    between atoms: C_14  and  C_15 
ROOT
HETATM    1  C   UNL     1      27.372  39.660  47.123  1.00  0.00     0.048 C 
HETATM    2  C   UNL     1      26.706  40.385  48.255  1.00  0.00    -0.060 A 
HETATM    3  C   UNL     1      27.409  40.689  49.421  1.00  0.00     0.023 A 
HETATM    4  C   UNL     1      26.798  41.400  50.466  1.00  0.00     0.020 A 
HETATM    5  C   UNL     1      25.449  41.820  50.346  1.00  0.00     0.053 A 
HETATM    6  C   UNL     1      24.757  41.585  49.140  1.00  0.00    -0.034 A 
HETATM    7  C   UNL     1      23.429  42.196  48.777  1.00  0.00     0.050 C 
HETATM    8  C   UNL     1      25.391  40.840  48.124  1.00  0.00     0.015 A 
ENDROOT
BRANCH   5   9
HETATM    9  N   UNL     1      24.931  42.633  51.371  1.00  0.00    -0.322 N 
HETATM   10  C   UNL     1      24.835  43.987  51.512  1.00  0.00     0.278 C 
HETATM   11  O   UNL     1      24.490  44.401  52.629  1.00  0.00    -0.268 OA
HETATM   12  H   UNL     1      24.444  42.145  52.119  1.00  0.00     0.169 HD
BRANCH  10  13
HETATM   13  C   UNL     1      24.967  44.980  50.324  1.00  0.00     0.366 C 
HETATM   14  O   UNL     1      24.034  46.042  50.138  1.00  0.00    -0.308 OA
HETATM   15  C   UNL     1      24.853  47.054  49.750  1.00  0.00     0.106 A 
HETATM   16  C   UNL     1      26.180  46.726  49.893  1.00  0.00     0.106 A 
HETATM   17  C   UNL     1      24.456  48.280  49.260  1.00  0.00     0.040 A 
HETATM   18  O   UNL     1      26.341  45.465  50.371  1.00  0.00    -0.308 OA
HETATM   19  C   UNL     1      27.187  47.608  49.568  1.00  0.00     0.040 A 
HETATM   20  C   UNL     1      26.815  48.856  49.060  1.00  0.00     0.003 A 
HETATM   21  C   UNL     1      25.456  49.188  48.904  1.00  0.00     0.003 A 
ENDBRANCH  10  13
ENDBRANCH   5   9
BRANCH   4  22
HETATM   22  C   UNL     1      27.598  41.667  51.663  1.00  0.00     0.064 A 
HETATM   23  N   UNL     1      27.606  40.851  52.766  1.00  0.00    -0.277 N 
HETATM   24  H   UNL     1      27.086  39.991  52.907  1.00  0.00     0.189 HD
HETATM   25  N   UNL     1      28.409  41.282  53.753  1.00  0.00    -0.179 NA
HETATM   26  C   UNL     1      28.955  42.400  53.265  1.00  0.00     0.053 A 
HETATM   27  C   UNL     1      29.925  43.182  54.069  1.00  0.00     0.072 C 
HETATM   28  C   UNL     1      28.491  42.676  51.959  1.00  0.00     0.060 A 
ENDBRANCH   4  22
TORSDOF 3
ENDMDL
MODEL 3
REMARK VINA RESULT:      -8.1      4.729      6.189
REMARK  3 active torsions:
REMARK  status: ('A' for Active; 'I' for Inactive)
REMARK    1  A    between atoms: C_4  and  C_5 
REMARK    2  A    between atoms: C_12  and  N_13 
REMARK       I    between atoms: N_13  and  C_14 
REMARK    3  A    between atoms: C_14  and  C_15 
ROOT
HETATM    1  C   UNL     1      18.268  49.138  49.277  1.00  0.00     0.048 C 
HETATM    2  C   UNL     1      19.746  48.891  49.204  1.00  0.00    -0.060 A 
HETATM    3  C   UNL     1      20.244  47.635  48.856  1.00  0.00     0.023 A 
HETATM    4  C   UNL     1      21.626  47.411  48.750  1.00  0.00     0.020 A 
HETATM    5  C   UNL     1      22.537  48.468  48.999  1.00  0.00     0.053 A 
HETATM    6  C   UNL     1      22.040  49.758  49.275  1.00  0.00    -0.034 A 
HETATM    7  C   UNL     1      22.872  51.014  49.300  1.00  0.00     0.050 C 
HETATM    8  C   UNL     1      20.647  49.940  49.405  1.00  0.00     0.015 A 
ENDROOT
BRANCH   5   9
HETATM    9  N   UNL     1      23.901  48.217  48.759  1.00  0.00    -0.322 N 
HETATM   10  C   UNL     1      24.918  47.811  49.573  1.00  0.00     0.278 C 
HETATM   11  O   UNL     1      26.061  47.859  49.091  1.00  0.00    -0.268 OA
HETATM   12  H   UNL     1      24.190  48.242  47.785  1.00  0.00     0.169 HD
BRANCH  10  13
HETATM   13  C   UNL     1      24.689  47.154  50.962  1.00  0.00     0.366 C 
HETATM   14  O   UNL     1      24.543  45.741  51.100  1.00  0.00    -0.308 OA
HETATM   15  C   UNL     1      25.247  45.508  52.238  1.00  0.00     0.106 A 
HETATM   16  C   UNL     1      25.946  46.618  52.648  1.00  0.00     0.106 A 
HETATM   17  C   UNL     1      25.287  44.323  52.940  1.00  0.00     0.040 A 
HETATM   18  O   UNL     1      25.745  47.676  51.821  1.00  0.00    -0.308 OA
HETATM   19  C   UNL     1      26.738  46.604  53.775  1.00  0.00     0.040 A 
HETATM   20  C   UNL     1      26.791  45.418  54.514  1.00  0.00     0.003 A 
HETATM   21  C   UNL     1      26.066  44.285  54.100  1.00  0.00     0.003 A 
ENDBRANCH  10  13
ENDBRANCH   5   9
BRANCH   4  22
HETATM   22  C   UNL     1      22.070  46.062  48.395  1.00  0.00     0.064 A 
HETATM   23  N   UNL     1      22.244  45.055  49.310  1.00  0.00    -0.277 N 
HETATM   24  H   UNL     1      22.103  45.098  50.314  1.00  0.00     0.189 HD
HETATM   25  N   UNL     1      22.658  43.897  48.771  1.00  0.00    -0.179 NA
HETATM   26  C   UNL     1      22.730  44.155  47.460  1.00  0.00     0.053 A 
HETATM   27  C   UNL     1      23.150  43.102  46.504  1.00  0.00     0.072 C 
HETATM   28  C   UNL     1      22.361  45.488  47.174  1.00  0.00     0.060 A 
ENDBRANCH   4  22
TORSDOF 3
ENDMDL
MODEL 4
REMARK VINA RESULT:      -8.0      8.510     11.822
REMARK  3 active torsions:
REMARK  status: ('A' for Active; 'I' for Inactive)
REMARK    1  A    between atoms: C_4  and  C_5 
REMARK    2  A    between atoms: C_12  and  N_13 
REMARK       I    between atoms: N_13  and  C_14 
REMARK    3  A    between atoms: C_14  and  C_15 
ROOT
HETATM    1  C   UNL     1      19.446  46.064  45.686  1.00  0.00     0.048 C 
HETATM    2  C   UNL     1      19.832  46.899  46.872  1.00  0.00    -0.060 A 
HETATM    3  C   UNL     1      21.074  47.532  46.927  1.00  0.00     0.023 A 
HETATM    4  C   UNL     1      21.421  48.344  48.018  1.00  0.00     0.020 A 
HETATM    5  C   UNL     1      20.506  48.529  49.085  1.00  0.00     0.053 A 
HETATM    6  C   UNL     1      19.221  47.956  49.001  1.00  0.00    -0.034 A 
HETATM    7  C   UNL     1      18.073  48.280  49.919  1.00  0.00     0.050 C 
HETATM    8  C   UNL     1      18.917  47.121  47.905  1.00  0.00     0.015 A 
ENDROOT
BRANCH   5   9
HETATM    9  N   UNL     1      20.862  49.448  50.090  1.00  0.00    -0.322 N 
HETATM   10  C   UNL     1      20.771  50.808  50.167  1.00  0.00     0.278 C 
HETATM   11  O   UNL     1      21.347  51.345  51.125  1.00  0.00    -0.268 OA
HETATM   12  H   UNL     1      21.158  49.044  50.974  1.00  0.00     0.169 HD
BRANCH  10  13
HETATM   13  C   UNL     1      19.861  51.656  49.234  1.00  0.00     0.366 C 
HETATM   14  O   UNL     1      19.643  51.286  47.874  1.00  0.00    -0.308 OA
HETATM   15  C   UNL     1      18.321  51.564  47.729  1.00  0.00     0.106 A 
HETATM   16  C   UNL     1      17.723  51.865  48.929  1.00  0.00     0.106 A 
HETATM   17  C   UNL     1      17.616  51.566  46.545  1.00  0.00     0.040 A 
HETATM   18  O   UNL     1      18.608  51.824  49.959  1.00  0.00    -0.308 OA
HETATM   19  C   UNL     1      16.383  52.170  49.019  1.00  0.00     0.040 A 
HETATM   20  C   UNL     1      15.643  52.188  47.833  1.00  0.00     0.003 A 
HETATM   21  C   UNL     1      16.258  51.891  46.602  1.00  0.00     0.003 A 
ENDBRANCH  10  13
ENDBRANCH   5   9
BRANCH   4  22
HETATM   22  C   UNL     1      22.749  48.961  48.009  1.00  0.00     0.064 A 
HETATM   23  N   UNL     1      23.029  50.149  47.381  1.00  0.00    -0.277 N 
HETATM   24  H   UNL     1      22.391  50.739  46.857  1.00  0.00     0.189 HD
HETATM   25  N   UNL     1      24.310  50.534  47.496  1.00  0.00    -0.179 NA
HETATM   26  C   UNL     1      24.873  49.577  48.241  1.00  0.00     0.053 A 
HETATM   27  C   UNL     1      26.309  49.647  48.604  1.00  0.00     0.072 C 
HETATM   28  C   UNL     1      23.938  48.580  48.597  1.00  0.00     0.060 A 
ENDBRANCH   4  22
TORSDOF 3
ENDMDL
MODEL 5
REMARK VINA RESULT:      -7.9     14.765     16.593
REMARK  3 active torsions:
REMARK  status: ('A' for Active; 'I' for Inactive)
REMARK    1  A    between atoms: C_4  and  C_5 
REMARK    2  A    between atoms: C_12  and  N_13 
REMARK       I    between atoms: N_13  and  C_14 
REMARK    3  A    between atoms: C_14  and  C_15 
ROOT
HETATM    1  C   UNL     1      39.435  39.150  64.715  1.00  0.00     0.048 C 
HETATM    2  C   UNL     1      38.742  40.433  64.361  1.00  0.00    -0.060 A 
HETATM    3  C   UNL     1      37.623  40.862  65.075  1.00  0.00     0.023 A 
HETATM    4  C   UNL     1      36.997  42.081  64.771  1.00  0.00     0.020 A 
HETATM    5  C   UNL     1      37.500  42.895  63.724  1.00  0.00     0.053 A 
HETATM    6  C   UNL     1      38.675  42.506  63.050  1.00  0.00    -0.034 A 
HETATM    7  C   UNL     1      39.460  43.385  62.112  1.00  0.00     0.050 C 
HETATM    8  C   UNL     1      39.260  41.260  63.361  1.00  0.00     0.015 A 
ENDROOT
BRANCH   5   9
HETATM    9  N   UNL     1      36.906  44.159  63.546  1.00  0.00    -0.322 N 
HETATM   10  C   UNL     1      37.069  45.350  64.191  1.00  0.00     0.278 C 
HETATM   11  O   UNL     1      36.254  46.242  63.912  1.00  0.00    -0.268 OA
HETATM   12  H   UNL     1      36.310  44.256  62.729  1.00  0.00     0.169 HD
BRANCH  10  13
HETATM   13  C   UNL     1      38.292  45.671  65.095  1.00  0.00     0.366 C 
HETATM   14  O   UNL     1      38.733  44.759  66.098  1.00  0.00    -0.308 OA
HETATM   15  C   UNL     1      40.083  44.859  65.977  1.00  0.00     0.106 A 
HETATM   16  C   UNL     1      40.448  45.586  64.869  1.00  0.00     0.106 A 
HETATM   17  C   UNL     1      41.018  44.322  66.835  1.00  0.00     0.040 A 
HETATM   18  O   UNL     1      39.367  46.036  64.181  1.00  0.00    -0.308 OA
HETATM   19  C   UNL     1      41.769  45.806  64.546  1.00  0.00     0.040 A 
HETATM   20  C   UNL     1      42.741  45.281  65.402  1.00  0.00     0.003 A 
HETATM   21  C   UNL     1      42.366  44.546  66.543  1.00  0.00     0.003 A 
ENDBRANCH  10  13
ENDBRANCH   5   9
BRANCH   4  22
HETATM   22  C   UNL     1      35.819  42.453  65.556  1.00  0.00     0.064 A 
HETATM   23  N   UNL     1      35.843  43.381  66.566  1.00  0.00    -0.277 N 
HETATM   24  H   UNL     1      36.640  43.913  66.902  1.00  0.00     0.189 HD
HETATM   25  N   UNL     1      34.652  43.571  67.157  1.00  0.00    -0.179 NA
HETATM   26  C   UNL     1      33.824  42.758  66.491  1.00  0.00     0.053 A 
HETATM   27  C   UNL     1      32.387  42.686  66.847  1.00  0.00     0.072 C 
HETATM   28  C   UNL     1      34.502  42.049  65.475  1.00  0.00     0.060 A 
ENDBRANCH   4  22
TORSDOF 3
ENDMDL
MODEL 6
REMARK VINA RESULT:      -7.8      5.416      9.134
REMARK  3 active torsions:
REMARK  status: ('A' for Active; 'I' for Inactive)
REMARK    1  A    between atoms: C_4  and  C_5 
REMARK    2  A    between atoms: C_12  and  N_13 
REMARK       I    between atoms: N_13  and  C_14 
REMARK    3  A    between atoms: C_14  and  C_15 
ROOT
HETATM    1  C   UNL     1      25.948  45.172  54.418  1.00  0.00     0.048 C 
HETATM    2  C   UNL     1      25.481  45.073  52.995  1.00  0.00    -0.060 A 
HETATM    3  C   UNL     1      25.388  46.211  52.193  1.00  0.00     0.023 A 
HETATM    4  C   UNL     1      24.988  46.116  50.851  1.00  0.00     0.020 A 
HETATM    5  C   UNL     1      24.669  44.852  50.293  1.00  0.00     0.053 A 
HETATM    6  C   UNL     1      24.835  43.690  51.074  1.00  0.00    -0.034 A 
HETATM    7  C   UNL     1      24.788  42.282  50.542  1.00  0.00     0.050 C 
HETATM    8  C   UNL     1      25.208  43.825  52.428  1.00  0.00     0.015 A 
ENDROOT
BRANCH   5   9
HETATM    9  N   UNL     1      24.393  44.805  48.913  1.00  0.00    -0.322 N 
HETATM   10  C   UNL     1      23.224  44.805  48.209  1.00  0.00     0.278 C 
HETATM   11  O   UNL     1      23.313  44.568  46.995  1.00  0.00    -0.268 OA
HETATM   12  H   UNL     1      25.198  44.879  48.298  1.00  0.00     0.169 HD
BRANCH  10  13
HETATM   13  C   UNL     1      21.863  45.247  48.815  1.00  0.00     0.366 C 
HETATM   14  O   UNL     1      21.474  46.619  48.843  1.00  0.00    -0.308 OA
HETATM   15  C   UNL     1      20.153  46.530  48.538  1.00  0.00     0.106 A 
HETATM   16  C   UNL     1      19.800  45.262  48.142  1.00  0.00     0.106 A 
HETATM   17  C   UNL     1      19.232  47.552  48.605  1.00  0.00     0.040 A 
HETATM   18  O   UNL     1      20.858  44.411  48.171  1.00  0.00    -0.308 OA
HETATM   19  C   UNL     1      18.510  44.945  47.776  1.00  0.00     0.040 A 
HETATM   20  C   UNL     1      17.552  45.961  47.843  1.00  0.00     0.003 A 
HETATM   21  C   UNL     1      17.911  47.257  48.259  1.00  0.00     0.003 A 
ENDBRANCH  10  13
ENDBRANCH   5   9
BRANCH   4  22
HETATM   22  C   UNL     1      24.902  47.357  50.079  1.00  0.00     0.064 A 
HETATM   23  N   UNL     1      23.757  48.106  49.973  1.00  0.00    -0.277 N 
HETATM   24  H   UNL     1      22.851  47.917  50.389  1.00  0.00     0.189 HD
HETATM   25  N   UNL     1      23.897  49.206  49.215  1.00  0.00    -0.179 NA
HETATM   26  C   UNL     1      25.180  49.182  48.838  1.00  0.00     0.053 A 
HETATM   27  C   UNL     1      25.737  50.256  47.981  1.00  0.00     0.072 C 
HETATM   28  C   UNL     1      25.852  48.055  49.362  1.00  0.00     0.060 A 
ENDBRANCH   4  22
TORSDOF 3
ENDMDL
MODEL 7
REMARK VINA RESULT:      -7.7      2.126      4.027
REMARK  3 active torsions:
REMARK  status: ('A' for Active; 'I' for Inactive)
REMARK    1  A    between atoms: C_4  and  C_5 
REMARK    2  A    between atoms: C_12  and  N_13 
REMARK       I    between atoms: N_13  and  C_14 
REMARK    3  A    between atoms: C_14  and  C_15 
ROOT
HETATM    1  C   UNL     1      28.763  40.159  48.437  1.00  0.00     0.048 C 
HETATM    2  C   UNL     1      28.020  40.949  49.474  1.00  0.00    -0.060 A 
HETATM    3  C   UNL     1      27.105  41.934  49.101  1.00  0.00     0.023 A 
HETATM    4  C   UNL     1      26.380  42.648  50.068  1.00  0.00     0.020 A 
HETATM    5  C   UNL     1      26.575  42.375  51.446  1.00  0.00     0.053 A 
HETATM    6  C   UNL     1      27.440  41.329  51.828  1.00  0.00    -0.034 A 
HETATM    7  C   UNL     1      27.541  40.760  53.218  1.00  0.00     0.050 C 
HETATM    8  C   UNL     1      28.175  40.653  50.831  1.00  0.00     0.015 A 
ENDROOT
BRANCH   5   9
HETATM    9  N   UNL     1      25.734  43.035  52.362  1.00  0.00    -0.322 N 
HETATM   10  C   UNL     1      25.994  43.826  53.443  1.00  0.00     0.278 C 
HETATM   11  O   UNL     1      25.024  44.110  54.163  1.00  0.00    -0.268 OA
HETATM   12  H   UNL     1      24.742  43.014  52.145  1.00  0.00     0.169 HD
BRANCH  10  13
HETATM   13  C   UNL     1      27.371  44.500  53.696  1.00  0.00     0.366 C 
HETATM   14  O   UNL     1      27.517  45.555  54.645  1.00  0.00    -0.308 OA
HETATM   15  C   UNL     1      28.710  45.240  55.215  1.00  0.00     0.106 A 
HETATM   16  C   UNL     1      29.156  44.001  54.824  1.00  0.00     0.106 A 
HETATM   17  C   UNL     1      29.430  46.031  56.083  1.00  0.00     0.040 A 
HETATM   18  O   UNL     1      28.301  43.407  53.952  1.00  0.00    -0.308 OA
HETATM   19  C   UNL     1      30.341  43.473  55.288  1.00  0.00     0.040 A 
HETATM   20  C   UNL     1      31.099  44.257  56.163  1.00  0.00     0.003 A 
HETATM   21  C   UNL     1      30.647  45.532  56.555  1.00  0.00     0.003 A 
ENDBRANCH  10  13
ENDBRANCH   5   9
BRANCH   4  22
HETATM   22  C   UNL     1      25.450  43.676  49.598  1.00  0.00     0.064 A 
HETATM   23  N   UNL     1      25.730  45.019  49.619  1.00  0.00    -0.277 N 
HETATM   24  H   UNL     1      26.576  45.472  49.948  1.00  0.00     0.189 HD
HETATM   25  N   UNL     1      24.736  45.787  49.142  1.00  0.00    -0.179 NA
HETATM   26  C   UNL     1      23.793  44.912  48.779  1.00  0.00     0.053 A 
HETATM   27  C   UNL     1      22.516  45.379  48.185  1.00  0.00     0.072 C 
HETATM   28  C   UNL     1      24.195  43.582  49.031  1.00  0.00     0.060 A 
ENDBRANCH   4  22
TORSDOF 3
ENDMDL
MODEL 8
REMARK VINA RESULT:      -7.6      6.829      8.746
REMARK  3 active torsions:
REMARK  status: ('A' for Active; 'I' for Inactive)
REMARK    1  A    between atoms: C_4  and  C_5 
REMARK    2  A    between atoms: C_12  and  N_13 
REMARK       I    between atoms: N_13  and  C_14 
REMARK    3  A    between atoms: C_14  and  C_15 
ROOT
HETATM    1  C   UNL     1      16.393  47.521  49.156  1.00  0.00     0.048 C 
HETATM    2  C   UNL     1      17.752  48.011  48.751  1.00  0.00    -0.060 A 
HETATM    3  C   UNL     1      18.538  47.282  47.858  1.00  0.00     0.023 A 
HETATM    4  C   UNL     1      19.793  47.758  47.448  1.00  0.00     0.020 A 
HETATM    5  C   UNL     1      20.280  48.994  47.943  1.00  0.00     0.053 A 
HETATM    6  C   UNL     1      19.459  49.773  48.784  1.00  0.00    -0.034 A 
HETATM    7  C   UNL     1      19.732  51.203  49.168  1.00  0.00     0.050 C 
HETATM    8  C   UNL     1      18.217  49.250  49.201  1.00  0.00     0.015 A 
ENDROOT
BRANCH   5   9
HETATM    9  N   UNL     1      21.488  49.477  47.404  1.00  0.00    -0.322 N 
HETATM   10  C   UNL     1      22.754  49.553  47.908  1.00  0.00     0.278 C 
HETATM   11  O   UNL     1      23.572  50.207  47.243  1.00  0.00    -0.268 OA
HETATM   12  H   UNL     1      21.461  49.737  46.422  1.00  0.00     0.169 HD
BRANCH  10  13
HETATM   13  C   UNL     1      23.232  48.737  49.141  1.00  0.00     0.366 C 
HETATM   14  O   UNL     1      22.946  47.345  49.266  1.00  0.00    -0.308 OA
HETATM   15  C   UNL     1      24.114  46.877  49.780  1.00  0.00     0.106 A 
HETATM   16  C   UNL     1      25.101  47.832  49.769  1.00  0.00     0.106 A 
HETATM   17  C   UNL     1      24.335  45.609  50.271  1.00  0.00     0.040 A 
HETATM   18  O   UNL     1      24.658  49.012  49.262  1.00  0.00    -0.308 OA
HETATM   19  C   UNL     1      26.372  47.572  50.235  1.00  0.00     0.040 A 
HETATM   20  C   UNL     1      26.623  46.297  50.748  1.00  0.00     0.003 A 
HETATM   21  C   UNL     1      25.609  45.321  50.769  1.00  0.00     0.003 A 
ENDBRANCH  10  13
ENDBRANCH   5   9
BRANCH   4  22
HETATM   22  C   UNL     1      20.564  46.928  46.521  1.00  0.00     0.064 A 
HETATM   23  N   UNL     1      21.720  46.275  46.868  1.00  0.00    -0.277 N 
HETATM   24  H   UNL     1      22.186  46.276  47.770  1.00  0.00     0.189 HD
HETATM   25  N   UNL     1      22.267  45.570  45.865  1.00  0.00    -0.179 NA
HETATM   26  C   UNL     1      21.426  45.752  44.841  1.00  0.00     0.053 A 
HETATM   27  C   UNL     1      21.683  45.114  43.528  1.00  0.00     0.072 C 
HETATM   28  C   UNL     1      20.341  46.581  45.204  1.00  0.00     0.060 A 
ENDBRANCH   4  22
TORSDOF 3
ENDMDL
MODEL 9
REMARK VINA RESULT:      -7.5      9.759     12.615
REMARK  3 active torsions:
REMARK  status: ('A' for Active; 'I' for Inactive)
REMARK    1  A    between atoms: C_4  and  C_5 
REMARK    2  A    between atoms: C_12  and  N_13 
REMARK       I    between atoms: N_13  and  C_14 
REMARK    3  A    between atoms: C_14  and  C_15 
ROOT
HETATM    1  C   UNL     1      18.600  51.292  42.922  1.00  0.00     0.048 C 
HETATM    2  C   UNL     1      18.257  50.569  44.191  1.00  0.00    -0.060 A 
HETATM    3  C   UNL     1      17.801  51.266  45.310  1.00  0.00     0.023 A 
HETATM    4  C   UNL     1      17.443  50.588  46.486  1.00  0.00     0.020 A 
HETATM    5  C   UNL     1      17.544  49.175  46.548  1.00  0.00     0.053 A 
HETATM    6  C   UNL     1      17.929  48.458  45.397  1.00  0.00    -0.034 A 
HETATM    7  C   UNL     1      17.826  46.964  45.240  1.00  0.00     0.050 C 
HETATM    8  C   UNL     1      18.311  49.174  44.243  1.00  0.00     0.015 A 
ENDROOT
BRANCH   5   9
HETATM    9  N   UNL     1      17.057  48.543  47.708  1.00  0.00    -0.322 N 
HETATM   10  C   UNL     1      17.684  47.938  48.758  1.00  0.00     0.278 C 
HETATM   11  O   UNL     1      16.960  47.307  49.542  1.00  0.00    -0.268 OA
HETATM   12  H   UNL     1      16.056  48.619  47.866  1.00  0.00     0.169 HD
BRANCH  10  13
HETATM   13  C   UNL     1      19.188  48.149  49.090  1.00  0.00     0.366 C 
HETATM   14  O   UNL     1      20.212  47.728  48.190  1.00  0.00    -0.308 OA
HETATM   15  C   UNL     1      21.093  48.758  48.286  1.00  0.00     0.106 A 
HETATM   16  C   UNL     1      20.575  49.814  48.997  1.00  0.00     0.106 A 
HETATM   17  C   UNL     1      22.366  48.791  47.760  1.00  0.00     0.040 A 
HETATM   18  O   UNL     1      19.317  49.558  49.439  1.00  0.00    -0.308 OA
HETATM   19  C   UNL     1      21.294  50.971  49.210  1.00  0.00     0.040 A 
HETATM   20  C   UNL     1      22.592  51.030  48.695  1.00  0.00     0.003 A 
HETATM   21  C   UNL     1      23.126  49.943  47.977  1.00  0.00     0.003 A 
ENDBRANCH  10  13
ENDBRANCH   5   9
BRANCH   4  22
HETATM   22  C   UNL     1      16.989  51.392  47.622  1.00  0.00     0.064 A 
HETATM   23  N   UNL     1      17.839  52.055  48.470  1.00  0.00    -0.277 N 
HETATM   24  H   UNL     1      18.853  52.081  48.437  1.00  0.00     0.189 HD
HETATM   25  N   UNL     1      17.212  52.732  49.446  1.00  0.00    -0.179 NA
HETATM   26  C   UNL     1      15.914  52.520  49.209  1.00  0.00     0.053 A 
HETATM   27  C   UNL     1      14.877  53.120  50.082  1.00  0.00     0.072 C 
HETATM   28  C   UNL     1      15.722  51.701  48.074  1.00  0.00     0.060 A 
ENDBRANCH   4  22
TORSDOF 3
ENDMDL
MODEL 10
REMARK VINA RESULT:      -7.2     10.380     13.997
REMARK  3 active torsions:
REMARK  status: ('A' for Active; 'I' for Inactive)
REMARK    1  A    between atoms: C_4  and  C_5 
REMARK    2  A    between atoms: C_12  and  N_13 
REMARK       I    between atoms: N_13  and  C_14 
REMARK    3  A    between atoms: C_14  and  C_15 
ROOT
HETATM    1  C   UNL     1      16.031  53.603  50.147  1.00  0.00     0.048 C 
HETATM    2  C   UNL     1      16.710  52.405  49.550  1.00  0.00    -0.060 A 
HETATM    3  C   UNL     1      18.092  52.244  49.647  1.00  0.00     0.023 A 
HETATM    4  C   UNL     1      18.724  51.106  49.122  1.00  0.00     0.020 A 
HETATM    5  C   UNL     1      17.957  50.099  48.483  1.00  0.00     0.053 A 
HETATM    6  C   UNL     1      16.552  50.217  48.450  1.00  0.00    -0.034 A 
HETATM    7  C   UNL     1      15.606  49.118  48.045  1.00  0.00     0.050 C 
HETATM    8  C   UNL     1      15.954  51.389  48.959  1.00  0.00     0.015 A 
ENDROOT
BRANCH   5   9
HETATM    9  N   UNL     1      18.629  48.928  48.086  1.00  0.00    -0.322 N 
HETATM   10  C   UNL     1      18.687  48.258  46.899  1.00  0.00     0.278 C 
HETATM   11  O   UNL     1      19.227  47.142  46.922  1.00  0.00    -0.268 OA
HETATM   12  H   UNL     1      19.275  48.537  48.766  1.00  0.00     0.169 HD
BRANCH  10  13
HETATM   13  C   UNL     1      18.278  48.893  45.540  1.00  0.00     0.366 C 
HETATM   14  O   UNL     1      16.986  48.671  44.977  1.00  0.00    -0.308 OA
HETATM   15  C   UNL     1      16.694  49.902  44.482  1.00  0.00     0.106 A 
HETATM   16  C   UNL     1      17.605  50.849  44.885  1.00  0.00     0.106 A 
HETATM   17  C   UNL     1      15.631  50.219  43.665  1.00  0.00     0.040 A 
HETATM   18  O   UNL     1      18.579  50.314  45.666  1.00  0.00    -0.308 OA
HETATM   19  C   UNL     1      17.498  52.170  44.508  1.00  0.00     0.040 A 
HETATM   20  C   UNL     1      16.434  52.519  43.672  1.00  0.00     0.003 A 
HETATM   21  C   UNL     1      15.508  51.547  43.250  1.00  0.00     0.003 A 
ENDBRANCH  10  13
ENDBRANCH   5   9
BRANCH   4  22
HETATM   22  C   UNL     1      20.180  51.018  49.250  1.00  0.00     0.064 A 
HETATM   23  N   UNL     1      20.823  50.765  50.435  1.00  0.00    -0.277 N 
HETATM   24  H   UNL     1      20.407  50.613  51.348  1.00  0.00     0.189 HD
HETATM   25  N   UNL     1      22.162  50.728  50.328  1.00  0.00    -0.179 NA
HETATM   26  C   UNL     1      22.391  50.940  49.028  1.00  0.00     0.053 A 
HETATM   27  C   UNL     1      23.776  50.965  48.497  1.00  0.00     0.072 C 
HETATM   28  C   UNL     1      21.186  51.114  48.311  1.00  0.00     0.060 A 
ENDBRANCH   4  22
TORSDOF 3
ENDMDL
