MODEL 1
REMARK VINA RESULT:      -9.7      0.000      0.000
REMARK  6 active torsions:
REMARK  status: ('A' for Active; 'I' for Inactive)
REMARK    1  A    between atoms: C_5  and  C_6 
REMARK    2  A    between atoms: C_6  and  N_7 
REMARK    3  A    between atoms: C_6  and  C_11 
REMARK       I    between atoms: N_7  and  C_8 
REMARK    4  A    between atoms: C_11  and  C_12 
REMARK       I    between atoms: C_12  and  N_13 
REMARK    5  A    between atoms: N_13  and  C_14 
REMARK    6  A    between atoms: C_16  and  C_17 
ROOT
HETATM    1  C   UNL     1      25.776  46.512  52.438  1.00  0.00     0.224 C 
HETATM    2  N   UNL     1      25.775  46.481  51.056  1.00  0.00    -0.327 N 
HETATM    3  O   UNL     1      25.563  47.489  53.149  1.00  0.00    -0.273 OA
HETATM    4  H   UNL     1      25.827  45.565  50.623  1.00  0.00     0.169 HD
ENDROOT
BRANCH   1   5
HETATM    5  C   UNL     1      26.024  45.153  53.062  1.00  0.00     0.133 C 
BRANCH   5   6
HETATM    6  C   UNL     1      27.328  44.556  52.519  1.00  0.00     0.126 C 
BRANCH   6   7
HETATM    7  C   UNL     1      28.381  44.336  53.596  1.00  0.00    -0.035 A 
HETATM    8  C   UNL     1      29.258  43.244  53.500  1.00  0.00     0.010 A 
HETATM    9  C   UNL     1      30.253  43.037  54.460  1.00  0.00     0.007 A 
HETATM   10  C   UNL     1      30.396  43.919  55.534  1.00  0.00    -0.062 A 
HETATM   11  C   UNL     1      31.450  43.698  56.578  1.00  0.00     0.048 C 
HETATM   12  C   UNL     1      29.521  45.004  55.640  1.00  0.00     0.007 A 
HETATM   13  C   UNL     1      28.526  45.211  54.681  1.00  0.00     0.010 A 
ENDBRANCH   6   7
BRANCH   6  14
HETATM   14  N   UNL     1      27.153  43.351  51.708  1.00  0.00    -0.352 N 
HETATM   15  C   UNL     1      27.087  43.321  50.335  1.00  0.00     0.214 C 
HETATM   16  C   UNL     1      26.797  41.957  49.768  1.00  0.00     0.117 C 
HETATM   17  O   UNL     1      27.236  44.300  49.611  1.00  0.00    -0.274 OA
HETATM   18  H   UNL     1      26.830  42.533  52.207  1.00  0.00     0.163 HD
ENDBRANCH   6  14
ENDBRANCH   5   6
ENDBRANCH   1   5
BRANCH   2  19
HETATM   19  C   UNL     1      25.627  47.568  50.169  1.00  0.00     0.035 A 
HETATM   20  C   UNL     1      24.394  48.111  49.797  1.00  0.00     0.042 A 
HETATM   21  C   UNL     1      24.316  49.206  48.918  1.00  0.00    -0.021 A 
HETATM   22  C   UNL     1      25.505  49.755  48.420  1.00  0.00     0.012 A 
HETATM   23  C   UNL     1      26.741  49.223  48.788  1.00  0.00     0.003 A 
HETATM   24  C   UNL     1      26.801  48.135  49.659  1.00  0.00     0.029 A 
BRANCH  21  25
HETATM   25  C   UNL     1      23.032  49.775  48.531  1.00  0.00     0.010 A 
HETATM   26  C   UNL     1      21.974  49.240  47.756  1.00  0.00     0.152 A 
HETATM   27  N   UNL     1      20.942  50.079  47.632  1.00  0.00    -0.187 NA
HETATM   28  N   UNL     1      21.335  51.160  48.324  1.00  0.00    -0.289 N 
HETATM   29  H   UNL     1      20.706  51.955  48.376  1.00  0.00     0.188 HD
HETATM   30  C   UNL     1      22.571  51.026  48.885  1.00  0.00     0.123 A 
ENDBRANCH  21  25
ENDBRANCH   2  19
TORSDOF 6
ENDMDL
MODEL 2
REMARK VINA RESULT:      -8.8      2.752      8.505
REMARK  6 active torsions:
REMARK  status: ('A' for Active; 'I' for Inactive)
REMARK    1  A    between atoms: C_5  and  C_6 
REMARK    2  A    between atoms: C_6  and  N_7 
REMARK    3  A    between atoms: C_6  and  C_11 
REMARK       I    between atoms: N_7  and  C_8 
REMARK    4  A    between atoms: C_11  and  C_12 
REMARK       I    between atoms: C_12  and  N_13 
REMARK    5  A    between atoms: N_13  and  C_14 
REMARK    6  A    between atoms: C_16  and  C_17 
ROOT
HETATM    1  C   UNL     1      25.755  44.716  53.133  1.00  0.00     0.224 C 
HETATM    2  N   UNL     1      27.063  45.151  53.030  1.00  0.00    -0.327 N 
HETATM    3  O   UNL     1      25.356  43.731  53.748  1.00  0.00    -0.273 OA
HETATM    4  H   UNL     1      27.206  46.061  52.607  1.00  0.00     0.169 HD
ENDROOT
BRANCH   1   5
HETATM    5  C   UNL     1      24.770  45.629  52.430  1.00  0.00     0.133 C 
BRANCH   5   6
HETATM    6  C   UNL     1      24.868  45.439  50.912  1.00  0.00     0.126 C 
BRANCH   6   7
HETATM    7  C   UNL     1      25.308  46.698  50.178  1.00  0.00    -0.035 A 
HETATM    8  C   UNL     1      24.345  47.619  49.736  1.00  0.00     0.010 A 
HETATM    9  C   UNL     1      24.724  48.797  49.087  1.00  0.00     0.007 A 
HETATM   10  C   UNL     1      26.074  49.083  48.869  1.00  0.00    -0.062 A 
HETATM   11  C   UNL     1      26.492  50.337  48.158  1.00  0.00     0.048 C 
HETATM   12  C   UNL     1      27.039  48.167  49.298  1.00  0.00     0.007 A 
HETATM   13  C   UNL     1      26.660  46.989  49.948  1.00  0.00     0.010 A 
ENDBRANCH   6   7
BRANCH   6  14
HETATM   14  N   UNL     1      25.667  44.287  50.495  1.00  0.00    -0.352 N 
HETATM   15  C   UNL     1      25.409  43.498  49.399  1.00  0.00     0.214 C 
HETATM   16  C   UNL     1      26.334  42.318  49.266  1.00  0.00     0.117 C 
HETATM   17  O   UNL     1      24.509  43.704  48.591  1.00  0.00    -0.274 OA
HETATM   18  H   UNL     1      26.305  43.923  51.191  1.00  0.00     0.163 HD
ENDBRANCH   6  14
ENDBRANCH   5   6
ENDBRANCH   1   5
BRANCH   2  19
HETATM   19  C   UNL     1      28.224  44.516  53.520  1.00  0.00     0.035 A 
HETATM   20  C   UNL     1      28.803  44.793  54.761  1.00  0.00     0.042 A 
HETATM   21  C   UNL     1      29.954  44.114  55.197  1.00  0.00    -0.021 A 
HETATM   22  C   UNL     1      30.515  43.138  54.363  1.00  0.00     0.012 A 
HETATM   23  C   UNL     1      29.943  42.850  53.123  1.00  0.00     0.003 A 
HETATM   24  C   UNL     1      28.803  43.536  52.705  1.00  0.00     0.029 A 
BRANCH  21  25
HETATM   25  C   UNL     1      30.557  44.400  56.492  1.00  0.00     0.010 A 
HETATM   26  C   UNL     1      31.566  43.721  57.217  1.00  0.00     0.152 A 
HETATM   27  N   UNL     1      31.859  44.309  58.380  1.00  0.00    -0.187 NA
HETATM   28  N   UNL     1      31.033  45.367  58.410  1.00  0.00    -0.289 N 
HETATM   29  H   UNL     1      31.067  45.982  59.216  1.00  0.00     0.188 HD
HETATM   30  C   UNL     1      30.241  45.470  57.304  1.00  0.00     0.123 A 
ENDBRANCH  21  25
ENDBRANCH   2  19
TORSDOF 6
ENDMDL
MODEL 3
REMARK VINA RESULT:      -8.8      1.596      2.175
REMARK  6 active torsions:
REMARK  status: ('A' for Active; 'I' for Inactive)
REMARK    1  A    between atoms: C_5  and  C_6 
REMARK    2  A    between atoms: C_6  and  N_7 
REMARK    3  A    between atoms: C_6  and  C_11 
REMARK       I    between atoms: N_7  and  C_8 
REMARK    4  A    between atoms: C_11  and  C_12 
REMARK       I    between atoms: C_12  and  N_13 
REMARK    5  A    between atoms: N_13  and  C_14 
REMARK    6  A    between atoms: C_16  and  C_17 
ROOT
HETATM    1  C   UNL     1      25.451  45.193  53.101  1.00  0.00     0.224 C 
HETATM    2  N   UNL     1      25.648  45.917  51.939  1.00  0.00    -0.327 N 
HETATM    3  O   UNL     1      24.484  44.487  53.370  1.00  0.00    -0.273 OA
HETATM    4  H   UNL     1      26.564  46.333  51.814  1.00  0.00     0.169 HD
ENDROOT
BRANCH   1   5
HETATM    5  C   UNL     1      26.614  45.296  54.068  1.00  0.00     0.133 C 
BRANCH   5   6
HETATM    6  C   UNL     1      27.808  44.490  53.542  1.00  0.00     0.126 C 
BRANCH   6   7
HETATM    7  C   UNL     1      28.912  44.310  54.575  1.00  0.00    -0.035 A 
HETATM    8  C   UNL     1      29.684  43.138  54.571  1.00  0.00     0.010 A 
HETATM    9  C   UNL     1      30.723  42.962  55.490  1.00  0.00     0.007 A 
HETATM   10  C   UNL     1      31.016  43.955  56.428  1.00  0.00    -0.062 A 
HETATM   11  C   UNL     1      32.118  43.769  57.429  1.00  0.00     0.048 C 
HETATM   12  C   UNL     1      30.246  45.121  56.443  1.00  0.00     0.007 A 
HETATM   13  C   UNL     1      29.207  45.298  55.525  1.00  0.00     0.010 A 
ENDBRANCH   6   7
BRANCH   6  14
HETATM   14  N   UNL     1      27.453  43.210  52.930  1.00  0.00    -0.352 N 
HETATM   15  C   UNL     1      27.373  42.971  51.578  1.00  0.00     0.214 C 
HETATM   16  C   UNL     1      26.885  41.591  51.230  1.00  0.00     0.117 C 
HETATM   17  O   UNL     1      27.658  43.791  50.711  1.00  0.00    -0.274 OA
HETATM   18  H   UNL     1      27.019  42.537  53.547  1.00  0.00     0.163 HD
ENDBRANCH   6  14
ENDBRANCH   5   6
ENDBRANCH   1   5
BRANCH   2  19
HETATM   19  C   UNL     1      24.751  46.079  50.863  1.00  0.00     0.035 A 
HETATM   20  C   UNL     1      24.479  47.305  50.249  1.00  0.00     0.042 A 
HETATM   21  C   UNL     1      23.584  47.397  49.169  1.00  0.00    -0.021 A 
HETATM   22  C   UNL     1      22.965  46.227  48.707  1.00  0.00     0.012 A 
HETATM   23  C   UNL     1      23.232  44.998  49.310  1.00  0.00     0.003 A 
HETATM   24  C   UNL     1      24.121  44.925  50.382  1.00  0.00     0.029 A 
BRANCH  21  25
HETATM   25  C   UNL     1      23.301  48.673  48.526  1.00  0.00     0.010 A 
HETATM   26  C   UNL     1      24.165  49.720  48.122  1.00  0.00     0.152 A 
HETATM   27  N   UNL     1      23.517  50.738  47.548  1.00  0.00    -0.187 NA
HETATM   28  N   UNL     1      22.233  50.351  47.586  1.00  0.00    -0.289 N 
HETATM   29  H   UNL     1      21.529  50.974  47.202  1.00  0.00     0.188 HD
HETATM   30  C   UNL     1      22.052  49.124  48.153  1.00  0.00     0.123 A 
ENDBRANCH  21  25
ENDBRANCH   2  19
TORSDOF 6
ENDMDL
MODEL 4
REMARK VINA RESULT:      -8.5      3.523      9.848
REMARK  6 active torsions:
REMARK  status: ('A' for Active; 'I' for Inactive)
REMARK    1  A    between atoms: C_5  and  C_6 
REMARK    2  A    between atoms: C_6  and  N_7 
REMARK    3  A    between atoms: C_6  and  C_11 
REMARK       I    between atoms: N_7  and  C_8 
REMARK    4  A    between atoms: C_11  and  C_12 
REMARK       I    between atoms: C_12  and  N_13 
REMARK    5  A    between atoms: N_13  and  C_14 
REMARK    6  A    between atoms: C_16  and  C_17 
ROOT
HETATM    1  C   UNL     1      22.470  50.692  48.971  1.00  0.00     0.224 C 
HETATM    2  N   UNL     1      23.388  49.979  48.222  1.00  0.00    -0.327 N 
HETATM    3  O   UNL     1      22.614  51.086  50.125  1.00  0.00    -0.273 OA
HETATM    4  H   UNL     1      23.172  49.856  47.239  1.00  0.00     0.169 HD
ENDROOT
BRANCH   1   5
HETATM    5  C   UNL     1      21.207  51.024  48.202  1.00  0.00     0.133 C 
BRANCH   5   6
HETATM    6  C   UNL     1      20.100  50.023  48.552  1.00  0.00     0.126 C 
BRANCH   6   7
HETATM    7  C   UNL     1      18.769  50.688  48.875  1.00  0.00    -0.035 A 
HETATM    8  C   UNL     1      18.748  51.882  49.612  1.00  0.00     0.010 A 
HETATM    9  C   UNL     1      17.541  52.529  49.895  1.00  0.00     0.007 A 
HETATM   10  C   UNL     1      16.330  51.998  49.444  1.00  0.00    -0.062 A 
HETATM   11  C   UNL     1      15.028  52.675  49.756  1.00  0.00     0.048 C 
HETATM   12  C   UNL     1      16.342  50.805  48.716  1.00  0.00     0.007 A 
HETATM   13  C   UNL     1      17.549  50.158  48.432  1.00  0.00     0.010 A 
ENDBRANCH   6   7
BRANCH   6  14
HETATM   14  N   UNL     1      19.922  48.948  47.575  1.00  0.00    -0.352 N 
HETATM   15  C   UNL     1      20.632  47.772  47.551  1.00  0.00     0.214 C 
HETATM   16  C   UNL     1      20.314  46.891  46.372  1.00  0.00     0.117 C 
HETATM   17  O   UNL     1      21.463  47.445  48.392  1.00  0.00    -0.274 OA
HETATM   18  H   UNL     1      19.408  49.199  46.741  1.00  0.00     0.163 HD
ENDBRANCH   6  14
ENDBRANCH   5   6
ENDBRANCH   1   5
BRANCH   2  19
HETATM   19  C   UNL     1      24.634  49.469  48.642  1.00  0.00     0.035 A 
HETATM   20  C   UNL     1      24.784  48.346  49.460  1.00  0.00     0.042 A 
HETATM   21  C   UNL     1      26.057  47.880  49.833  1.00  0.00    -0.021 A 
HETATM   22  C   UNL     1      27.187  48.562  49.361  1.00  0.00     0.012 A 
HETATM   23  C   UNL     1      27.048  49.682  48.541  1.00  0.00     0.003 A 
HETATM   24  C   UNL     1      25.778  50.132  48.184  1.00  0.00     0.029 A 
BRANCH  21  25
HETATM   25  C   UNL     1      26.215  46.708  50.683  1.00  0.00     0.010 A 
HETATM   26  C   UNL     1      26.666  45.399  50.385  1.00  0.00     0.152 A 
HETATM   27  N   UNL     1      26.680  44.596  51.453  1.00  0.00    -0.187 NA
HETATM   28  N   UNL     1      26.232  45.386  52.442  1.00  0.00    -0.289 N 
HETATM   29  H   UNL     1      26.148  44.992  53.373  1.00  0.00     0.188 HD
HETATM   30  C   UNL     1      25.947  46.656  52.035  1.00  0.00     0.123 A 
ENDBRANCH  21  25
ENDBRANCH   2  19
TORSDOF 6
ENDMDL
MODEL 5
REMARK VINA RESULT:      -8.4      2.823      8.551
REMARK  6 active torsions:
REMARK  status: ('A' for Active; 'I' for Inactive)
REMARK    1  A    between atoms: C_5  and  C_6 
REMARK    2  A    between atoms: C_6  and  N_7 
REMARK    3  A    between atoms: C_6  and  C_11 
REMARK       I    between atoms: N_7  and  C_8 
REMARK    4  A    between atoms: C_11  and  C_12 
REMARK       I    between atoms: C_12  and  N_13 
REMARK    5  A    between atoms: N_13  and  C_14 
REMARK    6  A    between atoms: C_16  and  C_17 
ROOT
HETATM    1  C   UNL     1      25.824  44.457  53.042  1.00  0.00     0.224 C 
HETATM    2  N   UNL     1      27.145  44.659  52.687  1.00  0.00    -0.327 N 
HETATM    3  O   UNL     1      25.415  43.927  54.071  1.00  0.00    -0.273 OA
HETATM    4  H   UNL     1      27.311  45.240  51.873  1.00  0.00     0.169 HD
ENDROOT
BRANCH   1   5
HETATM    5  C   UNL     1      24.846  45.018  52.030  1.00  0.00     0.133 C 
BRANCH   5   6
HETATM    6  C   UNL     1      25.503  45.091  50.648  1.00  0.00     0.126 C 
BRANCH   6   7
HETATM    7  C   UNL     1      25.333  43.816  49.834  1.00  0.00    -0.035 A 
HETATM    8  C   UNL     1      24.078  43.500  49.289  1.00  0.00     0.010 A 
HETATM    9  C   UNL     1      23.904  42.350  48.513  1.00  0.00     0.007 A 
HETATM   10  C   UNL     1      24.979  41.494  48.261  1.00  0.00    -0.062 A 
HETATM   11  C   UNL     1      24.798  40.249  47.444  1.00  0.00     0.048 C 
HETATM   12  C   UNL     1      26.229  41.798  48.808  1.00  0.00     0.007 A 
HETATM   13  C   UNL     1      26.404  42.947  49.584  1.00  0.00     0.010 A 
ENDBRANCH   6   7
BRANCH   6  14
HETATM   14  N   UNL     1      25.130  46.265  49.859  1.00  0.00    -0.352 N 
HETATM   15  C   UNL     1      25.556  47.550  50.098  1.00  0.00     0.214 C 
HETATM   16  C   UNL     1      24.932  48.578  49.193  1.00  0.00     0.117 C 
HETATM   17  O   UNL     1      26.361  47.864  50.969  1.00  0.00    -0.274 OA
HETATM   18  H   UNL     1      24.331  46.146  49.250  1.00  0.00     0.163 HD
ENDBRANCH   6  14
ENDBRANCH   5   6
ENDBRANCH   1   5
BRANCH   2  19
HETATM   19  C   UNL     1      28.299  44.222  53.371  1.00  0.00     0.035 A 
HETATM   20  C   UNL     1      28.716  44.730  54.605  1.00  0.00     0.042 A 
HETATM   21  C   UNL     1      29.870  44.241  55.242  1.00  0.00    -0.021 A 
HETATM   22  C   UNL     1      30.600  43.219  54.619  1.00  0.00     0.012 A 
HETATM   23  C   UNL     1      30.190  42.702  53.390  1.00  0.00     0.003 A 
HETATM   24  C   UNL     1      29.044  43.201  52.771  1.00  0.00     0.029 A 
BRANCH  21  25
HETATM   25  C   UNL     1      30.305  44.768  56.529  1.00  0.00     0.010 A 
HETATM   26  C   UNL     1      29.925  45.938  57.229  1.00  0.00     0.152 A 
HETATM   27  N   UNL     1      30.549  46.069  58.403  1.00  0.00    -0.187 NA
HETATM   28  N   UNL     1      31.338  44.985  58.458  1.00  0.00    -0.289 N 
HETATM   29  H   UNL     1      31.928  44.859  59.275  1.00  0.00     0.188 HD
HETATM   30  C   UNL     1      31.224  44.174  57.368  1.00  0.00     0.123 A 
ENDBRANCH  21  25
ENDBRANCH   2  19
TORSDOF 6
ENDMDL
MODEL 6
REMARK VINA RESULT:      -8.3      4.413      7.314
REMARK  6 active torsions:
REMARK  status: ('A' for Active; 'I' for Inactive)
REMARK    1  A    between atoms: C_5  and  C_6 
REMARK    2  A    between atoms: C_6  and  N_7 
REMARK    3  A    between atoms: C_6  and  C_11 
REMARK       I    between atoms: N_7  and  C_8 
REMARK    4  A    between atoms: C_11  and  C_12 
REMARK       I    between atoms: C_12  and  N_13 
REMARK    5  A    between atoms: N_13  and  C_14 
REMARK    6  A    between atoms: C_16  and  C_17 
ROOT
HETATM    1  C   UNL     1      28.023  40.999  51.604  1.00  0.00     0.224 C 
HETATM    2  N   UNL     1      28.961  40.416  50.772  1.00  0.00    -0.327 N 
HETATM    3  O   UNL     1      26.806  41.010  51.444  1.00  0.00    -0.273 OA
HETATM    4  H   UNL     1      29.912  40.372  51.122  1.00  0.00     0.169 HD
ENDROOT
BRANCH   1   5
HETATM    5  C   UNL     1      28.636  41.624  52.842  1.00  0.00     0.133 C 
BRANCH   5   6
HETATM    6  C   UNL     1      28.088  43.042  53.041  1.00  0.00     0.126 C 
BRANCH   6   7
HETATM    7  C   UNL     1      28.765  43.793  54.179  1.00  0.00    -0.035 A 
HETATM    8  C   UNL     1      28.154  44.933  54.723  1.00  0.00     0.010 A 
HETATM    9  C   UNL     1      28.740  45.621  55.789  1.00  0.00     0.007 A 
HETATM   10  C   UNL     1      29.949  45.184  56.337  1.00  0.00    -0.062 A 
HETATM   11  C   UNL     1      30.596  45.925  57.469  1.00  0.00     0.048 C 
HETATM   12  C   UNL     1      30.569  44.054  55.794  1.00  0.00     0.007 A 
HETATM   13  C   UNL     1      29.982  43.365  54.729  1.00  0.00     0.010 A 
ENDBRANCH   6   7
BRANCH   6  14
HETATM   14  N   UNL     1      28.055  43.857  51.827  1.00  0.00    -0.352 N 
HETATM   15  C   UNL     1      26.934  44.455  51.302  1.00  0.00     0.214 C 
HETATM   16  C   UNL     1      27.171  45.148  49.987  1.00  0.00     0.117 C 
HETATM   17  O   UNL     1      25.826  44.436  51.828  1.00  0.00    -0.274 OA
HETATM   18  H   UNL     1      28.863  43.774  51.224  1.00  0.00     0.163 HD
ENDBRANCH   6  14
ENDBRANCH   5   6
ENDBRANCH   1   5
BRANCH   2  19
HETATM   19  C   UNL     1      28.740  39.797  49.524  1.00  0.00     0.035 A 
HETATM   20  C   UNL     1      28.219  40.455  48.406  1.00  0.00     0.042 A 
HETATM   21  C   UNL     1      28.035  39.784  47.185  1.00  0.00    -0.021 A 
HETATM   22  C   UNL     1      28.392  38.431  47.101  1.00  0.00     0.012 A 
HETATM   23  C   UNL     1      28.917  37.766  48.210  1.00  0.00     0.003 A 
HETATM   24  C   UNL     1      29.090  38.447  49.414  1.00  0.00     0.029 A 
BRANCH  21  25
HETATM   25  C   UNL     1      27.495  40.469  46.018  1.00  0.00     0.010 A 
HETATM   26  C   UNL     1      28.122  40.913  44.829  1.00  0.00     0.152 A 
HETATM   27  N   UNL     1      27.274  41.497  43.978  1.00  0.00    -0.187 NA
HETATM   28  N   UNL     1      26.097  41.435  44.621  1.00  0.00    -0.289 N 
HETATM   29  H   UNL     1      25.278  41.826  44.167  1.00  0.00     0.188 HD
HETATM   30  C   UNL     1      26.174  40.825  45.838  1.00  0.00     0.123 A 
ENDBRANCH  21  25
ENDBRANCH   2  19
TORSDOF 6
ENDMDL
MODEL 7
REMARK VINA RESULT:      -8.3      1.550      2.293
REMARK  6 active torsions:
REMARK  status: ('A' for Active; 'I' for Inactive)
REMARK    1  A    between atoms: C_5  and  C_6 
REMARK    2  A    between atoms: C_6  and  N_7 
REMARK    3  A    between atoms: C_6  and  C_11 
REMARK       I    between atoms: N_7  and  C_8 
REMARK    4  A    between atoms: C_11  and  C_12 
REMARK       I    between atoms: C_12  and  N_13 
REMARK    5  A    between atoms: N_13  and  C_14 
REMARK    6  A    between atoms: C_16  and  C_17 
ROOT
HETATM    1  C   UNL     1      25.095  45.427  51.728  1.00  0.00     0.224 C 
HETATM    2  N   UNL     1      25.110  46.245  50.613  1.00  0.00    -0.327 N 
HETATM    3  O   UNL     1      24.200  44.655  52.058  1.00  0.00    -0.273 OA
HETATM    4  H   UNL     1      25.985  46.715  50.407  1.00  0.00     0.169 HD
ENDROOT
BRANCH   1   5
HETATM    5  C   UNL     1      26.368  45.516  52.545  1.00  0.00     0.133 C 
BRANCH   5   6
HETATM    6  C   UNL     1      27.337  44.402  52.131  1.00  0.00     0.126 C 
BRANCH   6   7
HETATM    7  C   UNL     1      28.407  44.119  53.177  1.00  0.00    -0.035 A 
HETATM    8  C   UNL     1      28.399  44.824  54.390  1.00  0.00     0.010 A 
HETATM    9  C   UNL     1      29.352  44.561  55.378  1.00  0.00     0.007 A 
HETATM   10  C   UNL     1      30.332  43.585  55.177  1.00  0.00    -0.062 A 
HETATM   11  C   UNL     1      31.370  43.307  56.224  1.00  0.00     0.048 C 
HETATM   12  C   UNL     1      30.351  42.885  53.967  1.00  0.00     0.007 A 
HETATM   13  C   UNL     1      29.398  43.147  52.979  1.00  0.00     0.010 A 
ENDBRANCH   6   7
BRANCH   6  14
HETATM   14  N   UNL     1      26.689  43.162  51.701  1.00  0.00    -0.352 N 
HETATM   15  C   UNL     1      26.639  42.701  50.407  1.00  0.00     0.214 C 
HETATM   16  C   UNL     1      25.817  41.452  50.236  1.00  0.00     0.117 C 
HETATM   17  O   UNL     1      27.194  43.241  49.456  1.00  0.00    -0.274 OA
HETATM   18  H   UNL     1      26.047  42.752  52.366  1.00  0.00     0.163 HD
ENDBRANCH   6  14
ENDBRANCH   5   6
ENDBRANCH   1   5
BRANCH   2  19
HETATM   19  C   UNL     1      24.075  46.442  49.674  1.00  0.00     0.035 A 
HETATM   20  C   UNL     1      23.412  47.658  49.485  1.00  0.00     0.042 A 
HETATM   21  C   UNL     1      22.397  47.793  48.521  1.00  0.00    -0.021 A 
HETATM   22  C   UNL     1      22.060  46.679  47.740  1.00  0.00     0.012 A 
HETATM   23  C   UNL     1      22.718  45.462  47.918  1.00  0.00     0.003 A 
HETATM   24  C   UNL     1      23.721  45.346  48.880  1.00  0.00     0.029 A 
BRANCH  21  25
HETATM   25  C   UNL     1      21.707  49.060  48.320  1.00  0.00     0.010 A 
HETATM   26  C   UNL     1      22.060  50.379  48.696  1.00  0.00     0.152 A 
HETATM   27  N   UNL     1      21.158  51.288  48.316  1.00  0.00    -0.187 NA
HETATM   28  N   UNL     1      20.218  50.555  47.699  1.00  0.00    -0.289 N 
HETATM   29  H   UNL     1      19.408  51.032  47.316  1.00  0.00     0.188 HD
HETATM   30  C   UNL     1      20.502  49.221  47.669  1.00  0.00     0.123 A 
ENDBRANCH  21  25
ENDBRANCH   2  19
TORSDOF 6
ENDMDL
MODEL 8
REMARK VINA RESULT:      -8.0      3.387      8.908
REMARK  6 active torsions:
REMARK  status: ('A' for Active; 'I' for Inactive)
REMARK    1  A    between atoms: C_5  and  C_6 
REMARK    2  A    between atoms: C_6  and  N_7 
REMARK    3  A    between atoms: C_6  and  C_11 
REMARK       I    between atoms: N_7  and  C_8 
REMARK    4  A    between atoms: C_11  and  C_12 
REMARK       I    between atoms: C_12  and  N_13 
REMARK    5  A    between atoms: N_13  and  C_14 
REMARK    6  A    between atoms: C_16  and  C_17 
ROOT
HETATM    1  C   UNL     1      25.699  43.801  52.268  1.00  0.00     0.224 C 
HETATM    2  N   UNL     1      27.044  43.997  52.525  1.00  0.00    -0.327 N 
HETATM    3  O   UNL     1      24.757  44.326  52.854  1.00  0.00    -0.273 OA
HETATM    4  H   UNL     1      27.695  43.600  51.857  1.00  0.00     0.169 HD
ENDROOT
BRANCH   1   5
HETATM    5  C   UNL     1      25.449  42.869  51.099  1.00  0.00     0.133 C 
BRANCH   5   6
HETATM    6  C   UNL     1      25.444  43.662  49.787  1.00  0.00     0.126 C 
BRANCH   6   7
HETATM    7  C   UNL     1      24.364  43.207  48.815  1.00  0.00    -0.035 A 
HETATM    8  C   UNL     1      24.008  41.851  48.754  1.00  0.00     0.010 A 
HETATM    9  C   UNL     1      22.998  41.413  47.893  1.00  0.00     0.007 A 
HETATM   10  C   UNL     1      22.318  42.321  47.077  1.00  0.00    -0.062 A 
HETATM   11  C   UNL     1      21.244  41.860  46.137  1.00  0.00     0.048 C 
HETATM   12  C   UNL     1      22.673  43.673  47.127  1.00  0.00     0.007 A 
HETATM   13  C   UNL     1      23.682  44.111  47.988  1.00  0.00     0.010 A 
ENDBRANCH   6   7
BRANCH   6  14
HETATM   14  N   UNL     1      25.416  45.115  49.954  1.00  0.00    -0.352 N 
HETATM   15  C   UNL     1      26.507  45.946  49.857  1.00  0.00     0.214 C 
HETATM   16  C   UNL     1      26.207  47.386  50.179  1.00  0.00     0.117 C 
HETATM   17  O   UNL     1      27.635  45.578  49.549  1.00  0.00    -0.274 OA
HETATM   18  H   UNL     1      24.585  45.486  50.396  1.00  0.00     0.163 HD
ENDBRANCH   6  14
ENDBRANCH   5   6
ENDBRANCH   1   5
BRANCH   2  19
HETATM   19  C   UNL     1      27.621  44.757  53.564  1.00  0.00     0.035 A 
HETATM   20  C   UNL     1      28.623  44.283  54.416  1.00  0.00     0.042 A 
HETATM   21  C   UNL     1      29.167  45.097  55.425  1.00  0.00    -0.021 A 
HETATM   22  C   UNL     1      28.690  46.408  55.561  1.00  0.00     0.012 A 
HETATM   23  C   UNL     1      27.694  46.892  54.713  1.00  0.00     0.003 A 
HETATM   24  C   UNL     1      27.163  46.070  53.719  1.00  0.00     0.029 A 
BRANCH  21  25
HETATM   25  C   UNL     1      30.212  44.606  56.312  1.00  0.00     0.010 A 
HETATM   26  C   UNL     1      30.620  45.040  57.597  1.00  0.00     0.152 A 
HETATM   27  N   UNL     1      31.624  44.316  58.098  1.00  0.00    -0.187 NA
HETATM   28  N   UNL     1      31.870  43.416  57.134  1.00  0.00    -0.289 N 
HETATM   29  H   UNL     1      32.612  42.739  57.283  1.00  0.00     0.188 HD
HETATM   30  C   UNL     1      31.051  43.542  56.051  1.00  0.00     0.123 A 
ENDBRANCH  21  25
ENDBRANCH   2  19
TORSDOF 6
ENDMDL
MODEL 9
REMARK VINA RESULT:      -8.0      4.390      8.759
REMARK  6 active torsions:
REMARK  status: ('A' for Active; 'I' for Inactive)
REMARK    1  A    between atoms: C_5  and  C_6 
REMARK    2  A    between atoms: C_6  and  N_7 
REMARK    3  A    between atoms: C_6  and  C_11 
REMARK       I    between atoms: N_7  and  C_8 
REMARK    4  A    between atoms: C_11  and  C_12 
REMARK       I    between atoms: C_12  and  N_13 
REMARK    5  A    between atoms: N_13  and  C_14 
REMARK    6  A    between atoms: C_16  and  C_17 
ROOT
HETATM    1  C   UNL     1      27.819  40.748  50.786  1.00  0.00     0.224 C 
HETATM    2  N   UNL     1      28.744  40.427  49.810  1.00  0.00    -0.327 N 
HETATM    3  O   UNL     1      26.601  40.612  50.714  1.00  0.00    -0.273 OA
HETATM    4  H   UNL     1      29.721  40.466  50.082  1.00  0.00     0.169 HD
ENDROOT
BRANCH   1   5
HETATM    5  C   UNL     1      28.456  41.267  52.060  1.00  0.00     0.133 C 
BRANCH   5   6
HETATM    6  C   UNL     1      27.848  42.623  52.437  1.00  0.00     0.126 C 
BRANCH   6   7
HETATM    7  C   UNL     1      28.567  43.302  53.594  1.00  0.00    -0.035 A 
HETATM    8  C   UNL     1      29.723  42.717  54.135  1.00  0.00     0.010 A 
HETATM    9  C   UNL     1      30.420  43.337  55.177  1.00  0.00     0.007 A 
HETATM   10  C   UNL     1      29.978  44.556  55.698  1.00  0.00    -0.062 A 
HETATM   11  C   UNL     1      30.709  45.221  56.827  1.00  0.00     0.048 C 
HETATM   12  C   UNL     1      28.823  45.140  55.170  1.00  0.00     0.007 A 
HETATM   13  C   UNL     1      28.127  44.521  54.128  1.00  0.00     0.010 A 
ENDBRANCH   6   7
BRANCH   6  14
HETATM   14  N   UNL     1      27.678  43.546  51.316  1.00  0.00    -0.352 N 
HETATM   15  C   UNL     1      26.497  44.154  50.960  1.00  0.00     0.214 C 
HETATM   16  C   UNL     1      26.589  44.974  49.700  1.00  0.00     0.117 C 
HETATM   17  O   UNL     1      25.447  44.049  51.584  1.00  0.00    -0.274 OA
HETATM   18  H   UNL     1      28.425  43.546  50.634  1.00  0.00     0.163 HD
ENDBRANCH   6  14
ENDBRANCH   5   6
ENDBRANCH   1   5
BRANCH   2  19
HETATM   19  C   UNL     1      28.492  39.970  48.500  1.00  0.00     0.035 A 
HETATM   20  C   UNL     1      28.480  38.622  48.130  1.00  0.00     0.042 A 
HETATM   21  C   UNL     1      28.208  38.231  46.808  1.00  0.00    -0.021 A 
HETATM   22  C   UNL     1      27.938  39.224  45.855  1.00  0.00     0.012 A 
HETATM   23  C   UNL     1      27.943  40.572  46.214  1.00  0.00     0.003 A 
HETATM   24  C   UNL     1      28.218  40.942  47.530  1.00  0.00     0.029 A 
BRANCH  21  25
HETATM   25  C   UNL     1      28.192  36.827  46.421  1.00  0.00     0.010 A 
HETATM   26  C   UNL     1      29.042  36.091  45.560  1.00  0.00     0.152 A 
HETATM   27  N   UNL     1      28.703  34.802  45.469  1.00  0.00    -0.187 NA
HETATM   28  N   UNL     1      27.631  34.705  46.270  1.00  0.00    -0.289 N 
HETATM   29  H   UNL     1      27.181  33.800  46.367  1.00  0.00     0.188 HD
HETATM   30  C   UNL     1      27.290  35.883  46.866  1.00  0.00     0.123 A 
ENDBRANCH  21  25
ENDBRANCH   2  19
TORSDOF 6
ENDMDL
MODEL 10
REMARK VINA RESULT:      -8.0      2.622      9.153
REMARK  6 active torsions:
REMARK  status: ('A' for Active; 'I' for Inactive)
REMARK    1  A    between atoms: C_5  and  C_6 
REMARK    2  A    between atoms: C_6  and  N_7 
REMARK    3  A    between atoms: C_6  and  C_11 
REMARK       I    between atoms: N_7  and  C_8 
REMARK    4  A    between atoms: C_11  and  C_12 
REMARK       I    between atoms: C_12  and  N_13 
REMARK    5  A    between atoms: N_13  and  C_14 
REMARK    6  A    between atoms: C_16  and  C_17 
ROOT
HETATM    1  C   UNL     1      24.390  46.537  50.270  1.00  0.00     0.224 C 
HETATM    2  N   UNL     1      25.238  47.103  51.204  1.00  0.00    -0.327 N 
HETATM    3  O   UNL     1      24.022  45.367  50.228  1.00  0.00    -0.273 OA
HETATM    4  H   UNL     1      25.326  48.113  51.182  1.00  0.00     0.169 HD
ENDROOT
BRANCH   1   5
HETATM    5  C   UNL     1      23.866  47.539  49.260  1.00  0.00     0.133 C 
BRANCH   5   6
HETATM    6  C   UNL     1      22.368  47.313  49.024  1.00  0.00     0.126 C 
BRANCH   6   7
HETATM    7  C   UNL     1      21.575  48.609  48.921  1.00  0.00    -0.035 A 
HETATM    8  C   UNL     1      22.237  49.809  48.622  1.00  0.00     0.010 A 
HETATM    9  C   UNL     1      21.527  51.007  48.492  1.00  0.00     0.007 A 
HETATM   10  C   UNL     1      20.139  51.029  48.655  1.00  0.00    -0.062 A 
HETATM   11  C   UNL     1      19.370  52.311  48.534  1.00  0.00     0.048 C 
HETATM   12  C   UNL     1      19.474  49.838  48.961  1.00  0.00     0.007 A 
HETATM   13  C   UNL     1      20.183  48.641  49.090  1.00  0.00     0.010 A 
ENDBRANCH   6   7
BRANCH   6  14
HETATM   14  N   UNL     1      22.057  46.423  47.905  1.00  0.00    -0.352 N 
HETATM   15  C   UNL     1      21.369  45.237  48.003  1.00  0.00     0.214 C 
HETATM   16  C   UNL     1      21.284  44.473  46.709  1.00  0.00     0.117 C 
HETATM   17  O   UNL     1      20.866  44.809  49.037  1.00  0.00    -0.274 OA
HETATM   18  H   UNL     1      22.587  46.585  47.059  1.00  0.00     0.163 HD
ENDBRANCH   6  14
ENDBRANCH   5   6
ENDBRANCH   1   5
BRANCH   2  19
HETATM   19  C   UNL     1      25.935  46.451  52.242  1.00  0.00     0.035 A 
HETATM   20  C   UNL     1      26.654  45.263  52.076  1.00  0.00     0.042 A 
HETATM   21  C   UNL     1      27.340  44.670  53.150  1.00  0.00    -0.021 A 
HETATM   22  C   UNL     1      27.298  45.298  54.403  1.00  0.00     0.012 A 
HETATM   23  C   UNL     1      26.588  46.486  54.578  1.00  0.00     0.003 A 
HETATM   24  C   UNL     1      25.911  47.059  53.502  1.00  0.00     0.029 A 
BRANCH  21  25
HETATM   25  C   UNL     1      28.091  43.434  52.979  1.00  0.00     0.010 A 
HETATM   26  C   UNL     1      27.682  42.081  53.054  1.00  0.00     0.152 A 
HETATM   27  N   UNL     1      28.678  41.221  52.822  1.00  0.00    -0.187 NA
HETATM   28  N   UNL     1      29.733  42.020  52.601  1.00  0.00    -0.289 N 
HETATM   29  H   UNL     1      30.630  41.590  52.400  1.00  0.00     0.188 HD
HETATM   30  C   UNL     1      29.434  43.349  52.676  1.00  0.00     0.123 A 
ENDBRANCH  21  25
ENDBRANCH   2  19
TORSDOF 6
ENDMDL
