MODEL 1
REMARK VINA RESULT:     -10.5      0.000      0.000
REMARK  4 active torsions:
REMARK  status: ('A' for Active; 'I' for Inactive)
REMARK    1  A    between atoms: N_4  and  C_5 
REMARK    2  A    between atoms: C_15  and  C_16 
REMARK       I    between atoms: C_16  and  N_17 
REMARK    3  A    between atoms: N_17  and  C_18 
REMARK    4  A    between atoms: C_19  and  C_20 
REMARK       I    between atoms: C_20  and  N_21 
ROOT
HETATM    1  C   UNL     1      26.346  46.106  53.069  1.00  0.00     0.073 C 
HETATM    2  C   UNL     1      27.352  45.140  53.574  1.00  0.00     0.069 A 
HETATM    3  N   UNL     1      28.205  45.502  54.542  1.00  0.00    -0.170 NA
HETATM    4  N   UNL     1      28.959  44.390  54.802  1.00  0.00    -0.216 N 
HETATM    5  C   UNL     1      28.648  43.383  53.898  1.00  0.00     0.145 A 
HETATM    6  C   UNL     1      27.604  43.833  53.125  1.00  0.00     0.087 A 
HETATM    7  N   UNL     1      29.248  42.186  53.686  1.00  0.00    -0.349 N 
HETATM    8  C   UNL     1      28.788  41.402  52.641  1.00  0.00     0.111 A 
HETATM    9  C   UNL     1      27.747  41.716  51.838  1.00  0.00     0.098 A 
HETATM   10  C   UNL     1      27.043  43.026  52.062  1.00  0.00     0.205 A 
HETATM   11  O   UNL     1      26.095  43.381  51.365  1.00  0.00    -0.286 OA
HETATM   12  H   UNL     1      30.166  41.944  54.056  1.00  0.00     0.167 HD
ENDROOT
BRANCH   9  13
HETATM   13  C   UNL     1      27.404  40.775  50.727  1.00  0.00     0.261 C 
HETATM   14  N   UNL     1      28.374  40.657  49.747  1.00  0.00    -0.322 N 
HETATM   15  H   UNL     1      29.281  41.070  49.973  1.00  0.00     0.169 HD
HETATM   16  O   UNL     1      26.362  40.131  50.770  1.00  0.00    -0.267 OA
BRANCH  14  17
HETATM   17  C   UNL     1      28.392  39.667  48.733  1.00  0.00     0.050 A 
HETATM   18  C   UNL     1      29.050  38.424  48.782  1.00  0.00     0.058 A 
HETATM   19  C   UNL     1      29.104  37.623  47.625  1.00  0.00     0.019 A 
HETATM   20  C   UNL     1      28.466  38.017  46.450  1.00  0.00     0.001 A 
HETATM   21  C   UNL     1      27.746  39.205  46.423  1.00  0.00     0.002 A 
HETATM   22  C   UNL     1      27.703  40.019  47.558  1.00  0.00     0.030 A 
BRANCH  18  23
HETATM   23  C   UNL     1      29.572  37.770  50.012  1.00  0.00     0.251 C 
HETATM   24  N   UNL     1      28.731  36.900  50.651  1.00  0.00    -0.366 N 
HETATM   25  H   UNL     1      27.764  36.785  50.384  1.00  0.00     0.159 HD
HETATM   26  H   UNL     1      29.067  36.477  51.504  1.00  0.00     0.159 HD
HETATM   27  O   UNL     1      30.734  37.902  50.375  1.00  0.00    -0.268 OA
ENDBRANCH  18  23
ENDBRANCH  14  17
ENDBRANCH   9  13
BRANCH   4  28
HETATM   28  C   UNL     1      29.890  44.398  55.879  1.00  0.00     0.060 A 
HETATM   29  C   UNL     1      30.884  43.421  56.006  1.00  0.00     0.031 A 
HETATM   30  C   UNL     1      31.783  43.468  57.076  1.00  0.00     0.002 A 
HETATM   31  C   UNL     1      31.693  44.484  58.026  1.00  0.00     0.000 A 
HETATM   32  C   UNL     1      30.692  45.447  57.921  1.00  0.00     0.002 A 
HETATM   33  C   UNL     1      29.786  45.401  56.858  1.00  0.00     0.031 A 
ENDBRANCH   4  28
TORSDOF 4
ENDMDL
MODEL 2
REMARK VINA RESULT:     -10.2      6.640     10.609
REMARK  4 active torsions:
REMARK  status: ('A' for Active; 'I' for Inactive)
REMARK    1  A    between atoms: N_4  and  C_5 
REMARK    2  A    between atoms: C_15  and  C_16 
REMARK       I    between atoms: C_16  and  N_17 
REMARK    3  A    between atoms: N_17  and  C_18 
REMARK    4  A    between atoms: C_19  and  C_20 
REMARK       I    between atoms: C_20  and  N_21 
ROOT
HETATM    1  C   UNL     1      27.670  48.597  49.306  1.00  0.00     0.073 C 
HETATM    2  C   UNL     1      26.914  47.330  49.463  1.00  0.00     0.069 A 
HETATM    3  N   UNL     1      27.568  46.166  49.577  1.00  0.00    -0.170 NA
HETATM    4  N   UNL     1      26.599  45.214  49.744  1.00  0.00    -0.216 N 
HETATM    5  C   UNL     1      25.343  45.786  49.604  1.00  0.00     0.145 A 
HETATM    6  C   UNL     1      25.522  47.142  49.454  1.00  0.00     0.087 A 
HETATM    7  N   UNL     1      24.121  45.203  49.537  1.00  0.00    -0.349 N 
HETATM    8  C   UNL     1      23.023  46.011  49.296  1.00  0.00     0.111 A 
HETATM    9  C   UNL     1      23.066  47.357  49.169  1.00  0.00     0.098 A 
HETATM   10  C   UNL     1      24.402  48.040  49.264  1.00  0.00     0.205 A 
HETATM   11  O   UNL     1      24.518  49.258  49.150  1.00  0.00    -0.286 OA
HETATM   12  H   UNL     1      23.983  44.204  49.384  1.00  0.00     0.167 HD
ENDROOT
BRANCH   9  13
HETATM   13  C   UNL     1      21.791  48.078  48.868  1.00  0.00     0.261 C 
HETATM   14  N   UNL     1      21.446  49.053  49.787  1.00  0.00    -0.322 N 
HETATM   15  H   UNL     1      22.174  49.302  50.459  1.00  0.00     0.169 HD
HETATM   16  O   UNL     1      21.178  47.833  47.834  1.00  0.00    -0.267 OA
BRANCH  14  17
HETATM   17  C   UNL     1      20.429  50.023  49.604  1.00  0.00     0.050 A 
HETATM   18  C   UNL     1      19.082  49.916  50.001  1.00  0.00     0.058 A 
HETATM   19  C   UNL     1      18.162  50.903  49.601  1.00  0.00     0.019 A 
HETATM   20  C   UNL     1      18.576  52.014  48.867  1.00  0.00     0.001 A 
HETATM   21  C   UNL     1      19.919  52.163  48.545  1.00  0.00     0.002 A 
HETATM   22  C   UNL     1      20.838  51.180  48.918  1.00  0.00     0.030 A 
BRANCH  18  23
HETATM   23  C   UNL     1      18.543  48.922  50.969  1.00  0.00     0.251 C 
HETATM   24  N   UNL     1      18.070  47.749  50.447  1.00  0.00    -0.366 N 
HETATM   25  H   UNL     1      17.976  47.595  49.454  1.00  0.00     0.159 HD
HETATM   26  H   UNL     1      17.674  47.083  51.095  1.00  0.00     0.159 HD
HETATM   27  O   UNL     1      18.624  49.085  52.180  1.00  0.00    -0.268 OA
ENDBRANCH  18  23
ENDBRANCH  14  17
ENDBRANCH   9  13
BRANCH   4  28
HETATM   28  C   UNL     1      26.967  43.867  50.022  1.00  0.00     0.060 A 
HETATM   29  C   UNL     1      26.672  42.823  49.139  1.00  0.00     0.031 A 
HETATM   30  C   UNL     1      27.056  41.514  49.446  1.00  0.00     0.002 A 
HETATM   31  C   UNL     1      27.728  41.239  50.635  1.00  0.00     0.000 A 
HETATM   32  C   UNL     1      28.005  42.269  51.532  1.00  0.00     0.002 A 
HETATM   33  C   UNL     1      27.618  43.577  51.234  1.00  0.00     0.031 A 
ENDBRANCH   4  28
TORSDOF 4
ENDMDL
MODEL 3
REMARK VINA RESULT:     -10.1      4.634      9.011
REMARK  4 active torsions:
REMARK  status: ('A' for Active; 'I' for Inactive)
REMARK    1  A    between atoms: N_4  and  C_5 
REMARK    2  A    between atoms: C_15  and  C_16 
REMARK       I    between atoms: C_16  and  N_17 
REMARK    3  A    between atoms: N_17  and  C_18 
REMARK    4  A    between atoms: C_19  and  C_20 
REMARK       I    between atoms: C_20  and  N_21 
ROOT
HETATM    1  C   UNL     1      22.879  43.625  48.794  1.00  0.00     0.073 C 
HETATM    2  C   UNL     1      23.309  44.958  49.286  1.00  0.00     0.069 A 
HETATM    3  N   UNL     1      23.010  46.061  48.587  1.00  0.00    -0.170 NA
HETATM    4  N   UNL     1      23.506  47.105  49.320  1.00  0.00    -0.216 N 
HETATM    5  C   UNL     1      24.221  46.625  50.407  1.00  0.00     0.145 A 
HETATM    6  C   UNL     1      24.083  45.256  50.420  1.00  0.00     0.087 A 
HETATM    7  N   UNL     1      25.002  47.285  51.298  1.00  0.00    -0.349 N 
HETATM    8  C   UNL     1      25.688  46.540  52.243  1.00  0.00     0.111 A 
HETATM    9  C   UNL     1      25.603  45.197  52.380  1.00  0.00     0.098 A 
HETATM   10  C   UNL     1      24.725  44.436  51.425  1.00  0.00     0.205 A 
HETATM   11  O   UNL     1      24.607  43.215  51.485  1.00  0.00    -0.286 OA
HETATM   12  H   UNL     1      25.329  48.240  51.159  1.00  0.00     0.167 HD
ENDROOT
BRANCH   9  13
HETATM   13  C   UNL     1      26.444  44.541  53.428  1.00  0.00     0.261 C 
HETATM   14  N   UNL     1      27.805  44.742  53.289  1.00  0.00    -0.322 N 
HETATM   15  H   UNL     1      28.078  45.455  52.610  1.00  0.00     0.169 HD
HETATM   16  O   UNL     1      25.909  43.944  54.357  1.00  0.00    -0.267 OA
BRANCH  14  17
HETATM   17  C   UNL     1      28.780  44.431  54.270  1.00  0.00     0.050 A 
HETATM   18  C   UNL     1      29.209  45.260  55.324  1.00  0.00     0.058 A 
HETATM   19  C   UNL     1      30.303  44.864  56.116  1.00  0.00     0.019 A 
HETATM   20  C   UNL     1      30.931  43.637  55.908  1.00  0.00     0.001 A 
HETATM   21  C   UNL     1      30.458  42.780  54.923  1.00  0.00     0.002 A 
HETATM   22  C   UNL     1      29.387  43.171  54.116  1.00  0.00     0.030 A 
BRANCH  18  23
HETATM   23  C   UNL     1      28.500  46.476  55.810  1.00  0.00     0.251 C 
HETATM   24  N   UNL     1      28.220  47.438  54.879  1.00  0.00    -0.366 N 
HETATM   25  H   UNL     1      28.569  47.397  53.933  1.00  0.00     0.159 HD
HETATM   26  H   UNL     1      27.767  48.279  55.208  1.00  0.00     0.159 HD
HETATM   27  O   UNL     1      28.079  46.567  56.956  1.00  0.00    -0.268 OA
ENDBRANCH  18  23
ENDBRANCH  14  17
ENDBRANCH   9  13
BRANCH   4  28
HETATM   28  C   UNL     1      23.246  48.445  48.913  1.00  0.00     0.060 A 
HETATM   29  C   UNL     1      24.240  49.253  48.351  1.00  0.00     0.031 A 
HETATM   30  C   UNL     1      23.943  50.562  47.959  1.00  0.00     0.002 A 
HETATM   31  C   UNL     1      22.658  51.073  48.130  1.00  0.00     0.000 A 
HETATM   32  C   UNL     1      21.668  50.283  48.712  1.00  0.00     0.002 A 
HETATM   33  C   UNL     1      21.961  48.977  49.111  1.00  0.00     0.031 A 
ENDBRANCH   4  28
TORSDOF 4
ENDMDL
MODEL 4
REMARK VINA RESULT:      -9.9      5.218      8.697
REMARK  4 active torsions:
REMARK  status: ('A' for Active; 'I' for Inactive)
REMARK    1  A    between atoms: N_4  and  C_5 
REMARK    2  A    between atoms: C_15  and  C_16 
REMARK       I    between atoms: C_16  and  N_17 
REMARK    3  A    between atoms: N_17  and  C_18 
REMARK    4  A    between atoms: C_19  and  C_20 
REMARK       I    between atoms: C_20  and  N_21 
ROOT
HETATM    1  C   UNL     1      27.323  49.619  48.783  1.00  0.00     0.073 C 
HETATM    2  C   UNL     1      25.918  49.173  48.945  1.00  0.00     0.069 A 
HETATM    3  N   UNL     1      24.916  50.059  48.858  1.00  0.00    -0.170 NA
HETATM    4  N   UNL     1      23.767  49.331  49.011  1.00  0.00    -0.216 N 
HETATM    5  C   UNL     1      24.077  48.014  49.319  1.00  0.00     0.145 A 
HETATM    6  C   UNL     1      25.445  47.886  49.253  1.00  0.00     0.087 A 
HETATM    7  N   UNL     1      23.269  46.994  49.701  1.00  0.00    -0.349 N 
HETATM    8  C   UNL     1      23.858  45.789  50.046  1.00  0.00     0.111 A 
HETATM    9  C   UNL     1      25.183  45.529  49.984  1.00  0.00     0.098 A 
HETATM   10  C   UNL     1      26.106  46.630  49.539  1.00  0.00     0.205 A 
HETATM   11  O   UNL     1      27.321  46.469  49.468  1.00  0.00    -0.286 OA
HETATM   12  H   UNL     1      22.306  47.125  50.008  1.00  0.00     0.167 HD
ENDROOT
BRANCH   9  13
HETATM   13  C   UNL     1      25.660  44.184  50.432  1.00  0.00     0.261 C 
HETATM   14  N   UNL     1      26.815  44.202  51.192  1.00  0.00    -0.322 N 
HETATM   15  H   UNL     1      27.113  45.124  51.518  1.00  0.00     0.169 HD
HETATM   16  O   UNL     1      24.998  43.184  50.178  1.00  0.00    -0.267 OA
BRANCH  14  17
HETATM   17  C   UNL     1      27.328  43.103  51.924  1.00  0.00     0.050 A 
HETATM   18  C   UNL     1      27.387  42.978  53.325  1.00  0.00     0.058 A 
HETATM   19  C   UNL     1      28.075  41.890  53.895  1.00  0.00     0.019 A 
HETATM   20  C   UNL     1      28.647  40.904  53.093  1.00  0.00     0.001 A 
HETATM   21  C   UNL     1      28.518  40.981  51.712  1.00  0.00     0.002 A 
HETATM   22  C   UNL     1      27.857  42.067  51.133  1.00  0.00     0.030 A 
BRANCH  18  23
HETATM   23  C   UNL     1      26.636  43.815  54.300  1.00  0.00     0.251 C 
HETATM   24  N   UNL     1      25.804  43.157  55.164  1.00  0.00    -0.366 N 
HETATM   25  H   UNL     1      25.609  42.170  55.083  1.00  0.00     0.159 HD
HETATM   26  H   UNL     1      25.268  43.721  55.807  1.00  0.00     0.159 HD
HETATM   27  O   UNL     1      26.835  45.019  54.412  1.00  0.00    -0.268 OA
ENDBRANCH  18  23
ENDBRANCH  14  17
ENDBRANCH   9  13
BRANCH   4  28
HETATM   28  C   UNL     1      22.501  49.960  48.846  1.00  0.00     0.060 A 
HETATM   29  C   UNL     1      21.831  49.962  47.617  1.00  0.00     0.031 A 
HETATM   30  C   UNL     1      20.585  50.586  47.497  1.00  0.00     0.002 A 
HETATM   31  C   UNL     1      20.005  51.214  48.598  1.00  0.00     0.000 A 
HETATM   32  C   UNL     1      20.675  51.237  49.818  1.00  0.00     0.002 A 
HETATM   33  C   UNL     1      21.923  50.622  49.942  1.00  0.00     0.031 A 
ENDBRANCH   4  28
TORSDOF 4
ENDMDL
MODEL 5
REMARK VINA RESULT:      -9.8      5.615      8.969
REMARK  4 active torsions:
REMARK  status: ('A' for Active; 'I' for Inactive)
REMARK    1  A    between atoms: N_4  and  C_5 
REMARK    2  A    between atoms: C_15  and  C_16 
REMARK       I    between atoms: C_16  and  N_17 
REMARK    3  A    between atoms: N_17  and  C_18 
REMARK    4  A    between atoms: C_19  and  C_20 
REMARK       I    between atoms: C_20  and  N_21 
ROOT
HETATM    1  C   UNL     1      24.314  42.403  50.325  1.00  0.00     0.073 C 
HETATM    2  C   UNL     1      25.212  43.396  50.964  1.00  0.00     0.069 A 
HETATM    3  N   UNL     1      26.082  43.009  51.906  1.00  0.00    -0.170 NA
HETATM    4  N   UNL     1      26.774  44.137  52.254  1.00  0.00    -0.216 N 
HETATM    5  C   UNL     1      26.236  45.242  51.610  1.00  0.00     0.145 A 
HETATM    6  C   UNL     1      25.257  44.786  50.759  1.00  0.00     0.087 A 
HETATM    7  N   UNL     1      26.500  46.561  51.775  1.00  0.00    -0.349 N 
HETATM    8  C   UNL     1      25.740  47.473  51.061  1.00  0.00     0.111 A 
HETATM    9  C   UNL     1      24.778  47.148  50.168  1.00  0.00     0.098 A 
HETATM   10  C   UNL     1      24.478  45.692  49.942  1.00  0.00     0.205 A 
HETATM   11  O   UNL     1      23.611  45.323  49.153  1.00  0.00    -0.286 OA
HETATM   12  H   UNL     1      27.020  46.936  52.568  1.00  0.00     0.167 HD
ENDROOT
BRANCH   9  13
HETATM   13  C   UNL     1      24.021  48.258  49.512  1.00  0.00     0.261 C 
HETATM   14  N   UNL     1      22.660  48.041  49.394  1.00  0.00    -0.322 N 
HETATM   15  H   UNL     1      22.294  47.246  49.922  1.00  0.00     0.169 HD
HETATM   16  O   UNL     1      24.601  49.289  49.190  1.00  0.00    -0.267 OA
BRANCH  14  17
HETATM   17  C   UNL     1      21.705  49.023  49.033  1.00  0.00     0.050 A 
HETATM   18  C   UNL     1      20.888  49.022  47.886  1.00  0.00     0.058 A 
HETATM   19  C   UNL     1      20.106  50.155  47.592  1.00  0.00     0.019 A 
HETATM   20  C   UNL     1      20.085  51.254  48.450  1.00  0.00     0.001 A 
HETATM   21  C   UNL     1      20.826  51.224  49.624  1.00  0.00     0.002 A 
HETATM   22  C   UNL     1      21.623  50.115  49.917  1.00  0.00     0.030 A 
BRANCH  18  23
HETATM   23  C   UNL     1      20.629  47.847  47.010  1.00  0.00     0.251 C 
HETATM   24  N   UNL     1      19.359  47.711  46.522  1.00  0.00    -0.366 N 
HETATM   25  H   UNL     1      18.596  48.299  46.823  1.00  0.00     0.159 HD
HETATM   26  H   UNL     1      19.169  46.899  45.953  1.00  0.00     0.159 HD
HETATM   27  O   UNL     1      21.529  47.102  46.641  1.00  0.00    -0.268 OA
ENDBRANCH  18  23
ENDBRANCH  14  17
ENDBRANCH   9  13
BRANCH   4  28
HETATM   28  C   UNL     1      27.872  44.046  53.156  1.00  0.00     0.060 A 
HETATM   29  C   UNL     1      27.947  44.831  54.312  1.00  0.00     0.031 A 
HETATM   30  C   UNL     1      29.040  44.708  55.175  1.00  0.00     0.002 A 
HETATM   31  C   UNL     1      30.065  43.809  54.888  1.00  0.00     0.000 A 
HETATM   32  C   UNL     1      30.011  43.041  53.727  1.00  0.00     0.002 A 
HETATM   33  C   UNL     1      28.925  43.164  52.857  1.00  0.00     0.031 A 
ENDBRANCH   4  28
TORSDOF 4
ENDMDL
MODEL 6
REMARK VINA RESULT:      -9.6      5.807     10.370
REMARK  4 active torsions:
REMARK  status: ('A' for Active; 'I' for Inactive)
REMARK    1  A    between atoms: N_4  and  C_5 
REMARK    2  A    between atoms: C_15  and  C_16 
REMARK       I    between atoms: C_16  and  N_17 
REMARK    3  A    between atoms: N_17  and  C_18 
REMARK    4  A    between atoms: C_19  and  C_20 
REMARK       I    between atoms: C_20  and  N_21 
ROOT
HETATM    1  C   UNL     1      24.282  49.919  48.730  1.00  0.00     0.073 C 
HETATM    2  C   UNL     1      23.637  48.593  48.561  1.00  0.00     0.069 A 
HETATM    3  N   UNL     1      22.655  48.432  47.664  1.00  0.00    -0.170 NA
HETATM    4  N   UNL     1      22.311  47.109  47.729  1.00  0.00    -0.216 N 
HETATM    5  C   UNL     1      23.001  46.489  48.761  1.00  0.00     0.145 A 
HETATM    6  C   UNL     1      23.874  47.413  49.286  1.00  0.00     0.087 A 
HETATM    7  N   UNL     1      22.859  45.245  49.281  1.00  0.00    -0.349 N 
HETATM    8  C   UNL     1      23.621  44.909  50.388  1.00  0.00     0.111 A 
HETATM    9  C   UNL     1      24.539  45.714  50.969  1.00  0.00     0.098 A 
HETATM   10  C   UNL     1      24.740  47.093  50.401  1.00  0.00     0.205 A 
HETATM   11  O   UNL     1      25.550  47.881  50.883  1.00  0.00    -0.286 OA
HETATM   12  H   UNL     1      22.058  44.644  49.090  1.00  0.00     0.167 HD
ENDROOT
BRANCH   9  13
HETATM   13  C   UNL     1      25.248  45.212  52.186  1.00  0.00     0.261 C 
HETATM   14  N   UNL     1      26.499  45.763  52.396  1.00  0.00    -0.322 N 
HETATM   15  H   UNL     1      26.726  46.574  51.817  1.00  0.00     0.169 HD
HETATM   16  O   UNL     1      24.685  44.428  52.942  1.00  0.00    -0.267 OA
BRANCH  14  17
HETATM   17  C   UNL     1      27.258  45.634  53.586  1.00  0.00     0.050 A 
HETATM   18  C   UNL     1      27.339  46.566  54.638  1.00  0.00     0.058 A 
HETATM   19  C   UNL     1      28.265  46.358  55.678  1.00  0.00     0.019 A 
HETATM   20  C   UNL     1      29.062  45.214  55.710  1.00  0.00     0.001 A 
HETATM   21  C   UNL     1      28.925  44.253  54.716  1.00  0.00     0.002 A 
HETATM   22  C   UNL     1      28.025  44.458  53.669  1.00  0.00     0.030 A 
BRANCH  18  23
HETATM   23  C   UNL     1      26.404  47.702  54.861  1.00  0.00     0.251 C 
HETATM   24  N   UNL     1      26.729  48.582  55.857  1.00  0.00    -0.366 N 
HETATM   25  H   UNL     1      27.496  48.421  56.493  1.00  0.00     0.159 HD
HETATM   26  H   UNL     1      26.083  49.337  56.034  1.00  0.00     0.159 HD
HETATM   27  O   UNL     1      25.453  47.916  54.118  1.00  0.00    -0.268 OA
ENDBRANCH  18  23
ENDBRANCH  14  17
ENDBRANCH   9  13
BRANCH   4  28
HETATM   28  C   UNL     1      21.370  46.574  46.804  1.00  0.00     0.060 A 
HETATM   29  C   UNL     1      21.716  45.567  45.896  1.00  0.00     0.031 A 
HETATM   30  C   UNL     1      20.760  45.064  45.008  1.00  0.00     0.002 A 
HETATM   31  C   UNL     1      19.460  45.564  45.017  1.00  0.00     0.000 A 
HETATM   32  C   UNL     1      19.113  46.583  45.901  1.00  0.00     0.002 A 
HETATM   33  C   UNL     1      20.065  47.095  46.785  1.00  0.00     0.031 A 
ENDBRANCH   4  28
TORSDOF 4
ENDMDL
MODEL 7
REMARK VINA RESULT:      -9.5     10.014     13.878
REMARK  4 active torsions:
REMARK  status: ('A' for Active; 'I' for Inactive)
REMARK    1  A    between atoms: N_4  and  C_5 
REMARK    2  A    between atoms: C_15  and  C_16 
REMARK       I    between atoms: C_16  and  N_17 
REMARK    3  A    between atoms: N_17  and  C_18 
REMARK    4  A    between atoms: C_19  and  C_20 
REMARK       I    between atoms: C_20  and  N_21 
ROOT
HETATM    1  C   UNL     1      17.346  47.292  48.109  1.00  0.00     0.073 C 
HETATM    2  C   UNL     1      17.464  48.769  48.183  1.00  0.00     0.069 A 
HETATM    3  N   UNL     1      16.457  49.547  47.765  1.00  0.00    -0.170 NA
HETATM    4  N   UNL     1      16.862  50.832  48.002  1.00  0.00    -0.216 N 
HETATM    5  C   UNL     1      18.175  50.841  48.451  1.00  0.00     0.145 A 
HETATM    6  C   UNL     1      18.568  49.531  48.601  1.00  0.00     0.087 A 
HETATM    7  N   UNL     1      19.019  51.881  48.657  1.00  0.00    -0.349 N 
HETATM    8  C   UNL     1      20.326  51.600  49.020  1.00  0.00     0.111 A 
HETATM    9  C   UNL     1      20.819  50.360  49.236  1.00  0.00     0.098 A 
HETATM   10  C   UNL     1      19.902  49.184  49.042  1.00  0.00     0.205 A 
HETATM   11  O   UNL     1      20.284  48.029  49.211  1.00  0.00    -0.286 OA
HETATM   12  H   UNL     1      18.845  52.824  48.309  1.00  0.00     0.167 HD
ENDROOT
BRANCH   9  13
HETATM   13  C   UNL     1      22.268  50.228  49.584  1.00  0.00     0.261 C 
HETATM   14  N   UNL     1      22.938  49.227  48.905  1.00  0.00    -0.322 N 
HETATM   15  H   UNL     1      22.433  48.815  48.118  1.00  0.00     0.169 HD
HETATM   16  O   UNL     1      22.784  51.020  50.365  1.00  0.00    -0.267 OA
BRANCH  14  17
HETATM   17  C   UNL     1      24.345  49.059  48.880  1.00  0.00     0.050 A 
HETATM   18  C   UNL     1      25.090  48.092  49.581  1.00  0.00     0.058 A 
HETATM   19  C   UNL     1      26.496  48.162  49.574  1.00  0.00     0.019 A 
HETATM   20  C   UNL     1      27.162  49.140  48.836  1.00  0.00     0.001 A 
HETATM   21  C   UNL     1      26.430  50.045  48.077  1.00  0.00     0.002 A 
HETATM   22  C   UNL     1      25.035  50.000  48.093  1.00  0.00     0.030 A 
BRANCH  18  23
HETATM   23  C   UNL     1      24.534  46.866  50.215  1.00  0.00     0.251 C 
HETATM   24  N   UNL     1      24.997  46.555  51.465  1.00  0.00    -0.366 N 
HETATM   25  H   UNL     1      25.760  47.052  51.900  1.00  0.00     0.159 HD
HETATM   26  H   UNL     1      24.648  45.707  51.888  1.00  0.00     0.159 HD
HETATM   27  O   UNL     1      23.621  46.228  49.706  1.00  0.00    -0.268 OA
ENDBRANCH  18  23
ENDBRANCH  14  17
ENDBRANCH   9  13
BRANCH   4  28
HETATM   28  C   UNL     1      15.962  51.913  47.782  1.00  0.00     0.060 A 
HETATM   29  C   UNL     1      15.434  52.663  48.839  1.00  0.00     0.031 A 
HETATM   30  C   UNL     1      14.557  53.721  48.581  1.00  0.00     0.002 A 
HETATM   31  C   UNL     1      14.197  54.032  47.271  1.00  0.00     0.000 A 
HETATM   32  C   UNL     1      14.698  53.275  46.214  1.00  0.00     0.002 A 
HETATM   33  C   UNL     1      15.569  52.213  46.467  1.00  0.00     0.031 A 
ENDBRANCH   4  28
TORSDOF 4
ENDMDL
MODEL 8
REMARK VINA RESULT:      -9.4      6.262      9.957
REMARK  4 active torsions:
REMARK  status: ('A' for Active; 'I' for Inactive)
REMARK    1  A    between atoms: N_4  and  C_5 
REMARK    2  A    between atoms: C_15  and  C_16 
REMARK       I    between atoms: C_16  and  N_17 
REMARK    3  A    between atoms: N_17  and  C_18 
REMARK    4  A    between atoms: C_19  and  C_20 
REMARK       I    between atoms: C_20  and  N_21 
ROOT
HETATM    1  C   UNL     1      24.092  42.191  48.413  1.00  0.00     0.073 C 
HETATM    2  C   UNL     1      24.683  43.217  49.308  1.00  0.00     0.069 A 
HETATM    3  N   UNL     1      25.580  42.863  50.237  1.00  0.00    -0.170 NA
HETATM    4  N   UNL     1      25.950  44.027  50.853  1.00  0.00    -0.216 N 
HETATM    5  C   UNL     1      25.180  45.080  50.381  1.00  0.00     0.145 A 
HETATM    6  C   UNL     1      24.384  44.588  49.372  1.00  0.00     0.087 A 
HETATM    7  N   UNL     1      25.095  46.362  50.814  1.00  0.00    -0.349 N 
HETATM    8  C   UNL     1      24.161  47.193  50.218  1.00  0.00     0.111 A 
HETATM    9  C   UNL     1      23.352  46.838  49.195  1.00  0.00     0.098 A 
HETATM   10  C   UNL     1      23.438  45.431  48.672  1.00  0.00     0.205 A 
HETATM   11  O   UNL     1      22.728  45.036  47.750  1.00  0.00    -0.286 OA
HETATM   12  H   UNL     1      25.469  46.679  51.709  1.00  0.00     0.167 HD
ENDROOT
BRANCH   9  13
HETATM   13  C   UNL     1      22.368  47.846  48.691  1.00  0.00     0.261 C 
HETATM   14  N   UNL     1      21.575  48.420  49.668  1.00  0.00    -0.322 N 
HETATM   15  H   UNL     1      21.863  48.238  50.632  1.00  0.00     0.169 HD
HETATM   16  O   UNL     1      22.361  48.154  47.504  1.00  0.00    -0.267 OA
BRANCH  14  17
HETATM   17  C   UNL     1      20.747  49.555  49.484  1.00  0.00     0.050 A 
HETATM   18  C   UNL     1      19.380  49.660  49.802  1.00  0.00     0.058 A 
HETATM   19  C   UNL     1      18.663  50.806  49.407  1.00  0.00     0.019 A 
HETATM   20  C   UNL     1      19.300  51.861  48.756  1.00  0.00     0.001 A 
HETATM   21  C   UNL     1      20.667  51.795  48.515  1.00  0.00     0.002 A 
HETATM   22  C   UNL     1      21.385  50.656  48.883  1.00  0.00     0.030 A 
BRANCH  18  23
HETATM   23  C   UNL     1      18.624  48.731  50.685  1.00  0.00     0.251 C 
HETATM   24  N   UNL     1      18.154  47.581  50.111  1.00  0.00    -0.366 N 
HETATM   25  H   UNL     1      18.206  47.410  49.118  1.00  0.00     0.159 HD
HETATM   26  H   UNL     1      17.614  46.962  50.697  1.00  0.00     0.159 HD
HETATM   27  O   UNL     1      18.526  48.918  51.892  1.00  0.00    -0.268 OA
ENDBRANCH  18  23
ENDBRANCH  14  17
ENDBRANCH   9  13
BRANCH   4  28
HETATM   28  C   UNL     1      26.996  44.018  51.819  1.00  0.00     0.060 A 
HETATM   29  C   UNL     1      28.168  43.276  51.634  1.00  0.00     0.031 A 
HETATM   30  C   UNL     1      29.175  43.299  52.605  1.00  0.00     0.002 A 
HETATM   31  C   UNL     1      29.016  44.054  53.765  1.00  0.00     0.000 A 
HETATM   32  C   UNL     1      27.842  44.776  53.969  1.00  0.00     0.002 A 
HETATM   33  C   UNL     1      26.830  44.752  53.006  1.00  0.00     0.031 A 
ENDBRANCH   4  28
TORSDOF 4
ENDMDL
MODEL 9
REMARK VINA RESULT:      -9.3      4.303      7.085
REMARK  4 active torsions:
REMARK  status: ('A' for Active; 'I' for Inactive)
REMARK    1  A    between atoms: N_4  and  C_5 
REMARK    2  A    between atoms: C_15  and  C_16 
REMARK       I    between atoms: C_16  and  N_17 
REMARK    3  A    between atoms: N_17  and  C_18 
REMARK    4  A    between atoms: C_19  and  C_20 
REMARK       I    between atoms: C_20  and  N_21 
ROOT
HETATM    1  C   UNL     1      28.144  40.708  50.993  1.00  0.00     0.073 C 
HETATM    2  C   UNL     1      28.017  41.909  51.855  1.00  0.00     0.069 A 
HETATM    3  N   UNL     1      28.818  42.063  52.917  1.00  0.00    -0.170 NA
HETATM    4  N   UNL     1      28.477  43.270  53.464  1.00  0.00    -0.216 N 
HETATM    5  C   UNL     1      27.374  43.795  52.804  1.00  0.00     0.145 A 
HETATM    6  C   UNL     1      27.083  42.955  51.755  1.00  0.00     0.087 A 
HETATM    7  N   UNL     1      26.612  44.876  53.103  1.00  0.00    -0.349 N 
HETATM    8  C   UNL     1      25.497  45.125  52.321  1.00  0.00     0.111 A 
HETATM    9  C   UNL     1      25.129  44.396  51.242  1.00  0.00     0.098 A 
HETATM   10  C   UNL     1      25.968  43.205  50.867  1.00  0.00     0.205 A 
HETATM   11  O   UNL     1      25.690  42.493  49.906  1.00  0.00    -0.286 OA
HETATM   12  H   UNL     1      26.643  45.354  54.003  1.00  0.00     0.167 HD
ENDROOT
BRANCH   9  13
HETATM   13  C   UNL     1      23.871  44.776  50.530  1.00  0.00     0.261 C 
HETATM   14  N   UNL     1      23.968  45.911  49.746  1.00  0.00    -0.322 N 
HETATM   15  H   UNL     1      24.916  46.258  49.590  1.00  0.00     0.169 HD
HETATM   16  O   UNL     1      22.880  44.058  50.613  1.00  0.00    -0.267 OA
BRANCH  14  17
HETATM   17  C   UNL     1      23.002  46.335  48.799  1.00  0.00     0.050 A 
HETATM   18  C   UNL     1      22.395  47.602  48.725  1.00  0.00     0.058 A 
HETATM   19  C   UNL     1      21.334  47.811  47.823  1.00  0.00     0.019 A 
HETATM   20  C   UNL     1      20.915  46.797  46.963  1.00  0.00     0.001 A 
HETATM   21  C   UNL     1      21.567  45.571  46.976  1.00  0.00     0.002 A 
HETATM   22  C   UNL     1      22.607  45.344  47.881  1.00  0.00     0.030 A 
BRANCH  18  23
HETATM   23  C   UNL     1      22.880  48.834  49.406  1.00  0.00     0.251 C 
HETATM   24  N   UNL     1      21.926  49.688  49.887  1.00  0.00    -0.366 N 
HETATM   25  H   UNL     1      20.942  49.565  49.697  1.00  0.00     0.159 HD
HETATM   26  H   UNL     1      22.248  50.541  50.322  1.00  0.00     0.159 HD
HETATM   27  O   UNL     1      24.068  49.023  49.636  1.00  0.00    -0.268 OA
ENDBRANCH  18  23
ENDBRANCH  14  17
ENDBRANCH   9  13
BRANCH   4  28
HETATM   28  C   UNL     1      29.232  43.799  54.548  1.00  0.00     0.060 A 
HETATM   29  C   UNL     1      28.963  45.059  55.093  1.00  0.00     0.031 A 
HETATM   30  C   UNL     1      29.725  45.540  56.163  1.00  0.00     0.002 A 
HETATM   31  C   UNL     1      30.761  44.771  56.690  1.00  0.00     0.000 A 
HETATM   32  C   UNL     1      31.052  43.525  56.138  1.00  0.00     0.002 A 
HETATM   33  C   UNL     1      30.299  43.043  55.065  1.00  0.00     0.031 A 
ENDBRANCH   4  28
TORSDOF 4
ENDMDL
MODEL 10
REMARK VINA RESULT:      -9.0      5.519      8.978
REMARK  4 active torsions:
REMARK  status: ('A' for Active; 'I' for Inactive)
REMARK    1  A    between atoms: N_4  and  C_5 
REMARK    2  A    between atoms: C_15  and  C_16 
REMARK       I    between atoms: C_16  and  N_17 
REMARK    3  A    between atoms: N_17  and  C_18 
REMARK    4  A    between atoms: C_19  and  C_20 
REMARK       I    between atoms: C_20  and  N_21 
ROOT
HETATM    1  C   UNL     1      24.752  50.388  48.465  1.00  0.00     0.073 C 
HETATM    2  C   UNL     1      23.890  49.206  48.709  1.00  0.00     0.069 A 
HETATM    3  N   UNL     1      22.559  49.308  48.594  1.00  0.00    -0.170 NA
HETATM    4  N   UNL     1      22.072  48.053  48.840  1.00  0.00    -0.216 N 
HETATM    5  C   UNL     1      23.103  47.211  49.231  1.00  0.00     0.145 A 
HETATM    6  C   UNL     1      24.277  47.920  49.125  1.00  0.00     0.087 A 
HETATM    7  N   UNL     1      23.060  45.945  49.715  1.00  0.00    -0.349 N 
HETATM    8  C   UNL     1      24.247  45.361  50.124  1.00  0.00     0.111 A 
HETATM    9  C   UNL     1      25.466  45.941  50.034  1.00  0.00     0.098 A 
HETATM   10  C   UNL     1      25.553  47.335  49.478  1.00  0.00     0.205 A 
HETATM   11  O   UNL     1      26.625  47.927  49.375  1.00  0.00    -0.286 OA
HETATM   12  H   UNL     1      22.205  45.499  50.046  1.00  0.00     0.167 HD
ENDROOT
BRANCH   9  13
HETATM   13  C   UNL     1      26.646  45.187  50.560  1.00  0.00     0.261 C 
HETATM   14  N   UNL     1      26.479  44.661  51.828  1.00  0.00    -0.322 N 
HETATM   15  H   UNL     1      25.523  44.680  52.191  1.00  0.00     0.169 HD
HETATM   16  O   UNL     1      27.631  45.019  49.849  1.00  0.00    -0.267 OA
BRANCH  14  17
HETATM   17  C   UNL     1      27.343  43.720  52.441  1.00  0.00     0.050 A 
HETATM   18  C   UNL     1      27.262  42.318  52.351  1.00  0.00     0.058 A 
HETATM   19  C   UNL     1      28.102  41.522  53.153  1.00  0.00     0.019 A 
HETATM   20  C   UNL     1      29.053  42.103  53.991  1.00  0.00     0.001 A 
HETATM   21  C   UNL     1      29.192  43.485  54.020  1.00  0.00     0.002 A 
HETATM   22  C   UNL     1      28.350  44.286  53.246  1.00  0.00     0.030 A 
BRANCH  18  23
HETATM   23  C   UNL     1      26.468  41.561  51.345  1.00  0.00     0.251 C 
HETATM   24  N   UNL     1      26.626  40.202  51.332  1.00  0.00    -0.366 N 
HETATM   25  H   UNL     1      27.325  39.732  51.887  1.00  0.00     0.159 HD
HETATM   26  H   UNL     1      26.114  39.686  50.631  1.00  0.00     0.159 HD
HETATM   27  O   UNL     1      25.624  42.104  50.642  1.00  0.00    -0.268 OA
ENDBRANCH  18  23
ENDBRANCH  14  17
ENDBRANCH   9  13
BRANCH   4  28
HETATM   28  C   UNL     1      20.683  47.786  48.676  1.00  0.00     0.060 A 
HETATM   29  C   UNL     1      20.205  46.963  47.649  1.00  0.00     0.031 A 
HETATM   30  C   UNL     1      18.833  46.720  47.525  1.00  0.00     0.002 A 
HETATM   31  C   UNL     1      17.933  47.300  48.417  1.00  0.00     0.000 A 
HETATM   32  C   UNL     1      18.398  48.139  49.427  1.00  0.00     0.002 A 
HETATM   33  C   UNL     1      19.766  48.391  49.552  1.00  0.00     0.031 A 
ENDBRANCH   4  28
TORSDOF 4
ENDMDL
