MODEL 1
REMARK VINA RESULT:      -9.9      0.000      0.000
REMARK  3 active torsions:
REMARK  status: ('A' for Active; 'I' for Inactive)
REMARK    1  A    between atoms: C_3  and  C_4 
REMARK    2  A    between atoms: C_8  and  C_9 
REMARK       I    between atoms: C_9  and  N_10 
REMARK    3  A    between atoms: N_10  and  C_11 
ROOT
HETATM    1  C   UNL     1      24.999  46.897  50.783  1.00  0.00     0.064 A 
HETATM    2  N   UNL     1      24.270  45.736  50.795  1.00  0.00    -0.277 N 
HETATM    3  H   UNL     1      23.484  45.503  50.194  1.00  0.00     0.189 HD
HETATM    4  N   UNL     1      24.649  44.845  51.730  1.00  0.00    -0.169 NA
HETATM    5  C   UNL     1      25.666  45.460  52.366  1.00  0.00     0.147 A 
HETATM    6  C   UNL     1      25.926  46.729  51.794  1.00  0.00     0.071 A 
ENDROOT
BRANCH   5   7
HETATM    7  C   UNL     1      26.366  44.843  53.508  1.00  0.00     0.276 C 
HETATM    8  N   UNL     1      27.703  45.185  53.537  1.00  0.00    -0.322 N 
HETATM    9  H   UNL     1      27.970  45.823  52.789  1.00  0.00     0.169 HD
HETATM   10  O   UNL     1      25.777  44.116  54.301  1.00  0.00    -0.266 OA
BRANCH   8  11
HETATM   11  C   UNL     1      28.699  44.751  54.426  1.00  0.00     0.035 A 
HETATM   12  C   UNL     1      29.024  45.420  55.609  1.00  0.00     0.039 A 
HETATM   13  C   UNL     1      30.011  44.888  56.425  1.00  0.00    -0.024 A 
HETATM   14  C   UNL     1      30.674  43.719  56.094  1.00  0.00    -0.026 A 
HETATM   15  C   UNL     1      30.509  45.382  57.733  1.00  0.00     0.207 C 
HETATM   16  C   UNL     1      31.642  43.383  57.165  1.00  0.00     0.207 C 
HETATM   17  C   UNL     1      30.373  43.037  54.929  1.00  0.00     0.012 A 
HETATM   18  O   UNL     1      31.644  44.536  58.039  1.00  0.00    -0.382 OA
HETATM   19  C   UNL     1      29.380  43.562  54.094  1.00  0.00     0.030 A 
ENDBRANCH   8  11
ENDBRANCH   5   7
BRANCH   1  20
HETATM   20  C   UNL     1      24.783  48.009  49.849  1.00  0.00     0.014 A 
HETATM   21  C   UNL     1      23.457  48.394  49.574  1.00  0.00     0.015 A 
HETATM   22  C   UNL     1      23.170  49.436  48.688  1.00  0.00     0.001 A 
HETATM   23  C   UNL     1      24.205  50.114  48.054  1.00  0.00     0.002 A 
HETATM   24  C   UNL     1      25.526  49.753  48.308  1.00  0.00     0.025 A 
HETATM   25  C   UNL     1      25.818  48.710  49.198  1.00  0.00     0.046 A 
HETATM   26 CL   UNL     1      27.493  48.328  49.418  1.00  0.00    -0.083 Cl
ENDBRANCH   1  20
TORSDOF 3
ENDMDL
MODEL 2
REMARK VINA RESULT:      -9.4      2.764      8.763
REMARK  3 active torsions:
REMARK  status: ('A' for Active; 'I' for Inactive)
REMARK    1  A    between atoms: C_3  and  C_4 
REMARK    2  A    between atoms: C_8  and  C_9 
REMARK       I    between atoms: C_9  and  N_10 
REMARK    3  A    between atoms: N_10  and  C_11 
ROOT
HETATM    1  C   UNL     1      28.793  44.062  54.528  1.00  0.00     0.064 A 
HETATM    2  N   UNL     1      28.244  42.872  54.128  1.00  0.00    -0.277 N 
HETATM    3  H   UNL     1      28.407  41.956  54.536  1.00  0.00     0.189 HD
HETATM    4  N   UNL     1      27.424  42.962  53.063  1.00  0.00    -0.169 NA
HETATM    5  C   UNL     1      27.450  44.273  52.748  1.00  0.00     0.147 A 
HETATM    6  C   UNL     1      28.275  44.992  53.647  1.00  0.00     0.071 A 
ENDROOT
BRANCH   5   7
HETATM    7  C   UNL     1      26.707  44.819  51.598  1.00  0.00     0.276 C 
HETATM    8  N   UNL     1      26.655  46.199  51.628  1.00  0.00    -0.322 N 
HETATM    9  H   UNL     1      27.160  46.602  52.415  1.00  0.00     0.169 HD
HETATM   10  O   UNL     1      26.210  44.084  50.751  1.00  0.00    -0.266 OA
BRANCH   8  11
HETATM   11  C   UNL     1      25.992  47.070  50.750  1.00  0.00     0.035 A 
HETATM   12  C   UNL     1      26.649  48.007  49.947  1.00  0.00     0.039 A 
HETATM   13  C   UNL     1      25.894  48.802  49.098  1.00  0.00    -0.024 A 
HETATM   14  C   UNL     1      24.516  48.686  49.030  1.00  0.00    -0.026 A 
HETATM   15  C   UNL     1      26.349  49.833  48.133  1.00  0.00     0.207 C 
HETATM   16  C   UNL     1      23.994  49.635  48.018  1.00  0.00     0.207 C 
HETATM   17  C   UNL     1      23.841  47.768  49.812  1.00  0.00     0.012 A 
HETATM   18  O   UNL     1      25.131  50.450  47.650  1.00  0.00    -0.382 OA
HETATM   19  C   UNL     1      24.588  46.960  50.676  1.00  0.00     0.030 A 
ENDBRANCH   8  11
ENDBRANCH   5   7
BRANCH   1  20
HETATM   20  C   UNL     1      29.704  44.218  55.670  1.00  0.00     0.014 A 
HETATM   21  C   UNL     1      30.701  43.243  55.859  1.00  0.00     0.015 A 
HETATM   22  C   UNL     1      31.599  43.318  56.927  1.00  0.00     0.001 A 
HETATM   23  C   UNL     1      31.515  44.368  57.833  1.00  0.00     0.002 A 
HETATM   24  C   UNL     1      30.537  45.347  57.669  1.00  0.00     0.025 A 
HETATM   25  C   UNL     1      29.636  45.277  56.598  1.00  0.00     0.046 A 
HETATM   26 CL   UNL     1      28.446  46.532  56.506  1.00  0.00    -0.083 Cl
ENDBRANCH   1  20
TORSDOF 3
ENDMDL
MODEL 3
REMARK VINA RESULT:      -9.3      1.593      1.979
REMARK  3 active torsions:
REMARK  status: ('A' for Active; 'I' for Inactive)
REMARK    1  A    between atoms: C_3  and  C_4 
REMARK    2  A    between atoms: C_8  and  C_9 
REMARK       I    between atoms: C_9  and  N_10 
REMARK    3  A    between atoms: N_10  and  C_11 
ROOT
HETATM    1  C   UNL     1      24.174  47.041  50.021  1.00  0.00     0.064 A 
HETATM    2  N   UNL     1      23.636  45.794  49.843  1.00  0.00    -0.277 N 
HETATM    3  H   UNL     1      22.943  45.520  49.151  1.00  0.00     0.189 HD
HETATM    4  N   UNL     1      24.078  44.862  50.709  1.00  0.00    -0.169 NA
HETATM    5  C   UNL     1      24.938  45.539  51.497  1.00  0.00     0.147 A 
HETATM    6  C   UNL     1      25.038  46.892  51.089  1.00  0.00     0.071 A 
ENDROOT
BRANCH   5   7
HETATM    7  C   UNL     1      25.637  44.901  52.626  1.00  0.00     0.276 C 
HETATM    8  N   UNL     1      26.990  45.180  52.617  1.00  0.00    -0.322 N 
HETATM    9  H   UNL     1      27.266  45.799  51.856  1.00  0.00     0.169 HD
HETATM   10  O   UNL     1      25.036  44.208  53.441  1.00  0.00    -0.266 OA
BRANCH   8  11
HETATM   11  C   UNL     1      27.988  44.707  53.484  1.00  0.00     0.035 A 
HETATM   12  C   UNL     1      28.448  45.421  54.595  1.00  0.00     0.039 A 
HETATM   13  C   UNL     1      29.423  44.847  55.397  1.00  0.00    -0.024 A 
HETATM   14  C   UNL     1      29.944  43.594  55.121  1.00  0.00    -0.026 A 
HETATM   15  C   UNL     1      30.045  45.376  56.635  1.00  0.00     0.207 C 
HETATM   16  C   UNL     1      30.935  43.234  56.163  1.00  0.00     0.207 C 
HETATM   17  C   UNL     1      29.507  42.867  54.029  1.00  0.00     0.012 A 
HETATM   18  O   UNL     1      31.105  44.440  56.945  1.00  0.00    -0.382 OA
HETATM   19  C   UNL     1      28.525  43.433  53.208  1.00  0.00     0.030 A 
ENDBRANCH   8  11
ENDBRANCH   5   7
BRANCH   1  20
HETATM   20  C   UNL     1      23.857  48.213  49.194  1.00  0.00     0.014 A 
HETATM   21  C   UNL     1      24.896  49.115  48.898  1.00  0.00     0.015 A 
HETATM   22  C   UNL     1      24.670  50.257  48.126  1.00  0.00     0.001 A 
HETATM   23  C   UNL     1      23.397  50.525  47.636  1.00  0.00     0.002 A 
HETATM   24  C   UNL     1      22.351  49.649  47.915  1.00  0.00     0.025 A 
HETATM   25  C   UNL     1      22.574  48.501  48.687  1.00  0.00     0.046 A 
HETATM   26 CL   UNL     1      21.196  47.496  48.993  1.00  0.00    -0.083 Cl
ENDBRANCH   1  20
TORSDOF 3
ENDMDL
MODEL 4
REMARK VINA RESULT:      -8.9      2.807      9.011
REMARK  3 active torsions:
REMARK  status: ('A' for Active; 'I' for Inactive)
REMARK    1  A    between atoms: C_3  and  C_4 
REMARK    2  A    between atoms: C_8  and  C_9 
REMARK       I    between atoms: C_9  and  N_10 
REMARK    3  A    between atoms: N_10  and  C_11 
ROOT
HETATM    1  C   UNL     1      28.467  45.477  55.158  1.00  0.00     0.064 A 
HETATM    2  N   UNL     1      28.177  46.795  54.921  1.00  0.00    -0.277 N 
HETATM    3  H   UNL     1      28.641  47.605  55.322  1.00  0.00     0.189 HD
HETATM    4  N   UNL     1      27.146  47.000  54.080  1.00  0.00    -0.169 NA
HETATM    5  C   UNL     1      26.737  45.755  53.763  1.00  0.00     0.147 A 
HETATM    6  C   UNL     1      27.546  44.781  54.399  1.00  0.00     0.071 A 
ENDROOT
BRANCH   5   7
HETATM    7  C   UNL     1      25.584  45.508  52.877  1.00  0.00     0.276 C 
HETATM    8  N   UNL     1      25.679  46.224  51.700  1.00  0.00    -0.322 N 
HETATM    9  H   UNL     1      26.534  46.772  51.632  1.00  0.00     0.169 HD
HETATM   10  O   UNL     1      24.677  44.751  53.206  1.00  0.00    -0.266 OA
BRANCH   8  11
HETATM   11  C   UNL     1      24.756  46.300  50.645  1.00  0.00     0.035 A 
HETATM   12  C   UNL     1      24.283  47.505  50.117  1.00  0.00     0.039 A 
HETATM   13  C   UNL     1      23.388  47.462  49.058  1.00  0.00    -0.024 A 
HETATM   14  C   UNL     1      22.959  46.261  48.520  1.00  0.00    -0.026 A 
HETATM   15  C   UNL     1      22.774  48.585  48.307  1.00  0.00     0.207 C 
HETATM   16  C   UNL     1      22.041  46.531  47.387  1.00  0.00     0.207 C 
HETATM   17  C   UNL     1      23.410  45.054  49.022  1.00  0.00     0.012 A 
HETATM   18  O   UNL     1      21.805  47.958  47.433  1.00  0.00    -0.382 OA
HETATM   19  C   UNL     1      24.312  45.081  50.092  1.00  0.00     0.030 A 
ENDBRANCH   8  11
ENDBRANCH   5   7
BRANCH   1  20
HETATM   20  C   UNL     1      29.553  45.005  56.027  1.00  0.00     0.014 A 
HETATM   21  C   UNL     1      29.718  45.628  57.278  1.00  0.00     0.015 A 
HETATM   22  C   UNL     1      30.734  45.241  58.155  1.00  0.00     0.001 A 
HETATM   23  C   UNL     1      31.612  44.224  57.798  1.00  0.00     0.002 A 
HETATM   24  C   UNL     1      31.471  43.591  56.565  1.00  0.00     0.025 A 
HETATM   25  C   UNL     1      30.451  43.975  55.683  1.00  0.00     0.046 A 
HETATM   26 CL   UNL     1      30.386  43.138  54.167  1.00  0.00    -0.083 Cl
ENDBRANCH   1  20
TORSDOF 3
ENDMDL
MODEL 5
REMARK VINA RESULT:      -8.9      2.733      8.958
REMARK  3 active torsions:
REMARK  status: ('A' for Active; 'I' for Inactive)
REMARK    1  A    between atoms: C_3  and  C_4 
REMARK    2  A    between atoms: C_8  and  C_9 
REMARK       I    between atoms: C_9  and  N_10 
REMARK    3  A    between atoms: N_10  and  C_11 
ROOT
HETATM    1  C   UNL     1      28.342  44.280  53.647  1.00  0.00     0.064 A 
HETATM    2  N   UNL     1      28.622  43.738  52.419  1.00  0.00    -0.277 N 
HETATM    3  H   UNL     1      29.500  43.326  52.119  1.00  0.00     0.189 HD
HETATM    4  N   UNL     1      27.607  43.797  51.536  1.00  0.00    -0.169 NA
HETATM    5  C   UNL     1      26.623  44.418  52.217  1.00  0.00     0.147 A 
HETATM    6  C   UNL     1      27.036  44.717  53.539  1.00  0.00     0.071 A 
ENDROOT
BRANCH   5   7
HETATM    7  C   UNL     1      25.318  44.728  51.606  1.00  0.00     0.276 C 
HETATM    8  N   UNL     1      25.416  45.740  50.672  1.00  0.00    -0.322 N 
HETATM    9  H   UNL     1      26.369  46.076  50.544  1.00  0.00     0.169 HD
HETATM   10  O   UNL     1      24.300  44.128  51.934  1.00  0.00    -0.266 OA
BRANCH   8  11
HETATM   11  C   UNL     1      24.392  46.350  49.931  1.00  0.00     0.035 A 
HETATM   12  C   UNL     1      24.096  47.715  50.000  1.00  0.00     0.039 A 
HETATM   13  C   UNL     1      23.076  48.216  49.205  1.00  0.00    -0.024 A 
HETATM   14  C   UNL     1      22.352  47.398  48.354  1.00  0.00    -0.026 A 
HETATM   15  C   UNL     1      22.596  49.613  49.070  1.00  0.00     0.207 C 
HETATM   16  C   UNL     1      21.359  48.215  47.615  1.00  0.00     0.207 C 
HETATM   17  C   UNL     1      22.623  46.045  48.266  1.00  0.00     0.012 A 
HETATM   18  O   UNL     1      21.414  49.520  48.239  1.00  0.00    -0.382 OA
HETATM   19  C   UNL     1      23.648  45.524  49.063  1.00  0.00     0.030 A 
ENDBRANCH   8  11
ENDBRANCH   5   7
BRANCH   1  20
HETATM   20  C   UNL     1      29.283  44.321  54.774  1.00  0.00     0.014 A 
HETATM   21  C   UNL     1      30.113  43.204  54.984  1.00  0.00     0.015 A 
HETATM   22  C   UNL     1      31.026  43.164  56.041  1.00  0.00     0.001 A 
HETATM   23  C   UNL     1      31.125  44.240  56.915  1.00  0.00     0.002 A 
HETATM   24  C   UNL     1      30.315  45.358  56.730  1.00  0.00     0.025 A 
HETATM   25  C   UNL     1      29.399  45.403  55.669  1.00  0.00     0.046 A 
HETATM   26 CL   UNL     1      28.424  46.830  55.550  1.00  0.00    -0.083 Cl
ENDBRANCH   1  20
TORSDOF 3
ENDMDL
MODEL 6
REMARK VINA RESULT:      -8.8      3.878      5.985
REMARK  3 active torsions:
REMARK  status: ('A' for Active; 'I' for Inactive)
REMARK    1  A    between atoms: C_3  and  C_4 
REMARK    2  A    between atoms: C_8  and  C_9 
REMARK       I    between atoms: C_9  and  N_10 
REMARK    3  A    between atoms: N_10  and  C_11 
ROOT
HETATM    1  C   UNL     1      21.178  49.834  48.820  1.00  0.00     0.064 A 
HETATM    2  N   UNL     1      21.410  49.015  47.746  1.00  0.00    -0.277 N 
HETATM    3  H   UNL     1      20.792  48.854  46.956  1.00  0.00     0.189 HD
HETATM    4  N   UNL     1      22.581  48.351  47.790  1.00  0.00    -0.169 NA
HETATM    5  C   UNL     1      23.132  48.748  48.955  1.00  0.00     0.147 A 
HETATM    6  C   UNL     1      22.299  49.685  49.614  1.00  0.00     0.071 A 
ENDROOT
BRANCH   5   7
HETATM    7  C   UNL     1      24.428  48.227  49.428  1.00  0.00     0.276 C 
HETATM    8  N   UNL     1      24.319  46.937  49.906  1.00  0.00    -0.322 N 
HETATM    9  H   UNL     1      23.377  46.556  49.824  1.00  0.00     0.169 HD
HETATM   10  O   UNL     1      25.445  48.911  49.384  1.00  0.00    -0.266 OA
BRANCH   8  11
HETATM   11  C   UNL     1      25.310  46.134  50.493  1.00  0.00     0.035 A 
HETATM   12  C   UNL     1      25.573  46.111  51.866  1.00  0.00     0.039 A 
HETATM   13  C   UNL     1      26.561  45.262  52.340  1.00  0.00    -0.024 A 
HETATM   14  C   UNL     1      27.284  44.444  51.489  1.00  0.00    -0.026 A 
HETATM   15  C   UNL     1      27.003  45.029  53.738  1.00  0.00     0.207 C 
HETATM   16  C   UNL     1      28.239  43.632  52.282  1.00  0.00     0.207 C 
HETATM   17  C   UNL     1      27.045  44.446  50.127  1.00  0.00     0.012 A 
HETATM   18  O   UNL     1      28.166  44.175  53.620  1.00  0.00    -0.382 OA
HETATM   19  C   UNL     1      26.052  45.300  49.633  1.00  0.00     0.030 A 
ENDBRANCH   8  11
ENDBRANCH   5   7
BRANCH   1  20
HETATM   20  C   UNL     1      19.981  50.668  48.990  1.00  0.00     0.014 A 
HETATM   21  C   UNL     1      19.892  51.858  48.245  1.00  0.00     0.015 A 
HETATM   22  C   UNL     1      18.790  52.709  48.360  1.00  0.00     0.001 A 
HETATM   23  C   UNL     1      17.752  52.389  49.227  1.00  0.00     0.002 A 
HETATM   24  C   UNL     1      17.815  51.216  49.977  1.00  0.00     0.025 A 
HETATM   25  C   UNL     1      18.918  50.359  49.863  1.00  0.00     0.046 A 
HETATM   26 CL   UNL     1      18.904  48.944  50.862  1.00  0.00    -0.083 Cl
ENDBRANCH   1  20
TORSDOF 3
ENDMDL
MODEL 7
REMARK VINA RESULT:      -8.8      4.683     10.687
REMARK  3 active torsions:
REMARK  status: ('A' for Active; 'I' for Inactive)
REMARK    1  A    between atoms: C_3  and  C_4 
REMARK    2  A    between atoms: C_8  and  C_9 
REMARK       I    between atoms: C_9  and  N_10 
REMARK    3  A    between atoms: N_10  and  C_11 
ROOT
HETATM    1  C   UNL     1      25.672  47.493  50.550  1.00  0.00     0.064 A 
HETATM    2  N   UNL     1      26.574  48.215  49.813  1.00  0.00    -0.277 N 
HETATM    3  H   UNL     1      27.586  48.199  49.900  1.00  0.00     0.189 HD
HETATM    4  N   UNL     1      26.022  49.040  48.903  1.00  0.00    -0.169 NA
HETATM    5  C   UNL     1      24.696  48.855  49.063  1.00  0.00     0.147 A 
HETATM    6  C   UNL     1      24.439  47.886  50.065  1.00  0.00     0.071 A 
ENDROOT
BRANCH   5   7
HETATM    7  C   UNL     1      23.698  49.603  48.277  1.00  0.00     0.276 C 
HETATM    8  N   UNL     1      22.455  49.589  48.880  1.00  0.00    -0.322 N 
HETATM    9  H   UNL     1      22.447  49.095  49.771  1.00  0.00     0.169 HD
HETATM   10  O   UNL     1      23.994  50.145  47.218  1.00  0.00    -0.266 OA
BRANCH   8  11
HETATM   11  C   UNL     1      21.249  50.132  48.411  1.00  0.00     0.035 A 
HETATM   12  C   UNL     1      20.404  49.475  47.512  1.00  0.00     0.039 A 
HETATM   13  C   UNL     1      19.223  50.097  47.132  1.00  0.00    -0.024 A 
HETATM   14  C   UNL     1      18.870  51.342  47.623  1.00  0.00    -0.026 A 
HETATM   15  C   UNL     1      18.154  49.601  46.231  1.00  0.00     0.207 C 
HETATM   16  C   UNL     1      17.550  51.731  47.069  1.00  0.00     0.207 C 
HETATM   17  C   UNL     1      19.686  52.014  48.513  1.00  0.00     0.012 A 
HETATM   18  O   UNL     1      17.256  50.725  46.070  1.00  0.00    -0.382 OA
HETATM   19  C   UNL     1      20.882  51.401  48.904  1.00  0.00     0.030 A 
ENDBRANCH   8  11
ENDBRANCH   5   7
BRANCH   1  20
HETATM   20  C   UNL     1      26.033  46.521  51.590  1.00  0.00     0.014 A 
HETATM   21  C   UNL     1      25.903  46.913  52.935  1.00  0.00     0.015 A 
HETATM   22  C   UNL     1      26.236  46.047  53.981  1.00  0.00     0.001 A 
HETATM   23  C   UNL     1      26.710  44.771  53.703  1.00  0.00     0.002 A 
HETATM   24  C   UNL     1      26.849  44.358  52.379  1.00  0.00     0.025 A 
HETATM   25  C   UNL     1      26.514  45.222  51.328  1.00  0.00     0.046 A 
HETATM   26 CL   UNL     1      26.750  44.614  49.723  1.00  0.00    -0.083 Cl
ENDBRANCH   1  20
TORSDOF 3
ENDMDL
MODEL 8
REMARK VINA RESULT:      -8.7      5.492      8.970
REMARK  3 active torsions:
REMARK  status: ('A' for Active; 'I' for Inactive)
REMARK    1  A    between atoms: C_3  and  C_4 
REMARK    2  A    between atoms: C_8  and  C_9 
REMARK       I    between atoms: C_9  and  N_10 
REMARK    3  A    between atoms: N_10  and  C_11 
ROOT
HETATM    1  C   UNL     1      28.963  43.659  54.066  1.00  0.00     0.064 A 
HETATM    2  N   UNL     1      28.170  44.510  53.340  1.00  0.00    -0.277 N 
HETATM    3  H   UNL     1      27.984  45.489  53.538  1.00  0.00     0.189 HD
HETATM    4  N   UNL     1      27.571  43.947  52.274  1.00  0.00    -0.169 NA
HETATM    5  C   UNL     1      27.985  42.664  52.313  1.00  0.00     0.147 A 
HETATM    6  C   UNL     1      28.867  42.451  53.402  1.00  0.00     0.071 A 
ENDROOT
BRANCH   5   7
HETATM    7  C   UNL     1      27.533  41.662  51.331  1.00  0.00     0.276 C 
HETATM    8  N   UNL     1      28.595  41.019  50.727  1.00  0.00    -0.322 N 
HETATM    9  H   UNL     1      29.501  41.321  51.081  1.00  0.00     0.169 HD
HETATM   10  O   UNL     1      26.340  41.473  51.115  1.00  0.00    -0.266 OA
BRANCH   8  11
HETATM   11  C   UNL     1      28.569  40.056  49.706  1.00  0.00     0.035 A 
HETATM   12  C   UNL     1      28.190  40.336  48.390  1.00  0.00     0.039 A 
HETATM   13  C   UNL     1      28.223  39.312  47.455  1.00  0.00    -0.024 A 
HETATM   14  C   UNL     1      28.621  38.031  47.797  1.00  0.00    -0.026 A 
HETATM   15  C   UNL     1      27.907  39.357  46.006  1.00  0.00     0.207 C 
HETATM   16  C   UNL     1      28.586  37.167  46.592  1.00  0.00     0.207 C 
HETATM   17  C   UNL     1      29.000  37.726  49.091  1.00  0.00     0.012 A 
HETATM   18  O   UNL     1      27.951  37.976  45.575  1.00  0.00    -0.382 OA
HETATM   19  C   UNL     1      28.970  38.748  50.047  1.00  0.00     0.030 A 
ENDBRANCH   8  11
ENDBRANCH   5   7
BRANCH   1  20
HETATM   20  C   UNL     1      29.727  44.044  55.260  1.00  0.00     0.014 A 
HETATM   21  C   UNL     1      30.674  43.133  55.762  1.00  0.00     0.015 A 
HETATM   22  C   UNL     1      31.432  43.423  56.899  1.00  0.00     0.001 A 
HETATM   23  C   UNL     1      31.255  44.632  57.563  1.00  0.00     0.002 A 
HETATM   24  C   UNL     1      30.323  45.552  57.087  1.00  0.00     0.025 A 
HETATM   25  C   UNL     1      29.563  45.265  55.945  1.00  0.00     0.046 A 
HETATM   26 CL   UNL     1      28.416  46.469  55.458  1.00  0.00    -0.083 Cl
ENDBRANCH   1  20
TORSDOF 3
ENDMDL
MODEL 9
REMARK VINA RESULT:      -8.6      3.564      5.817
REMARK  3 active torsions:
REMARK  status: ('A' for Active; 'I' for Inactive)
REMARK    1  A    between atoms: C_3  and  C_4 
REMARK    2  A    between atoms: C_8  and  C_9 
REMARK       I    between atoms: C_9  and  N_10 
REMARK    3  A    between atoms: N_10  and  C_11 
ROOT
HETATM    1  C   UNL     1      22.185  50.022  48.245  1.00  0.00     0.064 A 
HETATM    2  N   UNL     1      23.220  50.387  47.424  1.00  0.00    -0.277 N 
HETATM    3  H   UNL     1      23.168  50.990  46.607  1.00  0.00     0.189 HD
HETATM    4  N   UNL     1      24.411  49.852  47.750  1.00  0.00    -0.169 NA
HETATM    5  C   UNL     1      24.137  49.093  48.830  1.00  0.00     0.147 A 
HETATM    6  C   UNL     1      22.768  49.187  49.180  1.00  0.00     0.071 A 
ENDROOT
BRANCH   5   7
HETATM    7  C   UNL     1      25.169  48.283  49.504  1.00  0.00     0.276 C 
HETATM    8  N   UNL     1      24.626  47.461  50.471  1.00  0.00    -0.322 N 
HETATM    9  H   UNL     1      23.612  47.531  50.534  1.00  0.00     0.169 HD
HETATM   10  O   UNL     1      26.354  48.379  49.202  1.00  0.00    -0.266 OA
BRANCH   8  11
HETATM   11  C   UNL     1      25.288  46.598  51.359  1.00  0.00     0.035 A 
HETATM   12  C   UNL     1      25.629  45.279  51.043  1.00  0.00     0.039 A 
HETATM   13  C   UNL     1      26.303  44.522  51.990  1.00  0.00    -0.024 A 
HETATM   14  C   UNL     1      26.642  45.041  53.227  1.00  0.00    -0.026 A 
HETATM   15  C   UNL     1      26.801  43.128  51.889  1.00  0.00     0.207 C 
HETATM   16  C   UNL     1      27.380  44.017  54.005  1.00  0.00     0.207 C 
HETATM   17  C   UNL     1      26.317  46.342  53.565  1.00  0.00     0.012 A 
HETATM   18  O   UNL     1      27.270  42.806  53.220  1.00  0.00    -0.382 OA
HETATM   19  C   UNL     1      25.635  47.119  52.622  1.00  0.00     0.030 A 
ENDBRANCH   8  11
ENDBRANCH   5   7
BRANCH   1  20
HETATM   20  C   UNL     1      20.799  50.486  48.099  1.00  0.00     0.014 A 
HETATM   21  C   UNL     1      20.477  51.769  48.579  1.00  0.00     0.015 A 
HETATM   22  C   UNL     1      19.179  52.277  48.484  1.00  0.00     0.001 A 
HETATM   23  C   UNL     1      18.172  51.509  47.911  1.00  0.00     0.002 A 
HETATM   24  C   UNL     1      18.464  50.235  47.428  1.00  0.00     0.025 A 
HETATM   25  C   UNL     1      19.766  49.723  47.519  1.00  0.00     0.046 A 
HETATM   26 CL   UNL     1      20.010  48.120  46.911  1.00  0.00    -0.083 Cl
ENDBRANCH   1  20
TORSDOF 3
ENDMDL
MODEL 10
REMARK VINA RESULT:      -8.6      4.503     10.305
REMARK  3 active torsions:
REMARK  status: ('A' for Active; 'I' for Inactive)
REMARK    1  A    between atoms: C_3  and  C_4 
REMARK    2  A    between atoms: C_8  and  C_9 
REMARK       I    between atoms: C_9  and  N_10 
REMARK    3  A    between atoms: N_10  and  C_11 
ROOT
HETATM    1  C   UNL     1      25.662  46.706  50.812  1.00  0.00     0.064 A 
HETATM    2  N   UNL     1      26.175  47.882  50.330  1.00  0.00    -0.277 N 
HETATM    3  H   UNL     1      27.103  48.259  50.499  1.00  0.00     0.189 HD
HETATM    4  N   UNL     1      25.321  48.600  49.576  1.00  0.00    -0.169 NA
HETATM    5  C   UNL     1      24.193  47.861  49.577  1.00  0.00     0.147 A 
HETATM    6  C   UNL     1      24.372  46.667  50.318  1.00  0.00     0.071 A 
ENDROOT
BRANCH   5   7
HETATM    7  C   UNL     1      22.965  48.300  48.888  1.00  0.00     0.276 C 
HETATM    8  N   UNL     1      22.107  48.964  49.742  1.00  0.00    -0.322 N 
HETATM    9  H   UNL     1      22.478  49.063  50.686  1.00  0.00     0.169 HD
HETATM   10  O   UNL     1      22.782  48.066  47.698  1.00  0.00    -0.266 OA
BRANCH   8  11
HETATM   11  C   UNL     1      20.826  49.472  49.476  1.00  0.00     0.035 A 
HETATM   12  C   UNL     1      20.579  50.805  49.133  1.00  0.00     0.039 A 
HETATM   13  C   UNL     1      19.275  51.193  48.868  1.00  0.00    -0.024 A 
HETATM   14  C   UNL     1      18.223  50.295  48.936  1.00  0.00    -0.026 A 
HETATM   15  C   UNL     1      18.760  52.522  48.456  1.00  0.00     0.207 C 
HETATM   16  C   UNL     1      16.963  50.987  48.571  1.00  0.00     0.207 C 
HETATM   17  C   UNL     1      18.438  48.972  49.272  1.00  0.00     0.012 A 
HETATM   18  O   UNL     1      17.320  52.387  48.486  1.00  0.00    -0.382 OA
HETATM   19  C   UNL     1      19.749  48.564  49.544  1.00  0.00     0.030 A 
ENDBRANCH   8  11
ENDBRANCH   5   7
BRANCH   1  20
HETATM   20  C   UNL     1      26.405  45.751  51.644  1.00  0.00     0.014 A 
HETATM   21  C   UNL     1      27.030  44.663  51.005  1.00  0.00     0.015 A 
HETATM   22  C   UNL     1      27.746  43.707  51.730  1.00  0.00     0.001 A 
HETATM   23  C   UNL     1      27.850  43.816  53.112  1.00  0.00     0.002 A 
HETATM   24  C   UNL     1      27.240  44.883  53.769  1.00  0.00     0.025 A 
HETATM   25  C   UNL     1      26.523  45.845  53.045  1.00  0.00     0.046 A 
HETATM   26 CL   UNL     1      25.784  47.113  53.967  1.00  0.00    -0.083 Cl
ENDBRANCH   1  20
TORSDOF 3
ENDMDL
