MODEL 1
REMARK VINA RESULT:      -9.6      0.000      0.000
REMARK  3 active torsions:
REMARK  status: ('A' for Active; 'I' for Inactive)
REMARK    1  A    between atoms: C_4  and  C_5 
REMARK    2  A    between atoms: C_9  and  N_10 
REMARK       I    between atoms: N_10  and  C_11 
REMARK    3  A    between atoms: C_11  and  C_12 
ROOT
HETATM    1  C   UNL     1      28.768  42.309  53.586  1.00  0.00     0.090 A 
HETATM    2  N   UNL     1      27.603  41.671  53.798  1.00  0.00    -0.173 NA
HETATM    3  N   UNL     1      27.473  40.843  52.751  1.00  0.00    -0.262 N 
HETATM    4  H   UNL     1      26.653  40.244  52.683  1.00  0.00     0.191 HD
HETATM    5  C   UNL     1      28.517  40.903  51.869  1.00  0.00     0.126 A 
HETATM    6  C   UNL     1      29.372  41.849  52.378  1.00  0.00     0.084 A 
ENDROOT
BRANCH   5   7
HETATM    7  N   UNL     1      28.620  40.136  50.729  1.00  0.00    -0.306 N 
HETATM    8  C   UNL     1      27.706  40.226  49.692  1.00  0.00     0.281 C 
HETATM    9  O   UNL     1      26.739  40.972  49.661  1.00  0.00    -0.265 OA
HETATM   10  H   UNL     1      29.363  39.448  50.637  1.00  0.00     0.170 HD
BRANCH   8  11
HETATM   11  C   UNL     1      28.013  39.257  48.550  1.00  0.00     0.193 A 
HETATM   12  N   UNL     1      27.826  39.722  47.337  1.00  0.00    -0.241 NA
HETATM   13  C   UNL     1      28.104  38.894  46.266  1.00  0.00     0.054 A 
HETATM   14  C   UNL     1      27.858  39.522  44.919  1.00  0.00     0.072 C 
HETATM   15  C   UNL     1      28.562  37.630  46.397  1.00  0.00     0.033 A 
HETATM   16  C   UNL     1      28.887  36.693  45.267  1.00  0.00     0.070 C 
HETATM   17  N   UNL     1      28.758  37.118  47.656  1.00  0.00    -0.324 N 
HETATM   18  C   UNL     1      28.504  37.836  48.798  1.00  0.00     0.280 A 
HETATM   19  H   UNL     1      29.090  36.171  47.789  1.00  0.00     0.169 HD
HETATM   20  O   UNL     1      28.650  37.369  49.915  1.00  0.00    -0.265 OA
ENDBRANCH   8  11
ENDBRANCH   5   7
BRANCH   1  21
HETATM   21  C   UNL     1      29.274  43.314  54.529  1.00  0.00    -0.005 A 
HETATM   22  C   UNL     1      28.675  44.582  54.598  1.00  0.00     0.020 A 
HETATM   23  C   UNL     1      29.134  45.554  55.497  1.00  0.00    -0.061 A 
HETATM   24  C   UNL     1      28.487  46.906  55.565  1.00  0.00     0.048 C 
HETATM   25  C   UNL     1      30.216  45.252  56.332  1.00  0.00     0.013 A 
HETATM   26  C   UNL     1      30.835  43.997  56.278  1.00  0.00    -0.061 A 
HETATM   27  C   UNL     1      30.358  43.035  55.375  1.00  0.00     0.020 A 
HETATM   28  C   UNL     1      32.002  43.704  57.175  1.00  0.00     0.048 C 
ENDBRANCH   1  21
TORSDOF 3
ENDMDL
MODEL 2
REMARK VINA RESULT:      -9.6      0.024      1.719
REMARK  3 active torsions:
REMARK  status: ('A' for Active; 'I' for Inactive)
REMARK    1  A    between atoms: C_4  and  C_5 
REMARK    2  A    between atoms: C_9  and  N_10 
REMARK       I    between atoms: N_10  and  C_11 
REMARK    3  A    between atoms: C_11  and  C_12 
ROOT
HETATM    1  C   UNL     1      28.749  42.319  53.579  1.00  0.00     0.090 A 
HETATM    2  N   UNL     1      27.593  41.666  53.796  1.00  0.00    -0.173 NA
HETATM    3  N   UNL     1      27.469  40.836  52.750  1.00  0.00    -0.262 N 
HETATM    4  H   UNL     1      26.657  40.227  52.686  1.00  0.00     0.191 HD
HETATM    5  C   UNL     1      28.508  40.910  51.863  1.00  0.00     0.126 A 
HETATM    6  C   UNL     1      29.353  41.867  52.369  1.00  0.00     0.084 A 
ENDROOT
BRANCH   5   7
HETATM    7  N   UNL     1      28.615  40.144  50.723  1.00  0.00    -0.306 N 
HETATM    8  C   UNL     1      27.685  40.208  49.699  1.00  0.00     0.281 C 
HETATM    9  O   UNL     1      26.698  40.927  49.680  1.00  0.00    -0.265 OA
HETATM   10  H   UNL     1      29.375  39.476  50.621  1.00  0.00     0.170 HD
BRANCH   8  11
HETATM   11  C   UNL     1      28.002  39.246  48.554  1.00  0.00     0.193 A 
HETATM   12  N   UNL     1      27.813  39.713  47.342  1.00  0.00    -0.241 NA
HETATM   13  C   UNL     1      28.100  38.892  46.269  1.00  0.00     0.054 A 
HETATM   14  C   UNL     1      27.851  39.523  44.923  1.00  0.00     0.072 C 
HETATM   15  C   UNL     1      28.568  37.631  46.395  1.00  0.00     0.033 A 
HETATM   16  C   UNL     1      28.902  36.702  45.263  1.00  0.00     0.070 C 
HETATM   17  N   UNL     1      28.766  37.117  47.653  1.00  0.00    -0.324 N 
HETATM   18  C   UNL     1      28.504  37.827  48.798  1.00  0.00     0.280 A 
HETATM   19  H   UNL     1      29.106  36.171  47.783  1.00  0.00     0.169 HD
HETATM   20  O   UNL     1      28.652  37.358  49.913  1.00  0.00    -0.265 OA
ENDBRANCH   8  11
ENDBRANCH   5   7
BRANCH   1  21
HETATM   21  C   UNL     1      29.246  43.331  54.519  1.00  0.00    -0.005 A 
HETATM   22  C   UNL     1      30.331  43.038  55.362  1.00  0.00     0.020 A 
HETATM   23  C   UNL     1      30.830  43.991  56.260  1.00  0.00    -0.061 A 
HETATM   24  C   UNL     1      31.989  43.670  57.156  1.00  0.00     0.048 C 
HETATM   25  C   UNL     1      30.225  45.252  56.321  1.00  0.00     0.013 A 
HETATM   26  C   UNL     1      29.138  45.566  55.496  1.00  0.00    -0.061 A 
HETATM   27  C   UNL     1      28.656  44.601  54.599  1.00  0.00     0.020 A 
HETATM   28  C   UNL     1      28.500  46.921  55.590  1.00  0.00     0.048 C 
ENDBRANCH   1  21
TORSDOF 3
ENDMDL
MODEL 3
REMARK VINA RESULT:      -9.1      7.569      9.668
REMARK  3 active torsions:
REMARK  status: ('A' for Active; 'I' for Inactive)
REMARK    1  A    between atoms: C_4  and  C_5 
REMARK    2  A    between atoms: C_9  and  N_10 
REMARK       I    between atoms: N_10  and  C_11 
REMARK    3  A    between atoms: C_11  and  C_12 
ROOT
HETATM    1  C   UNL     1      26.265  45.392  51.699  1.00  0.00     0.090 A 
HETATM    2  N   UNL     1      26.262  45.040  50.401  1.00  0.00    -0.173 NA
HETATM    3  N   UNL     1      25.390  45.880  49.823  1.00  0.00    -0.262 N 
HETATM    4  H   UNL     1      25.210  45.808  48.824  1.00  0.00     0.191 HD
HETATM    5  C   UNL     1      24.833  46.778  50.692  1.00  0.00     0.126 A 
HETATM    6  C   UNL     1      25.376  46.485  51.919  1.00  0.00     0.084 A 
ENDROOT
BRANCH   5   7
HETATM    7  N   UNL     1      23.927  47.751  50.332  1.00  0.00    -0.306 N 
HETATM    8  C   UNL     1      23.063  47.596  49.261  1.00  0.00     0.281 C 
HETATM    9  O   UNL     1      22.999  46.616  48.535  1.00  0.00    -0.265 OA
HETATM   10  H   UNL     1      23.894  48.636  50.833  1.00  0.00     0.170 HD
BRANCH   8  11
HETATM   11  C   UNL     1      22.172  48.819  49.040  1.00  0.00     0.193 A 
HETATM   12  N   UNL     1      20.896  48.575  48.857  1.00  0.00    -0.241 NA
HETATM   13  C   UNL     1      20.042  49.645  48.670  1.00  0.00     0.054 A 
HETATM   14  C   UNL     1      18.599  49.258  48.471  1.00  0.00     0.072 C 
HETATM   15  C   UNL     1      20.446  50.934  48.668  1.00  0.00     0.033 A 
HETATM   16  C   UNL     1      19.559  52.132  48.477  1.00  0.00     0.070 C 
HETATM   17  N   UNL     1      21.778  51.215  48.848  1.00  0.00    -0.324 N 
HETATM   18  C   UNL     1      22.727  50.239  49.029  1.00  0.00     0.280 A 
HETATM   19  H   UNL     1      22.116  52.170  48.842  1.00  0.00     0.169 HD
HETATM   20  O   UNL     1      23.913  50.490  49.160  1.00  0.00    -0.265 OA
ENDBRANCH   8  11
ENDBRANCH   5   7
BRANCH   1  21
HETATM   21  C   UNL     1      27.110  44.698  52.679  1.00  0.00    -0.005 A 
HETATM   22  C   UNL     1      27.353  43.321  52.552  1.00  0.00     0.020 A 
HETATM   23  C   UNL     1      28.164  42.639  53.469  1.00  0.00    -0.061 A 
HETATM   24  C   UNL     1      28.420  41.168  53.325  1.00  0.00     0.048 C 
HETATM   25  C   UNL     1      28.732  43.348  54.533  1.00  0.00     0.013 A 
HETATM   26  C   UNL     1      28.500  44.720  54.687  1.00  0.00    -0.061 A 
HETATM   27  C   UNL     1      27.689  45.387  53.756  1.00  0.00     0.020 A 
HETATM   28  C   UNL     1      29.110  45.454  55.845  1.00  0.00     0.048 C 
ENDBRANCH   1  21
TORSDOF 3
ENDMDL
MODEL 4
REMARK VINA RESULT:      -9.1      7.592      9.634
REMARK  3 active torsions:
REMARK  status: ('A' for Active; 'I' for Inactive)
REMARK    1  A    between atoms: C_4  and  C_5 
REMARK    2  A    between atoms: C_9  and  N_10 
REMARK       I    between atoms: N_10  and  C_11 
REMARK    3  A    between atoms: C_11  and  C_12 
ROOT
HETATM    1  C   UNL     1      26.285  45.400  51.644  1.00  0.00     0.090 A 
HETATM    2  N   UNL     1      26.392  45.161  50.324  1.00  0.00    -0.173 NA
HETATM    3  N   UNL     1      25.521  46.006  49.754  1.00  0.00    -0.262 N 
HETATM    4  H   UNL     1      25.417  46.012  48.741  1.00  0.00     0.191 HD
HETATM    5  C   UNL     1      24.858  46.800  50.649  1.00  0.00     0.126 A 
HETATM    6  C   UNL     1      25.327  46.428  51.885  1.00  0.00     0.084 A 
ENDROOT
BRANCH   5   7
HETATM    7  N   UNL     1      23.930  47.757  50.303  1.00  0.00    -0.306 N 
HETATM    8  C   UNL     1      23.046  47.584  49.251  1.00  0.00     0.281 C 
HETATM    9  O   UNL     1      22.981  46.598  48.533  1.00  0.00    -0.265 OA
HETATM   10  H   UNL     1      23.895  48.644  50.799  1.00  0.00     0.170 HD
BRANCH   8  11
HETATM   11  C   UNL     1      22.133  48.792  49.042  1.00  0.00     0.193 A 
HETATM   12  N   UNL     1      20.868  48.525  48.817  1.00  0.00    -0.241 NA
HETATM   13  C   UNL     1      19.994  49.580  48.638  1.00  0.00     0.054 A 
HETATM   14  C   UNL     1      18.567  49.167  48.388  1.00  0.00     0.072 C 
HETATM   15  C   UNL     1      20.368  50.878  48.685  1.00  0.00     0.033 A 
HETATM   16  C   UNL     1      19.458  52.060  48.506  1.00  0.00     0.070 C 
HETATM   17  N   UNL     1      21.687  51.183  48.911  1.00  0.00    -0.324 N 
HETATM   18  C   UNL     1      22.654  50.224  49.089  1.00  0.00     0.280 A 
HETATM   19  H   UNL     1      22.003  52.145  48.942  1.00  0.00     0.169 HD
HETATM   20  O   UNL     1      23.830  50.498  49.260  1.00  0.00    -0.265 OA
ENDBRANCH   8  11
ENDBRANCH   5   7
BRANCH   1  21
HETATM   21  C   UNL     1      27.093  44.664  52.624  1.00  0.00    -0.005 A 
HETATM   22  C   UNL     1      27.686  45.342  53.701  1.00  0.00     0.020 A 
HETATM   23  C   UNL     1      28.453  44.660  54.655  1.00  0.00    -0.061 A 
HETATM   24  C   UNL     1      29.082  45.392  55.803  1.00  0.00     0.048 C 
HETATM   25  C   UNL     1      28.635  43.279  54.521  1.00  0.00     0.013 A 
HETATM   26  C   UNL     1      28.060  42.581  53.452  1.00  0.00    -0.061 A 
HETATM   27  C   UNL     1      27.291  43.280  52.510  1.00  0.00     0.020 A 
HETATM   28  C   UNL     1      28.281  41.102  53.324  1.00  0.00     0.048 C 
ENDBRANCH   1  21
TORSDOF 3
ENDMDL
MODEL 5
REMARK VINA RESULT:      -8.9      7.521      9.350
REMARK  3 active torsions:
REMARK  status: ('A' for Active; 'I' for Inactive)
REMARK    1  A    between atoms: C_4  and  C_5 
REMARK    2  A    between atoms: C_9  and  N_10 
REMARK       I    between atoms: N_10  and  C_11 
REMARK    3  A    between atoms: C_11  and  C_12 
ROOT
HETATM    1  C   UNL     1      26.323  45.276  51.398  1.00  0.00     0.090 A 
HETATM    2  N   UNL     1      26.511  44.807  50.151  1.00  0.00    -0.173 NA
HETATM    3  N   UNL     1      25.496  45.318  49.440  1.00  0.00    -0.262 N 
HETATM    4  H   UNL     1      25.418  45.100  48.448  1.00  0.00     0.191 HD
HETATM    5  C   UNL     1      24.659  46.117  50.170  1.00  0.00     0.126 A 
HETATM    6  C   UNL     1      25.165  46.106  51.446  1.00  0.00     0.084 A 
ENDROOT
BRANCH   5   7
HETATM    7  N   UNL     1      23.559  46.768  49.656  1.00  0.00    -0.306 N 
HETATM    8  C   UNL     1      23.575  48.118  49.350  1.00  0.00     0.281 C 
HETATM    9  O   UNL     1      24.531  48.866  49.487  1.00  0.00    -0.265 OA
HETATM   10  H   UNL     1      22.682  46.270  49.521  1.00  0.00     0.170 HD
BRANCH   8  11
HETATM   11  C   UNL     1      22.231  48.619  48.821  1.00  0.00     0.193 A 
HETATM   12  N   UNL     1      21.706  49.639  49.461  1.00  0.00    -0.241 NA
HETATM   13  C   UNL     1      20.500  50.144  49.015  1.00  0.00     0.054 A 
HETATM   14  C   UNL     1      19.985  51.312  49.815  1.00  0.00     0.072 C 
HETATM   15  C   UNL     1      19.827  49.648  47.952  1.00  0.00     0.033 A 
HETATM   16  C   UNL     1      18.519  50.165  47.424  1.00  0.00     0.070 C 
HETATM   17  N   UNL     1      20.352  48.577  47.273  1.00  0.00    -0.324 N 
HETATM   18  C   UNL     1      21.535  47.977  47.627  1.00  0.00     0.280 A 
HETATM   19  H   UNL     1      19.869  48.175  46.478  1.00  0.00     0.169 HD
HETATM   20  O   UNL     1      21.983  47.007  47.040  1.00  0.00    -0.265 OA
ENDBRANCH   8  11
ENDBRANCH   5   7
BRANCH   1  21
HETATM   21  C   UNL     1      27.243  44.938  52.491  1.00  0.00    -0.005 A 
HETATM   22  C   UNL     1      28.155  43.879  52.345  1.00  0.00     0.020 A 
HETATM   23  C   UNL     1      29.050  43.545  53.369  1.00  0.00    -0.061 A 
HETATM   24  C   UNL     1      30.020  42.413  53.204  1.00  0.00     0.048 C 
HETATM   25  C   UNL     1      29.023  44.276  54.562  1.00  0.00     0.013 A 
HETATM   26  C   UNL     1      28.120  45.332  54.736  1.00  0.00    -0.061 A 
HETATM   27  C   UNL     1      27.235  45.655  53.696  1.00  0.00     0.020 A 
HETATM   28  C   UNL     1      28.103  46.092  56.030  1.00  0.00     0.048 C 
ENDBRANCH   1  21
TORSDOF 3
ENDMDL
MODEL 6
REMARK VINA RESULT:      -8.8     12.176     14.369
REMARK  3 active torsions:
REMARK  status: ('A' for Active; 'I' for Inactive)
REMARK    1  A    between atoms: C_4  and  C_5 
REMARK    2  A    between atoms: C_9  and  N_10 
REMARK       I    between atoms: N_10  and  C_11 
REMARK    3  A    between atoms: C_11  and  C_12 
ROOT
HETATM    1  C   UNL     1      18.069  51.022  49.044  1.00  0.00     0.090 A 
HETATM    2  N   UNL     1      18.008  49.794  49.590  1.00  0.00    -0.173 NA
HETATM    3  N   UNL     1      19.283  49.380  49.641  1.00  0.00    -0.262 N 
HETATM    4  H   UNL     1      19.497  48.460  50.021  1.00  0.00     0.191 HD
HETATM    5  C   UNL     1      20.178  50.297  49.163  1.00  0.00     0.126 A 
HETATM    6  C   UNL     1      19.423  51.371  48.763  1.00  0.00     0.084 A 
ENDROOT
BRANCH   5   7
HETATM    7  N   UNL     1      21.542  50.109  49.130  1.00  0.00    -0.306 N 
HETATM    8  C   UNL     1      22.113  48.855  48.992  1.00  0.00     0.281 C 
HETATM    9  O   UNL     1      21.501  47.804  48.881  1.00  0.00    -0.265 OA
HETATM   10  H   UNL     1      22.174  50.898  49.244  1.00  0.00     0.170 HD
BRANCH   8  11
HETATM   11  C   UNL     1      23.641  48.897  49.011  1.00  0.00     0.193 A 
HETATM   12  N   UNL     1      24.227  48.126  49.897  1.00  0.00    -0.241 NA
HETATM   13  C   UNL     1      25.607  48.112  49.947  1.00  0.00     0.054 A 
HETATM   14  C   UNL     1      26.179  47.195  50.996  1.00  0.00     0.072 C 
HETATM   15  C   UNL     1      26.393  48.847  49.129  1.00  0.00     0.033 A 
HETATM   16  C   UNL     1      27.896  48.861  49.137  1.00  0.00     0.070 C 
HETATM   17  N   UNL     1      25.805  49.668  48.200  1.00  0.00    -0.324 N 
HETATM   18  C   UNL     1      24.443  49.781  48.062  1.00  0.00     0.280 A 
HETATM   19  H   UNL     1      26.364  50.239  47.578  1.00  0.00     0.169 HD
HETATM   20  O   UNL     1      23.923  50.533  47.255  1.00  0.00    -0.265 OA
ENDBRANCH   8  11
ENDBRANCH   5   7
BRANCH   1  21
HETATM   21  C   UNL     1      16.860  51.822  48.819  1.00  0.00    -0.005 A 
HETATM   22  C   UNL     1      16.125  52.313  49.910  1.00  0.00     0.020 A 
HETATM   23  C   UNL     1      14.973  53.088  49.721  1.00  0.00    -0.061 A 
HETATM   24  C   UNL     1      14.195  53.609  50.892  1.00  0.00     0.048 C 
HETATM   25  C   UNL     1      14.547  53.366  48.417  1.00  0.00     0.013 A 
HETATM   26  C   UNL     1      15.257  52.883  47.312  1.00  0.00    -0.061 A 
HETATM   27  C   UNL     1      16.412  52.113  47.522  1.00  0.00     0.020 A 
HETATM   28  C   UNL     1      14.772  53.184  45.924  1.00  0.00     0.048 C 
ENDBRANCH   1  21
TORSDOF 3
ENDMDL
MODEL 7
REMARK VINA RESULT:      -8.6      7.909     10.337
REMARK  3 active torsions:
REMARK  status: ('A' for Active; 'I' for Inactive)
REMARK    1  A    between atoms: C_4  and  C_5 
REMARK    2  A    between atoms: C_9  and  N_10 
REMARK       I    between atoms: N_10  and  C_11 
REMARK    3  A    between atoms: C_11  and  C_12 
ROOT
HETATM    1  C   UNL     1      26.118  45.262  50.475  1.00  0.00     0.090 A 
HETATM    2  N   UNL     1      26.751  46.148  49.685  1.00  0.00    -0.173 NA
HETATM    3  N   UNL     1      25.862  47.134  49.497  1.00  0.00    -0.262 N 
HETATM    4  H   UNL     1      26.113  47.933  48.920  1.00  0.00     0.191 HD
HETATM    5  C   UNL     1      24.675  46.935  50.147  1.00  0.00     0.126 A 
HETATM    6  C   UNL     1      24.806  45.727  50.787  1.00  0.00     0.084 A 
ENDROOT
BRANCH   5   7
HETATM    7  N   UNL     1      23.616  47.816  50.122  1.00  0.00    -0.306 N 
HETATM    8  C   UNL     1      22.811  47.972  49.006  1.00  0.00     0.281 C 
HETATM    9  O   UNL     1      22.934  47.369  47.951  1.00  0.00    -0.265 OA
HETATM   10  H   UNL     1      23.419  48.408  50.925  1.00  0.00     0.170 HD
BRANCH   8  11
HETATM   11  C   UNL     1      21.721  49.025  49.208  1.00  0.00     0.193 A 
HETATM   12  N   UNL     1      20.486  48.613  49.042  1.00  0.00    -0.241 NA
HETATM   13  C   UNL     1      19.460  49.519  49.229  1.00  0.00     0.054 A 
HETATM   14  C   UNL     1      18.082  48.947  49.017  1.00  0.00     0.072 C 
HETATM   15  C   UNL     1      19.655  50.810  49.578  1.00  0.00     0.033 A 
HETATM   16  C   UNL     1      18.576  51.831  49.800  1.00  0.00     0.070 C 
HETATM   17  N   UNL     1      20.938  51.267  49.749  1.00  0.00    -0.324 N 
HETATM   18  C   UNL     1      22.042  50.469  49.577  1.00  0.00     0.280 A 
HETATM   19  H   UNL     1      21.120  52.232  50.000  1.00  0.00     0.169 HD
HETATM   20  O   UNL     1      23.182  50.885  49.700  1.00  0.00    -0.265 OA
ENDBRANCH   8  11
ENDBRANCH   5   7
BRANCH   1  21
HETATM   21  C   UNL     1      26.771  44.024  50.916  1.00  0.00    -0.005 A 
HETATM   22  C   UNL     1      26.205  42.777  50.603  1.00  0.00     0.020 A 
HETATM   23  C   UNL     1      26.815  41.582  51.004  1.00  0.00    -0.061 A 
HETATM   24  C   UNL     1      26.204  40.254  50.664  1.00  0.00     0.048 C 
HETATM   25  C   UNL     1      28.006  41.638  51.737  1.00  0.00     0.013 A 
HETATM   26  C   UNL     1      28.587  42.868  52.068  1.00  0.00    -0.061 A 
HETATM   27  C   UNL     1      27.963  44.055  51.654  1.00  0.00     0.020 A 
HETATM   28  C   UNL     1      29.857  42.901  52.867  1.00  0.00     0.048 C 
ENDBRANCH   1  21
TORSDOF 3
ENDMDL
MODEL 8
REMARK VINA RESULT:      -8.4      8.539     10.782
REMARK  3 active torsions:
REMARK  status: ('A' for Active; 'I' for Inactive)
REMARK    1  A    between atoms: C_4  and  C_5 
REMARK    2  A    between atoms: C_9  and  N_10 
REMARK       I    between atoms: N_10  and  C_11 
REMARK    3  A    between atoms: C_11  and  C_12 
ROOT
HETATM    1  C   UNL     1      22.472  48.858  48.608  1.00  0.00     0.090 A 
HETATM    2  N   UNL     1      23.602  49.589  48.606  1.00  0.00    -0.173 NA
HETATM    3  N   UNL     1      24.529  48.783  49.147  1.00  0.00    -0.262 N 
HETATM    4  H   UNL     1      25.483  49.119  49.256  1.00  0.00     0.191 HD
HETATM    5  C   UNL     1      24.052  47.548  49.489  1.00  0.00     0.126 A 
HETATM    6  C   UNL     1      22.719  47.566  49.157  1.00  0.00     0.084 A 
ENDROOT
BRANCH   5   7
HETATM    7  N   UNL     1      24.815  46.544  50.042  1.00  0.00    -0.306 N 
HETATM    8  C   UNL     1      25.384  46.655  51.300  1.00  0.00     0.281 C 
HETATM    9  O   UNL     1      25.277  47.616  52.045  1.00  0.00    -0.265 OA
HETATM   10  H   UNL     1      25.012  45.696  49.515  1.00  0.00     0.170 HD
BRANCH   8  11
HETATM   11  C   UNL     1      26.208  45.426  51.684  1.00  0.00     0.193 A 
HETATM   12  N   UNL     1      26.086  45.017  52.926  1.00  0.00    -0.241 NA
HETATM   13  C   UNL     1      26.796  43.901  53.323  1.00  0.00     0.054 A 
HETATM   14  C   UNL     1      26.585  43.514  54.764  1.00  0.00     0.072 C 
HETATM   15  C   UNL     1      27.610  43.200  52.503  1.00  0.00     0.033 A 
HETATM   16  C   UNL     1      28.397  41.978  52.883  1.00  0.00     0.070 C 
HETATM   17  N   UNL     1      27.762  43.613  51.203  1.00  0.00    -0.324 N 
HETATM   18  C   UNL     1      27.122  44.716  50.692  1.00  0.00     0.280 A 
HETATM   19  H   UNL     1      28.372  43.117  50.565  1.00  0.00     0.169 HD
HETATM   20  O   UNL     1      27.282  45.097  49.545  1.00  0.00    -0.265 OA
ENDBRANCH   8  11
ENDBRANCH   5   7
BRANCH   1  21
HETATM   21  C   UNL     1      21.211  49.397  48.084  1.00  0.00    -0.005 A 
HETATM   22  C   UNL     1      20.773  50.673  48.471  1.00  0.00     0.020 A 
HETATM   23  C   UNL     1      19.578  51.212  47.977  1.00  0.00    -0.061 A 
HETATM   24  C   UNL     1      19.119  52.577  48.395  1.00  0.00     0.048 C 
HETATM   25  C   UNL     1      18.807  50.455  47.088  1.00  0.00     0.013 A 
HETATM   26  C   UNL     1      19.218  49.177  46.691  1.00  0.00    -0.061 A 
HETATM   27  C   UNL     1      20.420  48.656  47.193  1.00  0.00     0.020 A 
HETATM   28  C   UNL     1      18.365  48.380  45.747  1.00  0.00     0.048 C 
ENDBRANCH   1  21
TORSDOF 3
ENDMDL
MODEL 9
REMARK VINA RESULT:      -8.1      6.467      9.500
REMARK  3 active torsions:
REMARK  status: ('A' for Active; 'I' for Inactive)
REMARK    1  A    between atoms: C_4  and  C_5 
REMARK    2  A    between atoms: C_9  and  N_10 
REMARK       I    between atoms: N_10  and  C_11 
REMARK    3  A    between atoms: C_11  and  C_12 
ROOT
HETATM    1  C   UNL     1      24.012  46.476  49.508  1.00  0.00     0.090 A 
HETATM    2  N   UNL     1      24.004  45.205  49.066  1.00  0.00    -0.173 NA
HETATM    3  N   UNL     1      24.944  44.586  49.795  1.00  0.00    -0.262 N 
HETATM    4  H   UNL     1      25.130  43.597  49.639  1.00  0.00     0.191 HD
HETATM    5  C   UNL     1      25.557  45.399  50.708  1.00  0.00     0.126 A 
HETATM    6  C   UNL     1      24.979  46.633  50.544  1.00  0.00     0.084 A 
ENDROOT
BRANCH   5   7
HETATM    7  N   UNL     1      26.539  44.987  51.582  1.00  0.00    -0.306 N 
HETATM    8  C   UNL     1      26.248  44.490  52.841  1.00  0.00     0.281 C 
HETATM    9  O   UNL     1      25.128  44.356  53.311  1.00  0.00    -0.265 OA
HETATM   10  H   UNL     1      27.521  45.074  51.331  1.00  0.00     0.170 HD
BRANCH   8  11
HETATM   11  C   UNL     1      27.502  44.127  53.637  1.00  0.00     0.193 A 
HETATM   12  N   UNL     1      28.016  45.087  54.370  1.00  0.00    -0.241 NA
HETATM   13  C   UNL     1      29.140  44.809  55.123  1.00  0.00     0.054 A 
HETATM   14  C   UNL     1      29.650  45.976  55.929  1.00  0.00     0.072 C 
HETATM   15  C   UNL     1      29.743  43.599  55.150  1.00  0.00     0.033 A 
HETATM   16  C   UNL     1      30.960  43.244  55.957  1.00  0.00     0.070 C 
HETATM   17  N   UNL     1      29.229  42.582  54.386  1.00  0.00    -0.324 N 
HETATM   18  C   UNL     1      28.125  42.736  53.584  1.00  0.00     0.280 A 
HETATM   19  H   UNL     1      29.662  41.666  54.375  1.00  0.00     0.169 HD
HETATM   20  O   UNL     1      27.689  41.839  52.883  1.00  0.00    -0.265 OA
ENDBRANCH   8  11
ENDBRANCH   5   7
BRANCH   1  21
HETATM   21  C   UNL     1      23.105  47.487  48.951  1.00  0.00    -0.005 A 
HETATM   22  C   UNL     1      21.872  47.103  48.401  1.00  0.00     0.020 A 
HETATM   23  C   UNL     1      20.985  48.050  47.873  1.00  0.00    -0.061 A 
HETATM   24  C   UNL     1      19.669  47.631  47.288  1.00  0.00     0.048 C 
HETATM   25  C   UNL     1      21.347  49.402  47.888  1.00  0.00     0.013 A 
HETATM   26  C   UNL     1      22.574  49.811  48.424  1.00  0.00    -0.061 A 
HETATM   27  C   UNL     1      23.446  48.848  48.953  1.00  0.00     0.020 A 
HETATM   28  C   UNL     1      22.943  51.266  48.416  1.00  0.00     0.048 C 
ENDBRANCH   1  21
TORSDOF 3
ENDMDL
MODEL 10
REMARK VINA RESULT:      -8.1      7.865     10.126
REMARK  3 active torsions:
REMARK  status: ('A' for Active; 'I' for Inactive)
REMARK    1  A    between atoms: C_4  and  C_5 
REMARK    2  A    between atoms: C_9  and  N_10 
REMARK       I    between atoms: N_10  and  C_11 
REMARK    3  A    between atoms: C_11  and  C_12 
ROOT
HETATM    1  C   UNL     1      22.907  48.269  49.048  1.00  0.00     0.090 A 
HETATM    2  N   UNL     1      23.985  49.007  49.370  1.00  0.00    -0.173 NA
HETATM    3  N   UNL     1      24.846  48.133  49.913  1.00  0.00    -0.262 N 
HETATM    4  H   UNL     1      25.751  48.459  50.244  1.00  0.00     0.191 HD
HETATM    5  C   UNL     1      24.379  46.848  49.944  1.00  0.00     0.126 A 
HETATM    6  C   UNL     1      23.121  46.903  49.395  1.00  0.00     0.084 A 
ENDROOT
BRANCH   5   7
HETATM    7  N   UNL     1      25.087  45.773  50.435  1.00  0.00    -0.306 N 
HETATM    8  C   UNL     1      25.549  45.726  51.740  1.00  0.00     0.281 C 
HETATM    9  O   UNL     1      25.387  46.596  52.582  1.00  0.00    -0.265 OA
HETATM   10  H   UNL     1      25.321  44.990  49.830  1.00  0.00     0.170 HD
BRANCH   8  11
HETATM   11  C   UNL     1      26.330  44.448  52.043  1.00  0.00     0.193 A 
HETATM   12  N   UNL     1      27.376  44.585  52.824  1.00  0.00    -0.241 NA
HETATM   13  C   UNL     1      28.109  43.459  53.145  1.00  0.00     0.054 A 
HETATM   14  C   UNL     1      29.286  43.723  54.048  1.00  0.00     0.072 C 
HETATM   15  C   UNL     1      27.809  42.218  52.701  1.00  0.00     0.033 A 
HETATM   16  C   UNL     1      28.567  40.963  53.027  1.00  0.00     0.070 C 
HETATM   17  N   UNL     1      26.725  42.050  51.876  1.00  0.00    -0.324 N 
HETATM   18  C   UNL     1      25.927  43.092  51.473  1.00  0.00     0.280 A 
HETATM   19  H   UNL     1      26.478  41.136  51.517  1.00  0.00     0.169 HD
HETATM   20  O   UNL     1      24.983  42.945  50.715  1.00  0.00    -0.265 OA
ENDBRANCH   8  11
ENDBRANCH   5   7
BRANCH   1  21
HETATM   21  C   UNL     1      21.727  48.872  48.417  1.00  0.00    -0.005 A 
HETATM   22  C   UNL     1      20.972  48.139  47.487  1.00  0.00     0.020 A 
HETATM   23  C   UNL     1      19.835  48.689  46.880  1.00  0.00    -0.061 A 
HETATM   24  C   UNL     1      19.034  47.898  45.889  1.00  0.00     0.048 C 
HETATM   25  C   UNL     1      19.457  49.997  47.202  1.00  0.00     0.013 A 
HETATM   26  C   UNL     1      20.197  50.752  48.121  1.00  0.00    -0.061 A 
HETATM   27  C   UNL     1      21.329  50.182  48.723  1.00  0.00     0.020 A 
HETATM   28  C   UNL     1      19.778  52.157  48.439  1.00  0.00     0.048 C 
ENDBRANCH   1  21
TORSDOF 3
ENDMDL
