MODEL 1
REMARK VINA RESULT:      -9.0      0.000      0.000
REMARK  3 active torsions:
REMARK  status: ('A' for Active; 'I' for Inactive)
REMARK    1  A    between atoms: C_9  and  C_10 
REMARK       I    between atoms: C_10  and  N_11 
REMARK    2  A    between atoms: N_11  and  C_12 
REMARK    3  A    between atoms: C_12  and  C_13 
ROOT
HETATM    1  C   UNL     1      26.329  46.759  53.034  1.00  0.00     0.258 C 
HETATM    2  N   UNL     1      26.720  46.071  51.910  1.00  0.00    -0.342 N 
HETATM    3  O   UNL     1      25.332  47.470  53.080  1.00  0.00    -0.267 OA
HETATM    4  H   UNL     1      27.478  45.403  52.051  1.00  0.00     0.164 HD
ENDROOT
BRANCH   1   5
HETATM    5  C   UNL     1      27.197  46.586  54.188  1.00  0.00     0.105 A 
HETATM    6  C   UNL     1      28.162  45.613  54.384  1.00  0.00     0.169 A 
HETATM    7  N   UNL     1      28.574  44.574  53.590  1.00  0.00    -0.233 NA
HETATM    8  N   UNL     1      28.703  45.842  55.654  1.00  0.00    -0.219 N 
HETATM    9  C   UNL     1      29.491  43.794  54.086  1.00  0.00     0.035 A 
HETATM   10  C   UNL     1      29.964  42.621  53.264  1.00  0.00     0.070 C 
HETATM   11  C   UNL     1      30.124  43.960  55.432  1.00  0.00     0.053 A 
HETATM   12  C   UNL     1      29.697  44.999  56.172  1.00  0.00     0.036 A 
HETATM   13  C   UNL     1      30.232  45.297  57.539  1.00  0.00     0.070 C 
HETATM   14  N   UNL     1      28.142  46.922  56.247  1.00  0.00    -0.170 NA
HETATM   15  C   UNL     1      27.229  47.363  55.376  1.00  0.00     0.071 A 
HETATM   16  C   UNL     1      26.399  48.548  55.711  1.00  0.00     0.073 C 
ENDBRANCH   1   5
BRANCH   2  17
HETATM   17  C   UNL     1      25.908  45.913  50.695  1.00  0.00     0.079 C 
HETATM   18  C   UNL     1      26.567  44.857  49.786  1.00  0.00     0.046 C 
HETATM   19  C   UNL     1      24.457  45.478  50.987  1.00  0.00     0.046 C 
BRANCH  17  20
HETATM   20  C   UNL     1      25.879  47.265  49.982  1.00  0.00     0.128 A 
HETATM   21  S   UNL     1      27.311  47.976  49.323  1.00  0.00    -0.031 SA
HETATM   22  C   UNL     1      26.357  49.330  48.878  1.00  0.00     0.187 A 
HETATM   23  N   UNL     1      26.901  50.413  48.290  1.00  0.00    -0.377 N 
HETATM   24  N   UNL     1      25.088  49.208  49.185  1.00  0.00    -0.124 NA
HETATM   25  H   UNL     1      27.892  50.574  48.425  1.00  0.00     0.158 HD
HETATM   26  H   UNL     1      26.338  51.256  48.325  1.00  0.00     0.158 HD
HETATM   27  N   UNL     1      24.807  48.017  49.821  1.00  0.00    -0.142 NA
ENDBRANCH  17  20
ENDBRANCH   2  17
TORSDOF 3
ENDMDL
MODEL 2
REMARK VINA RESULT:      -8.7      1.880      3.344
REMARK  3 active torsions:
REMARK  status: ('A' for Active; 'I' for Inactive)
REMARK    1  A    between atoms: C_9  and  C_10 
REMARK       I    between atoms: C_10  and  N_11 
REMARK    2  A    between atoms: N_11  and  C_12 
REMARK    3  A    between atoms: C_12  and  C_13 
ROOT
HETATM    1  C   UNL     1      26.992  43.554  52.164  1.00  0.00     0.258 C 
HETATM    2  N   UNL     1      26.845  44.788  51.576  1.00  0.00    -0.342 N 
HETATM    3  O   UNL     1      26.316  42.577  51.866  1.00  0.00    -0.267 OA
HETATM    4  H   UNL     1      27.568  45.469  51.809  1.00  0.00     0.164 HD
ENDROOT
BRANCH   1   5
HETATM    5  C   UNL     1      28.023  43.485  53.188  1.00  0.00     0.105 A 
HETATM    6  C   UNL     1      28.310  44.422  54.165  1.00  0.00     0.169 A 
HETATM    7  N   UNL     1      27.739  45.636  54.452  1.00  0.00    -0.233 NA
HETATM    8  N   UNL     1      29.402  43.923  54.884  1.00  0.00    -0.219 N 
HETATM    9  C   UNL     1      28.276  46.313  55.426  1.00  0.00     0.035 A 
HETATM   10  C   UNL     1      27.701  47.665  55.769  1.00  0.00     0.070 C 
HETATM   11  C   UNL     1      29.443  45.860  56.247  1.00  0.00     0.053 A 
HETATM   12  C   UNL     1      29.964  44.660  55.937  1.00  0.00     0.036 A 
HETATM   13  C   UNL     1      31.133  44.070  56.665  1.00  0.00     0.070 C 
HETATM   14  N   UNL     1      29.791  42.711  54.421  1.00  0.00    -0.170 NA
HETATM   15  C   UNL     1      28.974  42.452  53.395  1.00  0.00     0.071 A 
HETATM   16  C   UNL     1      29.127  41.189  52.629  1.00  0.00     0.073 C 
ENDBRANCH   1   5
BRANCH   2  17
HETATM   17  C   UNL     1      26.030  45.061  50.384  1.00  0.00     0.079 C 
HETATM   18  C   UNL     1      26.238  43.924  49.364  1.00  0.00     0.046 C 
HETATM   19  C   UNL     1      24.523  45.178  50.694  1.00  0.00     0.046 C 
BRANCH  17  20
HETATM   20  C   UNL     1      26.512  46.384  49.790  1.00  0.00     0.128 A 
HETATM   21  S   UNL     1      25.528  47.807  49.824  1.00  0.00    -0.031 SA
HETATM   22  C   UNL     1      26.770  48.609  48.955  1.00  0.00     0.187 A 
HETATM   23  N   UNL     1      26.638  49.889  48.556  1.00  0.00    -0.377 N 
HETATM   24  N   UNL     1      27.816  47.857  48.709  1.00  0.00    -0.124 NA
HETATM   25  H   UNL     1      25.699  50.258  48.461  1.00  0.00     0.158 HD
HETATM   26  H   UNL     1      27.272  50.184  47.822  1.00  0.00     0.158 HD
HETATM   27  N   UNL     1      27.672  46.572  49.191  1.00  0.00    -0.142 NA
ENDBRANCH  17  20
ENDBRANCH   2  17
TORSDOF 3
ENDMDL
MODEL 3
REMARK VINA RESULT:      -8.7      1.803      2.972
REMARK  3 active torsions:
REMARK  status: ('A' for Active; 'I' for Inactive)
REMARK    1  A    between atoms: C_9  and  C_10 
REMARK       I    between atoms: C_10  and  N_11 
REMARK    2  A    between atoms: N_11  and  C_12 
REMARK    3  A    between atoms: C_12  and  C_13 
ROOT
HETATM    1  C   UNL     1      26.187  46.270  52.866  1.00  0.00     0.258 C 
HETATM    2  N   UNL     1      26.605  47.019  51.792  1.00  0.00    -0.342 N 
HETATM    3  O   UNL     1      25.149  45.619  52.874  1.00  0.00    -0.267 OA
HETATM    4  H   UNL     1      27.554  47.387  51.863  1.00  0.00     0.164 HD
ENDROOT
BRANCH   1   5
HETATM    5  C   UNL     1      27.074  46.304  54.018  1.00  0.00     0.105 A 
HETATM    6  C   UNL     1      28.121  45.446  54.306  1.00  0.00     0.169 A 
HETATM    7  N   UNL     1      28.616  44.361  53.628  1.00  0.00    -0.233 NA
HETATM    8  N   UNL     1      28.649  45.863  55.533  1.00  0.00    -0.219 N 
HETATM    9  C   UNL     1      29.601  43.724  54.194  1.00  0.00     0.035 A 
HETATM   10  C   UNL     1      30.168  42.510  53.502  1.00  0.00     0.070 C 
HETATM   11  C   UNL     1      30.226  44.097  55.502  1.00  0.00     0.053 A 
HETATM   12  C   UNL     1      29.716  45.172  56.126  1.00  0.00     0.036 A 
HETATM   13  C   UNL     1      30.232  45.669  57.442  1.00  0.00     0.070 C 
HETATM   14  N   UNL     1      28.000  46.952  56.010  1.00  0.00    -0.170 NA
HETATM   15  C   UNL     1      27.047  47.211  55.109  1.00  0.00     0.071 A 
HETATM   16  C   UNL     1      26.119  48.351  55.322  1.00  0.00     0.073 C 
ENDBRANCH   1   5
BRANCH   2  17
HETATM   17  C   UNL     1      26.002  46.981  50.452  1.00  0.00     0.079 C 
HETATM   18  C   UNL     1      24.518  47.381  50.560  1.00  0.00     0.046 C 
HETATM   19  C   UNL     1      26.698  47.925  49.448  1.00  0.00     0.046 C 
BRANCH  17  20
HETATM   20  C   UNL     1      26.118  45.547  49.936  1.00  0.00     0.128 A 
HETATM   21  S   UNL     1      24.726  44.636  49.465  1.00  0.00    -0.031 SA
HETATM   22  C   UNL     1      25.774  43.313  49.161  1.00  0.00     0.187 A 
HETATM   23  N   UNL     1      25.302  42.116  48.762  1.00  0.00    -0.377 N 
HETATM   24  N   UNL     1      27.040  43.579  49.376  1.00  0.00    -0.124 NA
HETATM   25  H   UNL     1      24.335  41.897  48.974  1.00  0.00     0.158 HD
HETATM   26  H   UNL     1      25.937  41.334  48.883  1.00  0.00     0.158 HD
HETATM   27  N   UNL     1      27.244  44.868  49.822  1.00  0.00    -0.142 NA
ENDBRANCH  17  20
ENDBRANCH   2  17
TORSDOF 3
ENDMDL
MODEL 4
REMARK VINA RESULT:      -8.1      2.639      4.456
REMARK  3 active torsions:
REMARK  status: ('A' for Active; 'I' for Inactive)
REMARK    1  A    between atoms: C_9  and  C_10 
REMARK       I    between atoms: C_10  and  N_11 
REMARK    2  A    between atoms: N_11  and  C_12 
REMARK    3  A    between atoms: C_12  and  C_13 
ROOT
HETATM    1  C   UNL     1      27.469  44.377  52.175  1.00  0.00     0.258 C 
HETATM    2  N   UNL     1      26.530  45.371  52.033  1.00  0.00    -0.342 N 
HETATM    3  O   UNL     1      27.665  43.507  51.335  1.00  0.00    -0.267 OA
HETATM    4  H   UNL     1      26.574  46.112  52.733  1.00  0.00     0.164 HD
ENDROOT
BRANCH   1   5
HETATM    5  C   UNL     1      28.227  44.424  53.415  1.00  0.00     0.105 A 
HETATM    6  C   UNL     1      28.101  45.335  54.450  1.00  0.00     0.169 A 
HETATM    7  N   UNL     1      27.265  46.409  54.614  1.00  0.00    -0.233 NA
HETATM    8  N   UNL     1      29.068  44.989  55.402  1.00  0.00    -0.219 N 
HETATM    9  C   UNL     1      27.425  47.108  55.702  1.00  0.00     0.035 A 
HETATM   10  C   UNL     1      26.547  48.314  55.922  1.00  0.00     0.070 C 
HETATM   11  C   UNL     1      28.431  46.814  56.770  1.00  0.00     0.053 A 
HETATM   12  C   UNL     1      29.223  45.745  56.573  1.00  0.00     0.036 A 
HETATM   13  C   UNL     1      30.278  45.324  57.549  1.00  0.00     0.070 C 
HETATM   14  N   UNL     1      29.771  43.896  55.023  1.00  0.00    -0.170 NA
HETATM   15  C   UNL     1      29.278  43.563  53.825  1.00  0.00     0.071 A 
HETATM   16  C   UNL     1      29.836  42.396  53.095  1.00  0.00     0.073 C 
ENDBRANCH   1   5
BRANCH   2  17
HETATM   17  C   UNL     1      25.793  45.664  50.796  1.00  0.00     0.079 C 
HETATM   18  C   UNL     1      24.985  46.962  50.990  1.00  0.00     0.046 C 
HETATM   19  C   UNL     1      26.713  45.832  49.568  1.00  0.00     0.046 C 
BRANCH  17  20
HETATM   20  C   UNL     1      24.844  44.494  50.539  1.00  0.00     0.128 A 
HETATM   21  S   UNL     1      24.824  43.656  49.026  1.00  0.00    -0.031 SA
HETATM   22  C   UNL     1      23.534  42.708  49.642  1.00  0.00     0.187 A 
HETATM   23  N   UNL     1      22.927  41.770  48.889  1.00  0.00    -0.377 N 
HETATM   24  N   UNL     1      23.201  43.002  50.876  1.00  0.00    -0.124 NA
HETATM   25  H   UNL     1      22.989  41.862  47.882  1.00  0.00     0.158 HD
HETATM   26  H   UNL     1      22.016  41.469  49.220  1.00  0.00     0.158 HD
HETATM   27  N   UNL     1      23.956  44.032  51.398  1.00  0.00    -0.142 NA
ENDBRANCH  17  20
ENDBRANCH   2  17
TORSDOF 3
ENDMDL
MODEL 5
REMARK VINA RESULT:      -8.0      5.549      7.798
REMARK  3 active torsions:
REMARK  status: ('A' for Active; 'I' for Inactive)
REMARK    1  A    between atoms: C_9  and  C_10 
REMARK       I    between atoms: C_10  and  N_11 
REMARK    2  A    between atoms: N_11  and  C_12 
REMARK    3  A    between atoms: C_12  and  C_13 
ROOT
HETATM    1  C   UNL     1      21.348  48.526  48.689  1.00  0.00     0.258 C 
HETATM    2  N   UNL     1      20.616  48.700  49.841  1.00  0.00    -0.342 N 
HETATM    3  O   UNL     1      20.852  48.220  47.612  1.00  0.00    -0.267 OA
HETATM    4  H   UNL     1      21.131  49.098  50.626  1.00  0.00     0.164 HD
ENDROOT
BRANCH   1   5
HETATM    5  C   UNL     1      22.780  48.732  48.839  1.00  0.00     0.105 A 
HETATM    6  C   UNL     1      23.739  47.793  49.177  1.00  0.00     0.169 A 
HETATM    7  N   UNL     1      23.637  46.453  49.453  1.00  0.00    -0.233 NA
HETATM    8  N   UNL     1      24.960  48.475  49.229  1.00  0.00    -0.219 N 
HETATM    9  C   UNL     1      24.740  45.845  49.785  1.00  0.00     0.035 A 
HETATM   10  C   UNL     1      24.681  44.376  50.122  1.00  0.00     0.070 C 
HETATM   11  C   UNL     1      26.087  46.493  49.869  1.00  0.00     0.053 A 
HETATM   12  C   UNL     1      26.141  47.804  49.579  1.00  0.00     0.036 A 
HETATM   13  C   UNL     1      27.414  48.593  49.620  1.00  0.00     0.070 C 
HETATM   14  N   UNL     1      24.813  49.784  48.918  1.00  0.00    -0.170 NA
HETATM   15  C   UNL     1      23.504  49.944  48.696  1.00  0.00     0.071 A 
HETATM   16  C   UNL     1      22.973  51.284  48.337  1.00  0.00     0.073 C 
ENDBRANCH   1   5
BRANCH   2  17
HETATM   17  C   UNL     1      19.149  48.757  49.906  1.00  0.00     0.079 C 
HETATM   18  C   UNL     1      18.566  47.576  49.106  1.00  0.00     0.046 C 
HETATM   19  C   UNL     1      18.604  48.696  51.348  1.00  0.00     0.046 C 
BRANCH  17  20
HETATM   20  C   UNL     1      18.712  50.078  49.274  1.00  0.00     0.128 A 
HETATM   21  S   UNL     1      17.677  50.125  47.889  1.00  0.00    -0.031 SA
HETATM   22  C   UNL     1      17.833  51.833  47.909  1.00  0.00     0.187 A 
HETATM   23  N   UNL     1      17.253  52.605  46.970  1.00  0.00    -0.377 N 
HETATM   24  N   UNL     1      18.574  52.286  48.893  1.00  0.00    -0.124 NA
HETATM   25  H   UNL     1      17.027  52.175  46.081  1.00  0.00     0.158 HD
HETATM   26  H   UNL     1      17.623  53.546  46.891  1.00  0.00     0.158 HD
HETATM   27  N   UNL     1      19.082  51.277  49.684  1.00  0.00    -0.142 NA
ENDBRANCH  17  20
ENDBRANCH   2  17
TORSDOF 3
ENDMDL
MODEL 6
REMARK VINA RESULT:      -8.0      3.988      6.058
REMARK  3 active torsions:
REMARK  status: ('A' for Active; 'I' for Inactive)
REMARK    1  A    between atoms: C_9  and  C_10 
REMARK       I    between atoms: C_10  and  N_11 
REMARK    2  A    between atoms: N_11  and  C_12 
REMARK    3  A    between atoms: C_12  and  C_13 
ROOT
HETATM    1  C   UNL     1      24.119  47.936  49.812  1.00  0.00     0.258 C 
HETATM    2  N   UNL     1      22.759  47.946  49.609  1.00  0.00    -0.342 N 
HETATM    3  O   UNL     1      24.863  48.841  49.454  1.00  0.00    -0.267 OA
HETATM    4  H   UNL     1      22.243  47.207  50.086  1.00  0.00     0.164 HD
ENDROOT
BRANCH   1   5
HETATM    5  C   UNL     1      24.626  46.754  50.490  1.00  0.00     0.105 A 
HETATM    6  C   UNL     1      25.170  46.674  51.760  1.00  0.00     0.169 A 
HETATM    7  N   UNL     1      25.383  47.635  52.716  1.00  0.00    -0.233 NA
HETATM    8  N   UNL     1      25.541  45.338  51.949  1.00  0.00    -0.219 N 
HETATM    9  C   UNL     1      25.965  47.242  53.812  1.00  0.00     0.035 A 
HETATM   10  C   UNL     1      26.244  48.262  54.888  1.00  0.00     0.070 C 
HETATM   11  C   UNL     1      26.397  45.838  54.100  1.00  0.00     0.053 A 
HETATM   12  C   UNL     1      26.159  44.928  53.140  1.00  0.00     0.036 A 
HETATM   13  C   UNL     1      26.534  43.484  53.278  1.00  0.00     0.070 C 
HETATM   14  N   UNL     1      25.232  44.578  50.872  1.00  0.00    -0.170 NA
HETATM   15  C   UNL     1      24.694  45.427  49.990  1.00  0.00     0.071 A 
HETATM   16  C   UNL     1      24.245  44.930  48.665  1.00  0.00     0.073 C 
ENDBRANCH   1   5
BRANCH   2  17
HETATM   17  C   UNL     1      21.986  49.106  49.142  1.00  0.00     0.079 C 
HETATM   18  C   UNL     1      22.383  50.341  49.974  1.00  0.00     0.046 C 
HETATM   19  C   UNL     1      22.210  49.423  47.648  1.00  0.00     0.046 C 
BRANCH  17  20
HETATM   20  C   UNL     1      20.506  48.789  49.357  1.00  0.00     0.128 A 
HETATM   21  S   UNL     1      19.785  47.347  48.731  1.00  0.00    -0.031 SA
HETATM   22  C   UNL     1      18.287  47.900  49.356  1.00  0.00     0.187 A 
HETATM   23  N   UNL     1      17.147  47.208  49.171  1.00  0.00    -0.377 N 
HETATM   24  N   UNL     1      18.368  49.045  49.992  1.00  0.00    -0.124 NA
HETATM   25  H   UNL     1      17.109  46.564  48.389  1.00  0.00     0.158 HD
HETATM   26  H   UNL     1      16.291  47.732  49.315  1.00  0.00     0.158 HD
HETATM   27  N   UNL     1      19.648  49.561  49.996  1.00  0.00    -0.142 NA
ENDBRANCH  17  20
ENDBRANCH   2  17
TORSDOF 3
ENDMDL
MODEL 7
REMARK VINA RESULT:      -7.9      2.700      6.825
REMARK  3 active torsions:
REMARK  status: ('A' for Active; 'I' for Inactive)
REMARK    1  A    between atoms: C_9  and  C_10 
REMARK       I    between atoms: C_10  and  N_11 
REMARK    2  A    between atoms: N_11  and  C_12 
REMARK    3  A    between atoms: C_12  and  C_13 
ROOT
HETATM    1  C   UNL     1      26.729  44.376  53.387  1.00  0.00     0.258 C 
HETATM    2  N   UNL     1      28.035  44.179  53.006  1.00  0.00    -0.342 N 
HETATM    3  O   UNL     1      26.180  43.735  54.275  1.00  0.00    -0.267 OA
HETATM    4  H   UNL     1      28.410  44.877  52.363  1.00  0.00     0.164 HD
ENDROOT
BRANCH   1   5
HETATM    5  C   UNL     1      26.027  45.414  52.649  1.00  0.00     0.105 A 
HETATM    6  C   UNL     1      25.360  45.292  51.443  1.00  0.00     0.169 A 
HETATM    7  N   UNL     1      25.165  44.211  50.621  1.00  0.00    -0.233 NA
HETATM    8  N   UNL     1      24.881  46.568  51.124  1.00  0.00    -0.219 N 
HETATM    9  C   UNL     1      24.518  44.435  49.513  1.00  0.00     0.035 A 
HETATM   10  C   UNL     1      24.295  43.286  48.563  1.00  0.00     0.070 C 
HETATM   11  C   UNL     1      23.972  45.763  49.090  1.00  0.00     0.053 A 
HETATM   12  C   UNL     1      24.178  46.792  49.931  1.00  0.00     0.036 A 
HETATM   13  C   UNL     1      23.695  48.181  49.648  1.00  0.00     0.070 C 
HETATM   14  N   UNL     1      25.194  47.471  52.083  1.00  0.00    -0.170 NA
HETATM   15  C   UNL     1      25.893  46.785  52.993  1.00  0.00     0.071 A 
HETATM   16  C   UNL     1      26.419  47.477  54.197  1.00  0.00     0.073 C 
ENDBRANCH   1   5
BRANCH   2  17
HETATM   17  C   UNL     1      29.008  43.348  53.729  1.00  0.00     0.079 C 
HETATM   18  C   UNL     1      28.311  42.057  54.201  1.00  0.00     0.046 C 
HETATM   19  C   UNL     1      30.233  42.964  52.872  1.00  0.00     0.046 C 
BRANCH  17  20
HETATM   20  C   UNL     1      29.489  44.149  54.938  1.00  0.00     0.128 A 
HETATM   21  S   UNL     1      30.700  43.538  56.011  1.00  0.00    -0.031 SA
HETATM   22  C   UNL     1      30.495  44.957  56.950  1.00  0.00     0.187 A 
HETATM   23  N   UNL     1      31.174  45.149  58.098  1.00  0.00    -0.377 N 
HETATM   24  N   UNL     1      29.616  45.797  56.457  1.00  0.00    -0.124 NA
HETATM   25  H   UNL     1      31.530  44.329  58.576  1.00  0.00     0.158 HD
HETATM   26  H   UNL     1      30.792  45.854  58.718  1.00  0.00     0.158 HD
HETATM   27  N   UNL     1      29.033  45.335  55.295  1.00  0.00    -0.142 NA
ENDBRANCH  17  20
ENDBRANCH   2  17
TORSDOF 3
ENDMDL
MODEL 8
REMARK VINA RESULT:      -7.7      2.109      3.543
REMARK  3 active torsions:
REMARK  status: ('A' for Active; 'I' for Inactive)
REMARK    1  A    between atoms: C_9  and  C_10 
REMARK       I    between atoms: C_10  and  N_11 
REMARK    2  A    between atoms: N_11  and  C_12 
REMARK    3  A    between atoms: C_12  and  C_13 
ROOT
HETATM    1  C   UNL     1      27.458  44.127  51.807  1.00  0.00     0.258 C 
HETATM    2  N   UNL     1      26.104  43.908  51.901  1.00  0.00    -0.342 N 
HETATM    3  O   UNL     1      28.062  44.189  50.743  1.00  0.00    -0.267 OA
HETATM    4  H   UNL     1      25.708  44.028  52.833  1.00  0.00     0.164 HD
ENDROOT
BRANCH   1   5
HETATM    5  C   UNL     1      28.141  44.281  53.082  1.00  0.00     0.105 A 
HETATM    6  C   UNL     1      27.933  45.255  54.043  1.00  0.00     0.169 A 
HETATM    7  N   UNL     1      27.063  46.315  54.083  1.00  0.00    -0.233 NA
HETATM    8  N   UNL     1      28.850  45.003  55.069  1.00  0.00    -0.219 N 
HETATM    9  C   UNL     1      27.143  47.090  55.127  1.00  0.00     0.035 A 
HETATM   10  C   UNL     1      26.224  48.283  55.213  1.00  0.00     0.070 C 
HETATM   11  C   UNL     1      28.092  46.898  56.269  1.00  0.00     0.053 A 
HETATM   12  C   UNL     1      28.919  45.841  56.191  1.00  0.00     0.036 A 
HETATM   13  C   UNL     1      29.925  45.517  57.252  1.00  0.00     0.070 C 
HETATM   14  N   UNL     1      29.601  43.906  54.807  1.00  0.00    -0.170 NA
HETATM   15  C   UNL     1      29.186  43.478  53.610  1.00  0.00     0.071 A 
HETATM   16  C   UNL     1      29.814  42.281  52.996  1.00  0.00     0.073 C 
ENDBRANCH   1   5
BRANCH   2  17
HETATM   17  C   UNL     1      25.167  43.931  50.769  1.00  0.00     0.079 C 
HETATM   18  C   UNL     1      25.881  43.386  49.516  1.00  0.00     0.046 C 
HETATM   19  C   UNL     1      23.895  43.093  51.018  1.00  0.00     0.046 C 
BRANCH  17  20
HETATM   20  C   UNL     1      24.757  45.386  50.541  1.00  0.00     0.128 A 
HETATM   21  S   UNL     1      23.748  45.849  49.215  1.00  0.00    -0.031 SA
HETATM   22  C   UNL     1      23.924  47.474  49.732  1.00  0.00     0.187 A 
HETATM   23  N   UNL     1      23.370  48.495  49.049  1.00  0.00    -0.377 N 
HETATM   24  N   UNL     1      24.651  47.611  50.815  1.00  0.00    -0.124 NA
HETATM   25  H   UNL     1      23.156  48.345  48.070  1.00  0.00     0.158 HD
HETATM   26  H   UNL     1      23.753  49.413  49.251  1.00  0.00     0.158 HD
HETATM   27  N   UNL     1      25.133  46.407  51.287  1.00  0.00    -0.142 NA
ENDBRANCH  17  20
ENDBRANCH   2  17
TORSDOF 3
ENDMDL
MODEL 9
REMARK VINA RESULT:      -7.6      3.532      5.135
REMARK  3 active torsions:
REMARK  status: ('A' for Active; 'I' for Inactive)
REMARK    1  A    between atoms: C_9  and  C_10 
REMARK       I    between atoms: C_10  and  N_11 
REMARK    2  A    between atoms: N_11  and  C_12 
REMARK    3  A    between atoms: C_12  and  C_13 
ROOT
HETATM    1  C   UNL     1      26.058  43.650  52.320  1.00  0.00     0.258 C 
HETATM    2  N   UNL     1      26.376  43.407  51.005  1.00  0.00    -0.342 N 
HETATM    3  O   UNL     1      24.919  43.877  52.710  1.00  0.00    -0.267 OA
HETATM    4  H   UNL     1      27.330  43.088  50.841  1.00  0.00     0.164 HD
ENDROOT
BRANCH   1   5
HETATM    5  C   UNL     1      27.187  43.624  53.237  1.00  0.00     0.105 A 
HETATM    6  C   UNL     1      27.660  44.656  54.029  1.00  0.00     0.169 A 
HETATM    7  N   UNL     1      27.227  45.948  54.185  1.00  0.00    -0.233 NA
HETATM    8  N   UNL     1      28.779  44.156  54.704  1.00  0.00    -0.219 N 
HETATM    9  C   UNL     1      27.924  46.699  54.989  1.00  0.00     0.035 A 
HETATM   10  C   UNL     1      27.506  48.135  55.181  1.00  0.00     0.070 C 
HETATM   11  C   UNL     1      29.134  46.251  55.750  1.00  0.00     0.053 A 
HETATM   12  C   UNL     1      29.515  44.974  55.574  1.00  0.00     0.036 A 
HETATM   13  C   UNL     1      30.704  44.379  56.263  1.00  0.00     0.070 C 
HETATM   14  N   UNL     1      29.012  42.860  54.391  1.00  0.00    -0.170 NA
HETATM   15  C   UNL     1      28.066  42.541  53.501  1.00  0.00     0.071 A 
HETATM   16  C   UNL     1      28.026  41.174  52.922  1.00  0.00     0.073 C 
ENDBRANCH   1   5
BRANCH   2  17
HETATM   17  C   UNL     1      25.399  43.172  49.932  1.00  0.00     0.079 C 
HETATM   18  C   UNL     1      24.182  42.430  50.516  1.00  0.00     0.046 C 
HETATM   19  C   UNL     1      24.910  44.474  49.262  1.00  0.00     0.046 C 
BRANCH  17  20
HETATM   20  C   UNL     1      26.079  42.304  48.874  1.00  0.00     0.128 A 
HETATM   21  S   UNL     1      25.167  41.325  47.778  1.00  0.00    -0.031 SA
HETATM   22  C   UNL     1      26.656  40.758  47.144  1.00  0.00     0.187 A 
HETATM   23  N   UNL     1      26.700  39.826  46.173  1.00  0.00    -0.377 N 
HETATM   24  N   UNL     1      27.711  41.298  47.707  1.00  0.00    -0.124 NA
HETATM   25  H   UNL     1      25.895  39.220  46.066  1.00  0.00     0.158 HD
HETATM   26  H   UNL     1      27.589  39.351  46.065  1.00  0.00     0.158 HD
HETATM   27  N   UNL     1      27.383  42.192  48.705  1.00  0.00    -0.142 NA
ENDBRANCH  17  20
ENDBRANCH   2  17
TORSDOF 3
ENDMDL
MODEL 10
REMARK VINA RESULT:      -7.6      2.867      4.636
REMARK  3 active torsions:
REMARK  status: ('A' for Active; 'I' for Inactive)
REMARK    1  A    between atoms: C_9  and  C_10 
REMARK       I    between atoms: C_10  and  N_11 
REMARK    2  A    between atoms: N_11  and  C_12 
REMARK    3  A    between atoms: C_12  and  C_13 
ROOT
HETATM    1  C   UNL     1      23.871  43.679  50.454  1.00  0.00     0.258 C 
HETATM    2  N   UNL     1      23.867  44.831  49.703  1.00  0.00    -0.342 N 
HETATM    3  O   UNL     1      22.923  42.906  50.511  1.00  0.00    -0.267 OA
HETATM    4  H   UNL     1      24.768  45.302  49.627  1.00  0.00     0.164 HD
ENDROOT
BRANCH   1   5
HETATM    5  C   UNL     1      25.099  43.437  51.194  1.00  0.00     0.105 A 
HETATM    6  C   UNL     1      25.710  44.268  52.118  1.00  0.00     0.169 A 
HETATM    7  N   UNL     1      25.358  45.505  52.593  1.00  0.00    -0.233 NA
HETATM    8  N   UNL     1      26.878  43.615  52.527  1.00  0.00    -0.219 N 
HETATM    9  C   UNL     1      26.180  46.055  53.441  1.00  0.00     0.035 A 
HETATM   10  C   UNL     1      25.853  47.425  53.979  1.00  0.00     0.070 C 
HETATM   11  C   UNL     1      27.450  45.433  53.933  1.00  0.00     0.053 A 
HETATM   12  C   UNL     1      27.749  44.216  53.448  1.00  0.00     0.036 A 
HETATM   13  C   UNL     1      28.984  43.465  53.842  1.00  0.00     0.070 C 
HETATM   14  N   UNL     1      27.012  42.410  51.924  1.00  0.00    -0.170 NA
HETATM   15  C   UNL     1      25.953  42.306  51.114  1.00  0.00     0.071 A 
HETATM   16  C   UNL     1      25.783  41.094  50.273  1.00  0.00     0.073 C 
ENDBRANCH   1   5
BRANCH   2  17
HETATM   17  C   UNL     1      22.841  45.187  48.713  1.00  0.00     0.079 C 
HETATM   18  C   UNL     1      23.132  44.439  47.398  1.00  0.00     0.046 C 
HETATM   19  C   UNL     1      21.409  44.841  49.173  1.00  0.00     0.046 C 
BRANCH  17  20
HETATM   20  C   UNL     1      22.929  46.696  48.483  1.00  0.00     0.128 A 
HETATM   21  S   UNL     1      23.875  47.718  49.508  1.00  0.00    -0.031 SA
HETATM   22  C   UNL     1      23.318  49.052  48.585  1.00  0.00     0.187 A 
HETATM   23  N   UNL     1      23.664  50.317  48.893  1.00  0.00    -0.377 N 
HETATM   24  N   UNL     1      22.525  48.717  47.595  1.00  0.00    -0.124 NA
HETATM   25  H   UNL     1      23.955  50.506  49.845  1.00  0.00     0.158 HD
HETATM   26  H   UNL     1      23.078  51.039  48.490  1.00  0.00     0.158 HD
HETATM   27  N   UNL     1      22.298  47.358  47.532  1.00  0.00    -0.142 NA
ENDBRANCH  17  20
ENDBRANCH   2  17
TORSDOF 3
ENDMDL
