MODEL 1
REMARK VINA RESULT:      -9.5      0.000      0.000
REMARK  7 active torsions:
REMARK  status: ('A' for Active; 'I' for Inactive)
REMARK    1  A    between atoms: N_3  and  N_4 
REMARK       I    between atoms: N_4  and  C_5 
REMARK    2  A    between atoms: C_5  and  C_6 
REMARK    3  A    between atoms: C_9  and  O_10 
REMARK    4  A    between atoms: O_10  and  C_11 
REMARK    5  A    between atoms: C_11  and  C_12 
REMARK       I    between atoms: C_12  and  N_13 
REMARK    6  A    between atoms: N_13  and  C_14 
REMARK    7  A    between atoms: C_17  and  O_18 
ROOT
HETATM    1  C   UNL     1      26.253  45.105  52.894  1.00  0.00     0.033 A 
HETATM    2  C   UNL     1      25.502  44.285  52.043  1.00  0.00     0.020 A 
HETATM    3  C   UNL     1      24.713  44.860  51.043  1.00  0.00     0.038 A 
HETATM    4  C   UNL     1      24.654  46.248  50.897  1.00  0.00     0.069 A 
HETATM    5  C   UNL     1      25.422  47.066  51.727  1.00  0.00     0.038 A 
HETATM    6  C   UNL     1      26.222  46.494  52.721  1.00  0.00     0.020 A 
ENDROOT
BRANCH   4   7
HETATM    7  O   UNL     1      23.880  46.703  49.866  1.00  0.00    -0.342 OA
BRANCH   7   8
HETATM    8  C   UNL     1      24.028  48.085  49.548  1.00  0.00     0.278 C 
BRANCH   8   9
HETATM    9  C   UNL     1      22.794  48.738  48.915  1.00  0.00     0.246 C 
HETATM   10  N   UNL     1      22.089  49.534  49.800  1.00  0.00    -0.325 N 
HETATM   11  H   UNL     1      22.458  49.557  50.747  1.00  0.00     0.169 HD
HETATM   12  O   UNL     1      22.522  48.534  47.736  1.00  0.00    -0.271 OA
BRANCH  10  13
HETATM   13  C   UNL     1      20.902  50.251  49.562  1.00  0.00     0.035 A 
HETATM   14  C   UNL     1      19.680  49.957  50.162  1.00  0.00     0.032 A 
HETATM   15  C   UNL     1      18.550  50.734  49.883  1.00  0.00     0.039 A 
HETATM   16  C   UNL     1      18.626  51.819  49.010  1.00  0.00     0.068 A 
HETATM   17  C   UNL     1      19.841  52.108  48.393  1.00  0.00     0.039 A 
HETATM   18  C   UNL     1      20.971  51.325  48.667  1.00  0.00     0.032 A 
BRANCH  16  19
HETATM   19  O   UNL     1      17.454  52.502  48.838  1.00  0.00    -0.356 OA
HETATM   20  C   UNL     1      16.702  52.783  50.012  1.00  0.00     0.210 C 
ENDBRANCH  16  19
ENDBRANCH  10  13
ENDBRANCH   8   9
ENDBRANCH   7   8
ENDBRANCH   4   7
BRANCH   1  21
HETATM   21  C   UNL     1      27.126  44.538  53.958  1.00  0.00     0.270 C 
HETATM   22  N   UNL     1      28.430  44.970  53.939  1.00  0.00    -0.259 N 
HETATM   23  H   UNL     1      28.837  45.487  53.175  1.00  0.00     0.191 HD
HETATM   24  O   UNL     1      26.658  43.727  54.747  1.00  0.00    -0.266 OA
BRANCH  22  25
HETATM   25  N   UNL     1      29.314  44.459  54.815  1.00  0.00    -0.263 N 
HETATM   26  C   UNL     1      29.629  45.062  56.000  1.00  0.00     0.030 A 
HETATM   27  C   UNL     1      28.892  46.229  56.547  1.00  0.00     0.070 C 
HETATM   28  C   UNL     1      30.698  44.359  56.525  1.00  0.00     0.028 A 
HETATM   29  C   UNL     1      31.038  43.336  55.603  1.00  0.00     0.028 A 
HETATM   30  C   UNL     1      30.172  43.433  54.528  1.00  0.00     0.030 A 
HETATM   31  C   UNL     1      30.086  42.608  53.296  1.00  0.00     0.070 C 
ENDBRANCH  22  25
ENDBRANCH   1  21
TORSDOF 7
ENDMDL
MODEL 2
REMARK VINA RESULT:      -8.8      2.956     10.213
REMARK  7 active torsions:
REMARK  status: ('A' for Active; 'I' for Inactive)
REMARK    1  A    between atoms: N_3  and  N_4 
REMARK       I    between atoms: N_4  and  C_5 
REMARK    2  A    between atoms: C_5  and  C_6 
REMARK    3  A    between atoms: C_9  and  O_10 
REMARK    4  A    between atoms: O_10  and  C_11 
REMARK    5  A    between atoms: C_11  and  C_12 
REMARK       I    between atoms: C_12  and  N_13 
REMARK    6  A    between atoms: N_13  and  C_14 
REMARK    7  A    between atoms: C_17  and  O_18 
ROOT
HETATM    1  C   UNL     1      24.821  45.761  49.948  1.00  0.00     0.033 A 
HETATM    2  C   UNL     1      23.947  44.713  50.263  1.00  0.00     0.020 A 
HETATM    3  C   UNL     1      24.406  43.394  50.230  1.00  0.00     0.038 A 
HETATM    4  C   UNL     1      25.726  43.111  49.869  1.00  0.00     0.069 A 
HETATM    5  C   UNL     1      26.605  44.155  49.580  1.00  0.00     0.038 A 
HETATM    6  C   UNL     1      26.153  45.478  49.624  1.00  0.00     0.020 A 
ENDROOT
BRANCH   4   7
HETATM    7  O   UNL     1      26.079  41.790  49.904  1.00  0.00    -0.342 OA
BRANCH   7   8
HETATM    8  C   UNL     1      26.305  41.247  51.203  1.00  0.00     0.278 C 
BRANCH   8   9
HETATM    9  C   UNL     1      27.549  41.786  51.920  1.00  0.00     0.246 C 
HETATM   10  N   UNL     1      27.244  42.532  53.043  1.00  0.00    -0.325 N 
HETATM   11  H   UNL     1      26.252  42.651  53.226  1.00  0.00     0.169 HD
HETATM   12  O   UNL     1      28.670  41.536  51.486  1.00  0.00    -0.271 OA
BRANCH  10  13
HETATM   13  C   UNL     1      28.135  43.192  53.910  1.00  0.00     0.035 A 
HETATM   14  C   UNL     1      29.360  42.668  54.317  1.00  0.00     0.032 A 
HETATM   15  C   UNL     1      30.195  43.400  55.168  1.00  0.00     0.039 A 
HETATM   16  C   UNL     1      29.825  44.668  55.617  1.00  0.00     0.068 A 
HETATM   17  C   UNL     1      28.594  45.191  55.227  1.00  0.00     0.039 A 
HETATM   18  C   UNL     1      27.754  44.455  54.381  1.00  0.00     0.032 A 
BRANCH  16  19
HETATM   19  O   UNL     1      30.739  45.280  56.429  1.00  0.00    -0.356 OA
HETATM   20  C   UNL     1      30.255  45.783  57.668  1.00  0.00     0.210 C 
ENDBRANCH  16  19
ENDBRANCH  10  13
ENDBRANCH   8   9
ENDBRANCH   7   8
ENDBRANCH   4   7
BRANCH   1  21
HETATM   21  C   UNL     1      24.385  47.184  49.991  1.00  0.00     0.270 C 
HETATM   22  N   UNL     1      23.811  47.657  48.836  1.00  0.00    -0.259 N 
HETATM   23  H   UNL     1      23.832  47.162  47.958  1.00  0.00     0.191 HD
HETATM   24  O   UNL     1      24.580  47.839  51.008  1.00  0.00    -0.266 OA
BRANCH  22  25
HETATM   25  N   UNL     1      23.452  48.951  48.752  1.00  0.00    -0.263 N 
HETATM   26  C   UNL     1      22.152  49.371  48.786  1.00  0.00     0.030 A 
HETATM   27  C   UNL     1      21.011  48.482  49.120  1.00  0.00     0.070 C 
HETATM   28  C   UNL     1      22.169  50.720  48.478  1.00  0.00     0.028 A 
HETATM   29  C   UNL     1      23.515  51.089  48.224  1.00  0.00     0.028 A 
HETATM   30  C   UNL     1      24.298  49.959  48.379  1.00  0.00     0.030 A 
HETATM   31  C   UNL     1      25.767  49.791  48.238  1.00  0.00     0.070 C 
ENDBRANCH  22  25
ENDBRANCH   1  21
TORSDOF 7
ENDMDL
MODEL 3
REMARK VINA RESULT:      -8.5      1.994     10.920
REMARK  7 active torsions:
REMARK  status: ('A' for Active; 'I' for Inactive)
REMARK    1  A    between atoms: N_3  and  N_4 
REMARK       I    between atoms: N_4  and  C_5 
REMARK    2  A    between atoms: C_5  and  C_6 
REMARK    3  A    between atoms: C_9  and  O_10 
REMARK    4  A    between atoms: O_10  and  C_11 
REMARK    5  A    between atoms: C_11  and  C_12 
REMARK       I    between atoms: C_12  and  N_13 
REMARK    6  A    between atoms: N_13  and  C_14 
REMARK    7  A    between atoms: C_17  and  O_18 
ROOT
HETATM    1  C   UNL     1      23.800  47.086  49.198  1.00  0.00     0.033 A 
HETATM    2  C   UNL     1      25.060  47.452  49.688  1.00  0.00     0.020 A 
HETATM    3  C   UNL     1      25.971  46.462  50.066  1.00  0.00     0.038 A 
HETATM    4  C   UNL     1      25.629  45.111  49.974  1.00  0.00     0.069 A 
HETATM    5  C   UNL     1      24.384  44.744  49.462  1.00  0.00     0.038 A 
HETATM    6  C   UNL     1      23.473  45.730  49.071  1.00  0.00     0.020 A 
ENDROOT
BRANCH   4   7
HETATM    7  O   UNL     1      26.607  44.226  50.337  1.00  0.00    -0.342 OA
BRANCH   7   8
HETATM    8  C   UNL     1      26.250  43.298  51.358  1.00  0.00     0.278 C 
BRANCH   8   9
HETATM    9  C   UNL     1      26.725  43.674  52.767  1.00  0.00     0.246 C 
HETATM   10  N   UNL     1      28.092  43.874  52.841  1.00  0.00    -0.325 N 
HETATM   11  H   UNL     1      28.598  43.718  51.974  1.00  0.00     0.169 HD
HETATM   12  O   UNL     1      25.918  43.773  53.686  1.00  0.00    -0.271 OA
BRANCH  10  13
HETATM   13  C   UNL     1      28.857  44.198  53.976  1.00  0.00     0.035 A 
HETATM   14  C   UNL     1      28.702  45.370  54.713  1.00  0.00     0.032 A 
HETATM   15  C   UNL     1      29.494  45.605  55.842  1.00  0.00     0.039 A 
HETATM   16  C   UNL     1      30.444  44.672  56.257  1.00  0.00     0.068 A 
HETATM   17  C   UNL     1      30.616  43.506  55.515  1.00  0.00     0.039 A 
HETATM   18  C   UNL     1      29.828  43.273  54.380  1.00  0.00     0.032 A 
BRANCH  16  19
HETATM   19  O   UNL     1      31.138  45.018  57.383  1.00  0.00    -0.356 OA
HETATM   20  C   UNL     1      30.368  45.299  58.545  1.00  0.00     0.210 C 
ENDBRANCH  16  19
ENDBRANCH  10  13
ENDBRANCH   8   9
ENDBRANCH   7   8
ENDBRANCH   4   7
BRANCH   1  21
HETATM   21  C   UNL     1      22.804  48.103  48.762  1.00  0.00     0.270 C 
HETATM   22  N   UNL     1      21.707  48.238  49.578  1.00  0.00    -0.259 N 
HETATM   23  H   UNL     1      21.479  47.593  50.319  1.00  0.00     0.191 HD
HETATM   24  O   UNL     1      22.997  48.722  47.723  1.00  0.00    -0.266 OA
BRANCH  22  25
HETATM   25  N   UNL     1      20.716  49.078  49.229  1.00  0.00    -0.263 N 
HETATM   26  C   UNL     1      20.669  50.385  49.625  1.00  0.00     0.030 A 
HETATM   27  C   UNL     1      21.791  51.077  50.308  1.00  0.00     0.070 C 
HETATM   28  C   UNL     1      19.428  50.864  49.245  1.00  0.00     0.028 A 
HETATM   29  C   UNL     1      18.719  49.796  48.639  1.00  0.00     0.028 A 
HETATM   30  C   UNL     1      19.537  48.680  48.661  1.00  0.00     0.030 A 
HETATM   31  C   UNL     1      19.291  47.307  48.153  1.00  0.00     0.070 C 
ENDBRANCH  22  25
ENDBRANCH   1  21
TORSDOF 7
ENDMDL
MODEL 4
REMARK VINA RESULT:      -8.4      2.406      2.816
REMARK  7 active torsions:
REMARK  status: ('A' for Active; 'I' for Inactive)
REMARK    1  A    between atoms: N_3  and  N_4 
REMARK       I    between atoms: N_4  and  C_5 
REMARK    2  A    between atoms: C_5  and  C_6 
REMARK    3  A    between atoms: C_9  and  O_10 
REMARK    4  A    between atoms: O_10  and  C_11 
REMARK    5  A    between atoms: C_11  and  C_12 
REMARK       I    between atoms: C_12  and  N_13 
REMARK    6  A    between atoms: N_13  and  C_14 
REMARK    7  A    between atoms: C_17  and  O_18 
ROOT
HETATM    1  C   UNL     1      26.374  45.167  52.839  1.00  0.00     0.033 A 
HETATM    2  C   UNL     1      26.466  46.520  52.490  1.00  0.00     0.020 A 
HETATM    3  C   UNL     1      25.674  47.026  51.456  1.00  0.00     0.038 A 
HETATM    4  C   UNL     1      24.803  46.189  50.756  1.00  0.00     0.069 A 
HETATM    5  C   UNL     1      24.690  44.846  51.118  1.00  0.00     0.038 A 
HETATM    6  C   UNL     1      25.472  44.338  52.160  1.00  0.00     0.020 A 
ENDROOT
BRANCH   4   7
HETATM    7  O   UNL     1      24.049  46.794  49.788  1.00  0.00    -0.342 OA
BRANCH   7   8
HETATM    8  C   UNL     1      23.191  45.930  49.046  1.00  0.00     0.278 C 
BRANCH   8   9
HETATM    9  C   UNL     1      21.965  46.612  48.429  1.00  0.00     0.246 C 
HETATM   10  N   UNL     1      20.776  46.232  49.025  1.00  0.00    -0.325 N 
HETATM   11  H   UNL     1      20.867  45.538  49.762  1.00  0.00     0.169 HD
HETATM   12  O   UNL     1      22.100  47.408  47.504  1.00  0.00    -0.271 OA
BRANCH  10  13
HETATM   13  C   UNL     1      19.472  46.639  48.690  1.00  0.00     0.035 A 
HETATM   14  C   UNL     1      18.870  47.800  49.168  1.00  0.00     0.032 A 
HETATM   15  C   UNL     1      17.573  48.141  48.769  1.00  0.00     0.039 A 
HETATM   16  C   UNL     1      16.863  47.334  47.880  1.00  0.00     0.068 A 
HETATM   17  C   UNL     1      17.453  46.162  47.411  1.00  0.00     0.039 A 
HETATM   18  C   UNL     1      18.749  45.817  47.816  1.00  0.00     0.032 A 
BRANCH  16  19
HETATM   19  O   UNL     1      15.615  47.790  47.560  1.00  0.00    -0.356 OA
HETATM   20  C   UNL     1      15.325  49.142  47.892  1.00  0.00     0.210 C 
ENDBRANCH  16  19
ENDBRANCH  10  13
ENDBRANCH   8   9
ENDBRANCH   7   8
ENDBRANCH   4   7
BRANCH   1  21
HETATM   21  C   UNL     1      27.181  44.587  53.947  1.00  0.00     0.270 C 
HETATM   22  N   UNL     1      28.478  45.032  54.023  1.00  0.00    -0.259 N 
HETATM   23  H   UNL     1      28.929  45.568  53.299  1.00  0.00     0.191 HD
HETATM   24  O   UNL     1      26.670  43.755  54.687  1.00  0.00    -0.266 OA
BRANCH  22  25
HETATM   25  N   UNL     1      29.308  44.511  54.946  1.00  0.00    -0.263 N 
HETATM   26  C   UNL     1      29.552  45.104  56.153  1.00  0.00     0.030 A 
HETATM   27  C   UNL     1      28.787  46.269  56.665  1.00  0.00     0.070 C 
HETATM   28  C   UNL     1      30.588  44.394  56.734  1.00  0.00     0.028 A 
HETATM   29  C   UNL     1      30.980  43.378  55.825  1.00  0.00     0.028 A 
HETATM   30  C   UNL     1      30.179  43.486  54.702  1.00  0.00     0.030 A 
HETATM   31  C   UNL     1      30.164  42.671  53.461  1.00  0.00     0.070 C 
ENDBRANCH  22  25
ENDBRANCH   1  21
TORSDOF 7
ENDMDL
MODEL 5
REMARK VINA RESULT:      -8.2      2.115     11.363
REMARK  7 active torsions:
REMARK  status: ('A' for Active; 'I' for Inactive)
REMARK    1  A    between atoms: N_3  and  N_4 
REMARK       I    between atoms: N_4  and  C_5 
REMARK    2  A    between atoms: C_5  and  C_6 
REMARK    3  A    between atoms: C_9  and  O_10 
REMARK    4  A    between atoms: O_10  and  C_11 
REMARK    5  A    between atoms: C_11  and  C_12 
REMARK       I    between atoms: C_12  and  N_13 
REMARK    6  A    between atoms: N_13  and  C_14 
REMARK    7  A    between atoms: C_17  and  O_18 
ROOT
HETATM    1  C   UNL     1      22.728  47.978  48.761  1.00  0.00     0.033 A 
HETATM    2  C   UNL     1      23.790  48.408  49.567  1.00  0.00     0.020 A 
HETATM    3  C   UNL     1      24.618  47.466  50.183  1.00  0.00     0.038 A 
HETATM    4  C   UNL     1      24.385  46.099  50.015  1.00  0.00     0.069 A 
HETATM    5  C   UNL     1      23.344  45.669  49.192  1.00  0.00     0.038 A 
HETATM    6  C   UNL     1      22.520  46.607  48.563  1.00  0.00     0.020 A 
ENDROOT
BRANCH   4   7
HETATM    7  O   UNL     1      25.277  45.266  50.633  1.00  0.00    -0.342 OA
BRANCH   7   8
HETATM    8  C   UNL     1      24.732  44.429  51.651  1.00  0.00     0.278 C 
BRANCH   8   9
HETATM    9  C   UNL     1      25.495  44.450  52.981  1.00  0.00     0.246 C 
HETATM   10  N   UNL     1      26.831  44.774  52.833  1.00  0.00    -0.325 N 
HETATM   11  H   UNL     1      27.135  44.923  51.875  1.00  0.00     0.169 HD
HETATM   12  O   UNL     1      24.913  44.199  54.032  1.00  0.00    -0.271 OA
BRANCH  10  13
HETATM   13  C   UNL     1      27.817  44.855  53.834  1.00  0.00     0.035 A 
HETATM   14  C   UNL     1      27.934  45.915  54.730  1.00  0.00     0.032 A 
HETATM   15  C   UNL     1      28.934  45.907  55.709  1.00  0.00     0.039 A 
HETATM   16  C   UNL     1      29.825  44.838  55.813  1.00  0.00     0.068 A 
HETATM   17  C   UNL     1      29.724  43.783  54.909  1.00  0.00     0.039 A 
HETATM   18  C   UNL     1      28.727  43.794  53.924  1.00  0.00     0.032 A 
BRANCH  16  19
HETATM   19  O   UNL     1      30.741  44.949  56.821  1.00  0.00    -0.356 OA
HETATM   20  C   UNL     1      30.448  45.888  57.848  1.00  0.00     0.210 C 
ENDBRANCH  16  19
ENDBRANCH  10  13
ENDBRANCH   8   9
ENDBRANCH   7   8
ENDBRANCH   4   7
BRANCH   1  21
HETATM   21  C   UNL     1      21.832  48.943  48.065  1.00  0.00     0.270 C 
HETATM   22  N   UNL     1      20.500  48.841  48.385  1.00  0.00    -0.259 N 
HETATM   23  H   UNL     1      20.107  48.073  48.906  1.00  0.00     0.191 HD
HETATM   24  O   UNL     1      22.312  49.727  47.255  1.00  0.00    -0.266 OA
BRANCH  22  25
HETATM   25  N   UNL     1      19.603  49.620  47.754  1.00  0.00    -0.263 N 
HETATM   26  C   UNL     1      19.045  49.295  46.549  1.00  0.00     0.030 A 
HETATM   27  C   UNL     1      19.206  47.969  45.902  1.00  0.00     0.070 C 
HETATM   28  C   UNL     1      18.338  50.409  46.133  1.00  0.00     0.028 A 
HETATM   29  C   UNL     1      18.516  51.424  47.107  1.00  0.00     0.028 A 
HETATM   30  C   UNL     1      19.331  50.914  48.102  1.00  0.00     0.030 A 
HETATM   31  C   UNL     1      19.822  51.551  49.351  1.00  0.00     0.070 C 
ENDBRANCH  22  25
ENDBRANCH   1  21
TORSDOF 7
ENDMDL
MODEL 6
REMARK VINA RESULT:      -8.1      2.616      3.644
REMARK  7 active torsions:
REMARK  status: ('A' for Active; 'I' for Inactive)
REMARK    1  A    between atoms: N_3  and  N_4 
REMARK       I    between atoms: N_4  and  C_5 
REMARK    2  A    between atoms: C_5  and  C_6 
REMARK    3  A    between atoms: C_9  and  O_10 
REMARK    4  A    between atoms: O_10  and  C_11 
REMARK    5  A    between atoms: C_11  and  C_12 
REMARK       I    between atoms: C_12  and  N_13 
REMARK    6  A    between atoms: N_13  and  C_14 
REMARK    7  A    between atoms: C_17  and  O_18 
ROOT
HETATM    1  C   UNL     1      25.759  45.767  50.397  1.00  0.00     0.033 A 
HETATM    2  C   UNL     1      26.797  46.652  50.079  1.00  0.00     0.020 A 
HETATM    3  C   UNL     1      26.496  47.942  49.633  1.00  0.00     0.038 A 
HETATM    4  C   UNL     1      25.168  48.350  49.488  1.00  0.00     0.069 A 
HETATM    5  C   UNL     1      24.133  47.480  49.829  1.00  0.00     0.038 A 
HETATM    6  C   UNL     1      24.429  46.192  50.287  1.00  0.00     0.020 A 
ENDROOT
BRANCH   4   7
HETATM    7  O   UNL     1      24.988  49.643  49.079  1.00  0.00    -0.342 OA
BRANCH   7   8
HETATM    8  C   UNL     1      23.815  49.886  48.306  1.00  0.00     0.278 C 
BRANCH   8   9
HETATM    9  C   UNL     1      22.625  50.444  49.095  1.00  0.00     0.246 C 
HETATM   10  N   UNL     1      21.422  50.315  48.424  1.00  0.00    -0.325 N 
HETATM   11  H   UNL     1      21.488  49.902  47.498  1.00  0.00     0.169 HD
HETATM   12  O   UNL     1      22.796  50.937  50.206  1.00  0.00    -0.271 OA
BRANCH  10  13
HETATM   13  C   UNL     1      20.149  50.744  48.842  1.00  0.00     0.035 A 
HETATM   14  C   UNL     1      19.331  50.026  49.712  1.00  0.00     0.032 A 
HETATM   15  C   UNL     1      18.084  50.535  50.092  1.00  0.00     0.039 A 
HETATM   16  C   UNL     1      17.640  51.769  49.617  1.00  0.00     0.068 A 
HETATM   17  C   UNL     1      18.446  52.484  48.734  1.00  0.00     0.039 A 
HETATM   18  C   UNL     1      19.692  51.971  48.348  1.00  0.00     0.032 A 
BRANCH  16  19
HETATM   19  O   UNL     1      16.413  52.155  50.079  1.00  0.00    -0.356 OA
HETATM   20  C   UNL     1      16.156  53.553  50.117  1.00  0.00     0.210 C 
ENDBRANCH  16  19
ENDBRANCH  10  13
ENDBRANCH   8   9
ENDBRANCH   7   8
ENDBRANCH   4   7
BRANCH   1  21
HETATM   21  C   UNL     1      26.029  44.391  50.897  1.00  0.00     0.270 C 
HETATM   22  N   UNL     1      27.074  43.740  50.287  1.00  0.00    -0.259 N 
HETATM   23  H   UNL     1      27.524  44.069  49.447  1.00  0.00     0.191 HD
HETATM   24  O   UNL     1      25.314  43.922  51.774  1.00  0.00    -0.266 OA
BRANCH  22  25
HETATM   25  N   UNL     1      27.348  42.465  50.618  1.00  0.00    -0.263 N 
HETATM   26  C   UNL     1      28.270  42.120  51.566  1.00  0.00     0.030 A 
HETATM   27  C   UNL     1      28.920  43.099  52.473  1.00  0.00     0.070 C 
HETATM   28  C   UNL     1      28.416  40.746  51.487  1.00  0.00     0.028 A 
HETATM   29  C   UNL     1      27.579  40.281  50.440  1.00  0.00     0.028 A 
HETATM   30  C   UNL     1      26.938  41.379  49.895  1.00  0.00     0.030 A 
HETATM   31  C   UNL     1      25.954  41.454  48.785  1.00  0.00     0.070 C 
ENDBRANCH  22  25
ENDBRANCH   1  21
TORSDOF 7
ENDMDL
MODEL 7
REMARK VINA RESULT:      -8.0      2.606     12.171
REMARK  7 active torsions:
REMARK  status: ('A' for Active; 'I' for Inactive)
REMARK    1  A    between atoms: N_3  and  N_4 
REMARK       I    between atoms: N_4  and  C_5 
REMARK    2  A    between atoms: C_5  and  C_6 
REMARK    3  A    between atoms: C_9  and  O_10 
REMARK    4  A    between atoms: O_10  and  C_11 
REMARK    5  A    between atoms: C_11  and  C_12 
REMARK       I    between atoms: C_12  and  N_13 
REMARK    6  A    between atoms: N_13  and  C_14 
REMARK    7  A    between atoms: C_17  and  O_18 
ROOT
HETATM    1  C   UNL     1      19.872  49.989  48.468  1.00  0.00     0.033 A 
HETATM    2  C   UNL     1      20.731  50.982  48.955  1.00  0.00     0.020 A 
HETATM    3  C   UNL     1      22.026  50.645  49.354  1.00  0.00     0.038 A 
HETATM    4  C   UNL     1      22.466  49.321  49.287  1.00  0.00     0.069 A 
HETATM    5  C   UNL     1      21.622  48.333  48.778  1.00  0.00     0.038 A 
HETATM    6  C   UNL     1      20.328  48.669  48.366  1.00  0.00     0.020 A 
ENDROOT
BRANCH   4   7
HETATM    7  O   UNL     1      23.763  49.107  49.669  1.00  0.00    -0.342 OA
BRANCH   7   8
HETATM    8  C   UNL     1      24.129  47.743  49.866  1.00  0.00     0.278 C 
BRANCH   8   9
HETATM    9  C   UNL     1      25.393  47.530  50.707  1.00  0.00     0.246 C 
HETATM   10  N   UNL     1      25.221  46.598  51.715  1.00  0.00    -0.325 N 
HETATM   11  H   UNL     1      24.286  46.205  51.784  1.00  0.00     0.169 HD
HETATM   12  O   UNL     1      26.419  48.154  50.453  1.00  0.00    -0.271 OA
BRANCH  10  13
HETATM   13  C   UNL     1      26.158  46.187  52.681  1.00  0.00     0.035 A 
HETATM   14  C   UNL     1      26.828  44.965  52.647  1.00  0.00     0.032 A 
HETATM   15  C   UNL     1      27.760  44.643  53.640  1.00  0.00     0.039 A 
HETATM   16  C   UNL     1      28.043  45.536  54.673  1.00  0.00     0.068 A 
HETATM   17  C   UNL     1      27.365  46.752  54.722  1.00  0.00     0.039 A 
HETATM   18  C   UNL     1      26.426  47.072  53.731  1.00  0.00     0.032 A 
BRANCH  16  19
HETATM   19  O   UNL     1      28.984  45.103  55.565  1.00  0.00    -0.356 OA
HETATM   20  C   UNL     1      29.316  45.993  56.624  1.00  0.00     0.210 C 
ENDBRANCH  16  19
ENDBRANCH  10  13
ENDBRANCH   8   9
ENDBRANCH   7   8
ENDBRANCH   4   7
BRANCH   1  21
HETATM   21  C   UNL     1      18.491  50.303  48.010  1.00  0.00     0.270 C 
HETATM   22  N   UNL     1      18.241  51.632  47.769  1.00  0.00    -0.259 N 
HETATM   23  H   UNL     1      18.864  52.377  48.040  1.00  0.00     0.191 HD
HETATM   24  O   UNL     1      17.674  49.396  47.905  1.00  0.00    -0.266 OA
BRANCH  22  25
HETATM   25  N   UNL     1      17.002  52.025  47.422  1.00  0.00    -0.263 N 
HETATM   26  C   UNL     1      16.622  52.250  46.129  1.00  0.00     0.030 A 
HETATM   27  C   UNL     1      17.458  51.896  44.955  1.00  0.00     0.070 C 
HETATM   28  C   UNL     1      15.363  52.821  46.185  1.00  0.00     0.028 A 
HETATM   29  C   UNL     1      15.013  52.963  47.552  1.00  0.00     0.028 A 
HETATM   30  C   UNL     1      16.065  52.479  48.309  1.00  0.00     0.030 A 
HETATM   31  C   UNL     1      16.215  52.387  49.783  1.00  0.00     0.070 C 
ENDBRANCH  22  25
ENDBRANCH   1  21
TORSDOF 7
ENDMDL
MODEL 8
REMARK VINA RESULT:      -7.9      2.274      3.171
REMARK  7 active torsions:
REMARK  status: ('A' for Active; 'I' for Inactive)
REMARK    1  A    between atoms: N_3  and  N_4 
REMARK       I    between atoms: N_4  and  C_5 
REMARK    2  A    between atoms: C_5  and  C_6 
REMARK    3  A    between atoms: C_9  and  O_10 
REMARK    4  A    between atoms: O_10  and  C_11 
REMARK    5  A    between atoms: C_11  and  C_12 
REMARK       I    between atoms: C_12  and  N_13 
REMARK    6  A    between atoms: N_13  and  C_14 
REMARK    7  A    between atoms: C_17  and  O_18 
ROOT
HETATM    1  C   UNL     1      25.373  44.045  50.654  1.00  0.00     0.033 A 
HETATM    2  C   UNL     1      24.975  45.102  49.825  1.00  0.00     0.020 A 
HETATM    3  C   UNL     1      23.696  45.097  49.260  1.00  0.00     0.038 A 
HETATM    4  C   UNL     1      22.818  44.038  49.503  1.00  0.00     0.069 A 
HETATM    5  C   UNL     1      23.203  42.997  50.348  1.00  0.00     0.038 A 
HETATM    6  C   UNL     1      24.477  43.004  50.925  1.00  0.00     0.020 A 
ENDROOT
BRANCH   4   7
HETATM    7  O   UNL     1      21.581  44.151  48.930  1.00  0.00    -0.342 OA
BRANCH   7   8
HETATM    8  C   UNL     1      21.514  44.977  47.769  1.00  0.00     0.278 C 
BRANCH   8   9
HETATM    9  C   UNL     1      20.503  46.127  47.852  1.00  0.00     0.246 C 
HETATM   10  N   UNL     1      20.803  47.039  48.848  1.00  0.00    -0.325 N 
HETATM   11  H   UNL     1      21.623  46.814  49.405  1.00  0.00     0.169 HD
HETATM   12  O   UNL     1      19.552  46.172  47.079  1.00  0.00    -0.271 OA
BRANCH  10  13
HETATM   13  C   UNL     1      20.078  48.187  49.216  1.00  0.00     0.035 A 
HETATM   14  C   UNL     1      19.039  48.190  50.144  1.00  0.00     0.032 A 
HETATM   15  C   UNL     1      18.382  49.382  50.466  1.00  0.00     0.039 A 
HETATM   16  C   UNL     1      18.756  50.588  49.875  1.00  0.00     0.068 A 
HETATM   17  C   UNL     1      19.783  50.590  48.933  1.00  0.00     0.039 A 
HETATM   18  C   UNL     1      20.437  49.395  48.605  1.00  0.00     0.032 A 
BRANCH  16  19
HETATM   19  O   UNL     1      18.044  51.678  50.290  1.00  0.00    -0.356 OA
HETATM   20  C   UNL     1      17.764  52.669  49.309  1.00  0.00     0.210 C 
ENDBRANCH  16  19
ENDBRANCH  10  13
ENDBRANCH   8   9
ENDBRANCH   7   8
ENDBRANCH   4   7
BRANCH   1  21
HETATM   21  C   UNL     1      26.715  44.017  51.296  1.00  0.00     0.270 C 
HETATM   22  N   UNL     1      26.744  43.505  52.571  1.00  0.00    -0.259 N 
HETATM   23  H   UNL     1      25.919  43.323  53.119  1.00  0.00     0.191 HD
HETATM   24  O   UNL     1      27.680  44.460  50.685  1.00  0.00    -0.266 OA
BRANCH  22  25
HETATM   25  N   UNL     1      27.899  43.506  53.262  1.00  0.00    -0.263 N 
HETATM   26  C   UNL     1      28.731  42.423  53.331  1.00  0.00     0.030 A 
HETATM   27  C   UNL     1      28.564  41.206  52.498  1.00  0.00     0.070 C 
HETATM   28  C   UNL     1      29.694  42.731  54.275  1.00  0.00     0.028 A 
HETATM   29  C   UNL     1      29.396  44.016  54.795  1.00  0.00     0.028 A 
HETATM   30  C   UNL     1      28.254  44.472  54.162  1.00  0.00     0.030 A 
HETATM   31  C   UNL     1      27.520  45.753  54.325  1.00  0.00     0.070 C 
ENDBRANCH  22  25
ENDBRANCH   1  21
TORSDOF 7
ENDMDL
MODEL 9
REMARK VINA RESULT:      -7.8      3.006     12.828
REMARK  7 active torsions:
REMARK  status: ('A' for Active; 'I' for Inactive)
REMARK    1  A    between atoms: N_3  and  N_4 
REMARK       I    between atoms: N_4  and  C_5 
REMARK    2  A    between atoms: C_5  and  C_6 
REMARK    3  A    between atoms: C_9  and  O_10 
REMARK    4  A    between atoms: O_10  and  C_11 
REMARK    5  A    between atoms: C_11  and  C_12 
REMARK       I    between atoms: C_12  and  N_13 
REMARK    6  A    between atoms: N_13  and  C_14 
REMARK    7  A    between atoms: C_17  and  O_18 
ROOT
HETATM    1  C   UNL     1      18.092  51.057  48.886  1.00  0.00     0.033 A 
HETATM    2  C   UNL     1      19.162  51.949  48.743  1.00  0.00     0.020 A 
HETATM    3  C   UNL     1      20.466  51.514  48.994  1.00  0.00     0.038 A 
HETATM    4  C   UNL     1      20.709  50.201  49.402  1.00  0.00     0.069 A 
HETATM    5  C   UNL     1      19.647  49.303  49.520  1.00  0.00     0.038 A 
HETATM    6  C   UNL     1      18.342  49.731  49.259  1.00  0.00     0.020 A 
ENDROOT
BRANCH   4   7
HETATM    7  O   UNL     1      22.023  49.871  49.586  1.00  0.00    -0.342 OA
BRANCH   7   8
HETATM    8  C   UNL     1      22.413  48.592  49.090  1.00  0.00     0.278 C 
BRANCH   8   9
HETATM    9  C   UNL     1      23.793  48.113  49.553  1.00  0.00     0.246 C 
HETATM   10  N   UNL     1      23.801  46.787  49.945  1.00  0.00    -0.325 N 
HETATM   11  H   UNL     1      22.900  46.320  49.906  1.00  0.00     0.169 HD
HETATM   12  O   UNL     1      24.750  48.882  49.545  1.00  0.00    -0.271 OA
BRANCH  10  13
HETATM   13  C   UNL     1      24.883  46.041  50.448  1.00  0.00     0.035 A 
HETATM   14  C   UNL     1      25.210  45.955  51.800  1.00  0.00     0.032 A 
HETATM   15  C   UNL     1      26.294  45.174  52.217  1.00  0.00     0.039 A 
HETATM   16  C   UNL     1      27.060  44.461  51.295  1.00  0.00     0.068 A 
HETATM   17  C   UNL     1      26.748  44.557  49.940  1.00  0.00     0.039 A 
HETATM   18  C   UNL     1      25.668  45.344  49.521  1.00  0.00     0.032 A 
BRANCH  16  19
HETATM   19  O   UNL     1      28.077  43.727  51.837  1.00  0.00    -0.356 OA
HETATM   20  C   UNL     1      27.718  42.781  52.836  1.00  0.00     0.210 C 
ENDBRANCH  16  19
ENDBRANCH  10  13
ENDBRANCH   8   9
ENDBRANCH   7   8
ENDBRANCH   4   7
BRANCH   1  21
HETATM   21  C   UNL     1      16.688  51.468  48.608  1.00  0.00     0.270 C 
HETATM   22  N   UNL     1      16.503  52.810  48.381  1.00  0.00    -0.259 N 
HETATM   23  H   UNL     1      17.207  53.509  48.557  1.00  0.00     0.191 HD
HETATM   24  O   UNL     1      15.803  50.621  48.624  1.00  0.00    -0.266 OA
BRANCH  22  25
HETATM   25  N   UNL     1      15.259  53.288  48.194  1.00  0.00    -0.263 N 
HETATM   26  C   UNL     1      14.710  53.483  46.958  1.00  0.00     0.030 A 
HETATM   27  C   UNL     1      15.333  53.004  45.699  1.00  0.00     0.070 C 
HETATM   28  C   UNL     1      13.520  54.160  47.161  1.00  0.00     0.028 A 
HETATM   29  C   UNL     1      13.390  54.396  48.554  1.00  0.00     0.028 A 
HETATM   30  C   UNL     1      14.503  53.862  49.179  1.00  0.00     0.030 A 
HETATM   31  C   UNL     1      14.862  53.827  50.619  1.00  0.00     0.070 C 
ENDBRANCH  22  25
ENDBRANCH   1  21
TORSDOF 7
ENDMDL
MODEL 10
REMARK VINA RESULT:      -7.7      5.579      9.799
REMARK  7 active torsions:
REMARK  status: ('A' for Active; 'I' for Inactive)
REMARK    1  A    between atoms: N_3  and  N_4 
REMARK       I    between atoms: N_4  and  C_5 
REMARK    2  A    between atoms: C_5  and  C_6 
REMARK    3  A    between atoms: C_9  and  O_10 
REMARK    4  A    between atoms: O_10  and  C_11 
REMARK    5  A    between atoms: C_11  and  C_12 
REMARK       I    between atoms: C_12  and  N_13 
REMARK    6  A    between atoms: N_13  and  C_14 
REMARK    7  A    between atoms: C_17  and  O_18 
ROOT
HETATM    1  C   UNL     1      26.218  44.517  51.777  1.00  0.00     0.033 A 
HETATM    2  C   UNL     1      26.337  45.880  51.480  1.00  0.00     0.020 A 
HETATM    3  C   UNL     1      26.024  46.833  52.453  1.00  0.00     0.038 A 
HETATM    4  C   UNL     1      25.577  46.436  53.715  1.00  0.00     0.069 A 
HETATM    5  C   UNL     1      25.482  45.078  54.023  1.00  0.00     0.038 A 
HETATM    6  C   UNL     1      25.806  44.121  53.056  1.00  0.00     0.020 A 
ENDROOT
BRANCH   4   7
HETATM    7  O   UNL     1      25.332  47.448  54.602  1.00  0.00    -0.342 OA
BRANCH   7   8
HETATM    8  C   UNL     1      26.397  48.380  54.782  1.00  0.00     0.278 C 
BRANCH   8   9
HETATM    9  C   UNL     1      27.772  47.750  55.027  1.00  0.00     0.246 C 
HETATM   10  N   UNL     1      27.766  46.817  56.049  1.00  0.00    -0.325 N 
HETATM   11  H   UNL     1      26.871  46.696  56.516  1.00  0.00     0.169 HD
HETATM   12  O   UNL     1      28.737  48.084  54.345  1.00  0.00    -0.271 OA
BRANCH  10  13
HETATM   13  C   UNL     1      28.852  46.078  56.551  1.00  0.00     0.035 A 
HETATM   14  C   UNL     1      29.321  46.171  57.860  1.00  0.00     0.032 A 
HETATM   15  C   UNL     1      30.397  45.384  58.283  1.00  0.00     0.039 A 
HETATM   16  C   UNL     1      31.015  44.486  57.411  1.00  0.00     0.068 A 
HETATM   17  C   UNL     1      30.561  44.401  56.096  1.00  0.00     0.039 A 
HETATM   18  C   UNL     1      29.488  45.194  55.670  1.00  0.00     0.032 A 
BRANCH  16  19
HETATM   19  O   UNL     1      32.042  43.769  57.957  1.00  0.00    -0.356 OA
HETATM   20  C   UNL     1      32.467  42.617  57.239  1.00  0.00     0.210 C 
ENDBRANCH  16  19
ENDBRANCH  10  13
ENDBRANCH   8   9
ENDBRANCH   7   8
ENDBRANCH   4   7
BRANCH   1  21
HETATM   21  C   UNL     1      26.561  43.465  50.782  1.00  0.00     0.270 C 
HETATM   22  N   UNL     1      26.209  42.185  51.136  1.00  0.00    -0.259 N 
HETATM   23  H   UNL     1      25.905  41.924  52.060  1.00  0.00     0.191 HD
HETATM   24  O   UNL     1      27.142  43.783  49.752  1.00  0.00    -0.266 OA
BRANCH  22  25
HETATM   25  N   UNL     1      26.543  41.157  50.335  1.00  0.00    -0.263 N 
HETATM   26  C   UNL     1      25.724  40.677  49.351  1.00  0.00     0.030 A 
HETATM   27  C   UNL     1      24.475  41.353  48.921  1.00  0.00     0.070 C 
HETATM   28  C   UNL     1      26.313  39.515  48.885  1.00  0.00     0.028 A 
HETATM   29  C   UNL     1      27.493  39.294  49.641  1.00  0.00     0.028 A 
HETATM   30  C   UNL     1      27.603  40.323  50.560  1.00  0.00     0.030 A 
HETATM   31  C   UNL     1      28.648  40.578  51.583  1.00  0.00     0.070 C 
ENDBRANCH  22  25
ENDBRANCH   1  21
TORSDOF 7
ENDMDL
