MODEL 1
REMARK VINA RESULT:      -7.8      0.000      0.000
REMARK  6 active torsions:
REMARK  status: ('A' for Active; 'I' for Inactive)
REMARK    1  A    between atoms: C_2  and  C_3 
REMARK    2  A    between atoms: C_5  and  N_6 
REMARK       I    between atoms: N_6  and  C_7 
REMARK       I    between atoms: C_7  and  N_8 
REMARK    3  A    between atoms: N_8  and  C_9 
REMARK    4  A    between atoms: C_9  and  C_10 
REMARK    5  A    between atoms: C_11  and  N_12 
REMARK    6  A    between atoms: C_19  and  O_20 
ROOT
HETATM    1  N   UNL     1      26.132  43.048  53.013  1.00  0.00    -0.306 N 
HETATM    2  C   UNL     1      25.535  43.485  51.881  1.00  0.00     0.321 C 
HETATM    3  N   UNL     1      26.331  43.888  50.855  1.00  0.00    -0.338 N 
HETATM    4  O   UNL     1      24.320  43.356  51.747  1.00  0.00    -0.247 OA
HETATM    5  H   UNL     1      25.545  42.434  53.568  1.00  0.00     0.171 HD
HETATM    6  H   UNL     1      27.322  43.707  50.944  1.00  0.00     0.164 HD
ENDROOT
BRANCH   1   7
HETATM    7  C   UNL     1      27.360  43.349  53.629  1.00  0.00     0.070 A 
HETATM    8  C   UNL     1      27.621  44.571  54.265  1.00  0.00     0.040 A 
HETATM    9  C   UNL     1      28.821  44.782  54.974  1.00  0.00    -0.048 A 
HETATM   10  C   UNL     1      29.748  43.724  55.004  1.00  0.00     0.011 A 
HETATM   11  C   UNL     1      29.495  42.502  54.374  1.00  0.00     0.039 A 
HETATM   12  C   UNL     1      28.294  42.299  53.703  1.00  0.00     0.095 A 
BRANCH   9  13
HETATM   13  C   UNL     1      29.061  46.069  55.792  1.00  0.00    -0.024 C 
HETATM   14  C   UNL     1      28.418  47.244  55.027  1.00  0.00     0.019 C 
HETATM   15  C   UNL     1      30.563  46.374  55.993  1.00  0.00     0.019 C 
HETATM   16  C   UNL     1      28.433  46.004  57.203  1.00  0.00     0.019 C 
ENDBRANCH   9  13
BRANCH  12  17
HETATM   17  O   UNL     1      27.917  41.133  53.081  1.00  0.00    -0.354 OA
HETATM   18  C   UNL     1      28.646  40.755  51.917  1.00  0.00     0.210 C 
ENDBRANCH  12  17
ENDBRANCH   1   7
BRANCH   3  19
HETATM   19  C   UNL     1      25.784  44.284  49.569  1.00  0.00     0.166 C 
BRANCH  19  20
HETATM   20  C   UNL     1      25.205  45.685  49.551  1.00  0.00     0.003 A 
HETATM   21  C   UNL     1      23.823  45.947  49.486  1.00  0.00     0.106 A 
HETATM   22  N   UNL     1      23.407  47.223  49.512  1.00  0.00    -0.352 N 
HETATM   23  H   UNL     1      22.404  47.375  49.503  1.00  0.00     0.166 HD
HETATM   24  C   UNL     1      24.224  48.276  49.610  1.00  0.00     0.089 A 
HETATM   25  C   UNL     1      25.590  48.084  49.687  1.00  0.00     0.018 A 
HETATM   26  C   UNL     1      26.082  46.783  49.644  1.00  0.00     0.014 A 
BRANCH  21  27
HETATM   27  N   UNL     1      22.841  44.992  49.581  1.00  0.00    -0.385 N 
HETATM   28  H   UNL     1      22.573  44.521  48.705  1.00  0.00     0.157 HD
HETATM   29  H   UNL     1      22.042  45.086  50.191  1.00  0.00     0.157 HD
ENDBRANCH  21  27
ENDBRANCH  19  20
ENDBRANCH   3  19
TORSDOF 6
ENDMDL
MODEL 2
REMARK VINA RESULT:      -7.6      2.382      4.229
REMARK  6 active torsions:
REMARK  status: ('A' for Active; 'I' for Inactive)
REMARK    1  A    between atoms: C_2  and  C_3 
REMARK    2  A    between atoms: C_5  and  N_6 
REMARK       I    between atoms: N_6  and  C_7 
REMARK       I    between atoms: C_7  and  N_8 
REMARK    3  A    between atoms: N_8  and  C_9 
REMARK    4  A    between atoms: C_9  and  C_10 
REMARK    5  A    between atoms: C_11  and  N_12 
REMARK    6  A    between atoms: C_19  and  O_20 
ROOT
HETATM    1  N   UNL     1      25.860  46.722  53.095  1.00  0.00    -0.306 N 
HETATM    2  C   UNL     1      25.643  46.713  51.760  1.00  0.00     0.321 C 
HETATM    3  N   UNL     1      26.146  45.675  51.040  1.00  0.00    -0.338 N 
HETATM    4  O   UNL     1      24.876  47.535  51.264  1.00  0.00    -0.247 OA
HETATM    5  H   UNL     1      25.181  47.273  53.610  1.00  0.00     0.171 HD
HETATM    6  H   UNL     1      26.533  44.899  51.561  1.00  0.00     0.164 HD
ENDROOT
BRANCH   1   7
HETATM    7  C   UNL     1      26.889  46.210  53.905  1.00  0.00     0.070 A 
HETATM    8  C   UNL     1      27.470  44.951  53.704  1.00  0.00     0.040 A 
HETATM    9  C   UNL     1      28.580  44.530  54.464  1.00  0.00    -0.048 A 
HETATM   10  C   UNL     1      29.069  45.419  55.440  1.00  0.00     0.011 A 
HETATM   11  C   UNL     1      28.496  46.678  55.646  1.00  0.00     0.039 A 
HETATM   12  C   UNL     1      27.420  47.089  54.868  1.00  0.00     0.095 A 
BRANCH   9  13
HETATM   13  C   UNL     1      29.314  43.207  54.160  1.00  0.00    -0.024 C 
HETATM   14  C   UNL     1      30.377  42.990  55.257  1.00  0.00     0.019 C 
HETATM   15  C   UNL     1      30.020  43.219  52.786  1.00  0.00     0.019 C 
HETATM   16  C   UNL     1      28.364  41.986  54.155  1.00  0.00     0.019 C 
ENDBRANCH   9  13
BRANCH  12  17
HETATM   17  O   UNL     1      26.800  48.313  54.951  1.00  0.00    -0.354 OA
HETATM   18  C   UNL     1      26.332  48.716  56.234  1.00  0.00     0.210 C 
ENDBRANCH  12  17
ENDBRANCH   1   7
BRANCH   3  19
HETATM   19  C   UNL     1      25.886  45.529  49.619  1.00  0.00     0.166 C 
BRANCH  19  20
HETATM   20  C   UNL     1      24.793  44.529  49.292  1.00  0.00     0.003 A 
HETATM   21  C   UNL     1      23.428  44.873  49.232  1.00  0.00     0.106 A 
HETATM   22  N   UNL     1      22.539  43.924  48.898  1.00  0.00    -0.352 N 
HETATM   23  H   UNL     1      21.570  44.214  48.827  1.00  0.00     0.166 HD
HETATM   24  C   UNL     1      22.866  42.662  48.603  1.00  0.00     0.089 A 
HETATM   25  C   UNL     1      24.189  42.266  48.635  1.00  0.00     0.018 A 
HETATM   26  C   UNL     1      25.154  43.201  48.995  1.00  0.00     0.014 A 
BRANCH  21  27
HETATM   27  N   UNL     1      22.940  46.154  49.310  1.00  0.00    -0.385 N 
HETATM   28  H   UNL     1      22.579  46.562  48.435  1.00  0.00     0.157 HD
HETATM   29  H   UNL     1      23.362  46.867  49.885  1.00  0.00     0.157 HD
ENDBRANCH  21  27
ENDBRANCH  19  20
ENDBRANCH   3  19
TORSDOF 6
ENDMDL
MODEL 3
REMARK VINA RESULT:      -7.4      3.141      7.290
REMARK  6 active torsions:
REMARK  status: ('A' for Active; 'I' for Inactive)
REMARK    1  A    between atoms: C_2  and  C_3 
REMARK    2  A    between atoms: C_5  and  N_6 
REMARK       I    between atoms: N_6  and  C_7 
REMARK       I    between atoms: C_7  and  N_8 
REMARK    3  A    between atoms: N_8  and  C_9 
REMARK    4  A    between atoms: C_9  and  C_10 
REMARK    5  A    between atoms: C_11  and  N_12 
REMARK    6  A    between atoms: C_19  and  O_20 
ROOT
HETATM    1  N   UNL     1      26.377  46.376  53.442  1.00  0.00    -0.306 N 
HETATM    2  C   UNL     1      26.914  46.647  54.653  1.00  0.00     0.321 C 
HETATM    3  N   UNL     1      28.122  46.098  54.952  1.00  0.00    -0.338 N 
HETATM    4  O   UNL     1      26.392  47.495  55.373  1.00  0.00    -0.247 OA
HETATM    5  H   UNL     1      25.706  47.072  53.133  1.00  0.00     0.171 HD
HETATM    6  H   UNL     1      28.614  45.632  54.201  1.00  0.00     0.164 HD
ENDROOT
BRANCH   1   7
HETATM    7  C   UNL     1      26.479  45.278  52.570  1.00  0.00     0.070 A 
HETATM    8  C   UNL     1      27.385  44.226  52.762  1.00  0.00     0.040 A 
HETATM    9  C   UNL     1      27.367  43.087  51.931  1.00  0.00    -0.048 A 
HETATM   10  C   UNL     1      26.415  43.059  50.895  1.00  0.00     0.011 A 
HETATM   11  C   UNL     1      25.507  44.103  50.697  1.00  0.00     0.039 A 
HETATM   12  C   UNL     1      25.518  45.205  51.544  1.00  0.00     0.095 A 
BRANCH   9  13
HETATM   13  C   UNL     1      28.265  41.865  52.215  1.00  0.00    -0.024 C 
HETATM   14  C   UNL     1      29.681  42.381  52.543  1.00  0.00     0.019 C 
HETATM   15  C   UNL     1      28.358  40.902  51.010  1.00  0.00     0.019 C 
HETATM   16  C   UNL     1      27.765  41.023  53.412  1.00  0.00     0.019 C 
ENDBRANCH   9  13
BRANCH  12  17
HETATM   17  O   UNL     1      24.653  46.272  51.474  1.00  0.00    -0.354 OA
HETATM   18  C   UNL     1      24.685  47.054  50.284  1.00  0.00     0.210 C 
ENDBRANCH  12  17
ENDBRANCH   1   7
BRANCH   3  19
HETATM   19  C   UNL     1      28.821  46.407  56.187  1.00  0.00     0.166 C 
BRANCH  19  20
HETATM   20  C   UNL     1      29.884  45.391  56.563  1.00  0.00     0.003 A 
HETATM   21  C   UNL     1      30.620  45.455  57.763  1.00  0.00     0.106 A 
HETATM   22  N   UNL     1      31.513  44.488  58.023  1.00  0.00    -0.352 N 
HETATM   23  H   UNL     1      31.998  44.544  58.912  1.00  0.00     0.166 HD
HETATM   24  C   UNL     1      31.746  43.447  57.218  1.00  0.00     0.089 A 
HETATM   25  C   UNL     1      31.049  43.323  56.031  1.00  0.00     0.018 A 
HETATM   26  C   UNL     1      30.124  44.307  55.698  1.00  0.00     0.014 A 
BRANCH  21  27
HETATM   27  N   UNL     1      30.371  46.336  58.787  1.00  0.00    -0.385 N 
HETATM   28  H   UNL     1      31.157  46.533  59.424  1.00  0.00     0.157 HD
HETATM   29  H   UNL     1      29.494  46.362  59.287  1.00  0.00     0.157 HD
ENDBRANCH  21  27
ENDBRANCH  19  20
ENDBRANCH   3  19
TORSDOF 6
ENDMDL
MODEL 4
REMARK VINA RESULT:      -7.3      3.199      5.259
REMARK  6 active torsions:
REMARK  status: ('A' for Active; 'I' for Inactive)
REMARK    1  A    between atoms: C_2  and  C_3 
REMARK    2  A    between atoms: C_5  and  N_6 
REMARK       I    between atoms: N_6  and  C_7 
REMARK       I    between atoms: C_7  and  N_8 
REMARK    3  A    between atoms: N_8  and  C_9 
REMARK    4  A    between atoms: C_9  and  C_10 
REMARK    5  A    between atoms: C_11  and  N_12 
REMARK    6  A    between atoms: C_19  and  O_20 
ROOT
HETATM    1  N   UNL     1      29.294  42.401  54.159  1.00  0.00    -0.306 N 
HETATM    2  C   UNL     1      28.543  41.511  53.472  1.00  0.00     0.321 C 
HETATM    3  N   UNL     1      27.720  41.989  52.499  1.00  0.00    -0.338 N 
HETATM    4  O   UNL     1      28.736  40.307  53.623  1.00  0.00    -0.247 OA
HETATM    5  H   UNL     1      30.122  41.990  54.579  1.00  0.00     0.171 HD
HETATM    6  H   UNL     1      27.820  42.965  52.251  1.00  0.00     0.164 HD
ENDROOT
BRANCH   1   7
HETATM    7  C   UNL     1      29.112  43.753  54.498  1.00  0.00     0.070 A 
HETATM    8  C   UNL     1      28.029  44.519  54.048  1.00  0.00     0.040 A 
HETATM    9  C   UNL     1      27.823  45.834  54.511  1.00  0.00    -0.048 A 
HETATM   10  C   UNL     1      28.756  46.349  55.431  1.00  0.00     0.011 A 
HETATM   11  C   UNL     1      29.839  45.591  55.887  1.00  0.00     0.039 A 
HETATM   12  C   UNL     1      30.011  44.285  55.442  1.00  0.00     0.095 A 
BRANCH   9  13
HETATM   13  C   UNL     1      26.562  46.638  54.130  1.00  0.00    -0.024 C 
HETATM   14  C   UNL     1      25.346  45.694  54.237  1.00  0.00     0.019 C 
HETATM   15  C   UNL     1      26.625  47.197  52.690  1.00  0.00     0.019 C 
HETATM   16  C   UNL     1      26.322  47.849  55.061  1.00  0.00     0.019 C 
ENDBRANCH   9  13
BRANCH  12  17
HETATM   17  O   UNL     1      31.011  43.432  55.847  1.00  0.00    -0.354 OA
HETATM   18  C   UNL     1      31.518  43.608  57.166  1.00  0.00     0.210 C 
ENDBRANCH  12  17
ENDBRANCH   1   7
BRANCH   3  19
HETATM   19  C   UNL     1      26.946  41.105  51.646  1.00  0.00     0.166 C 
BRANCH  19  20
HETATM   20  C   UNL     1      27.560  40.878  50.277  1.00  0.00     0.003 A 
HETATM   21  C   UNL     1      28.629  39.990  50.050  1.00  0.00     0.106 A 
HETATM   22  N   UNL     1      29.079  39.832  48.795  1.00  0.00    -0.352 N 
HETATM   23  H   UNL     1      29.824  39.157  48.662  1.00  0.00     0.166 HD
HETATM   24  C   UNL     1      28.566  40.456  47.731  1.00  0.00     0.089 A 
HETATM   25  C   UNL     1      27.509  41.332  47.887  1.00  0.00     0.018 A 
HETATM   26  C   UNL     1      27.014  41.553  49.168  1.00  0.00     0.014 A 
BRANCH  21  27
HETATM   27  N   UNL     1      29.141  39.127  50.986  1.00  0.00    -0.385 N 
HETATM   28  H   UNL     1      28.461  38.532  51.483  1.00  0.00     0.157 HD
HETATM   29  H   UNL     1      29.910  39.370  51.594  1.00  0.00     0.157 HD
ENDBRANCH  21  27
ENDBRANCH  19  20
ENDBRANCH   3  19
TORSDOF 6
ENDMDL
MODEL 5
REMARK VINA RESULT:      -7.2      2.643      6.786
REMARK  6 active torsions:
REMARK  status: ('A' for Active; 'I' for Inactive)
REMARK    1  A    between atoms: C_2  and  C_3 
REMARK    2  A    between atoms: C_5  and  N_6 
REMARK       I    between atoms: N_6  and  C_7 
REMARK       I    between atoms: C_7  and  N_8 
REMARK    3  A    between atoms: N_8  and  C_9 
REMARK    4  A    between atoms: C_9  and  C_10 
REMARK    5  A    between atoms: C_11  and  N_12 
REMARK    6  A    between atoms: C_19  and  O_20 
ROOT
HETATM    1  N   UNL     1      27.146  42.521  52.982  1.00  0.00    -0.306 N 
HETATM    2  C   UNL     1      28.309  42.401  53.662  1.00  0.00     0.321 C 
HETATM    3  N   UNL     1      29.131  43.483  53.716  1.00  0.00    -0.338 N 
HETATM    4  O   UNL     1      28.516  41.395  54.337  1.00  0.00    -0.247 OA
HETATM    5  H   UNL     1      26.436  41.859  53.276  1.00  0.00     0.171 HD
HETATM    6  H   UNL     1      28.763  44.357  53.365  1.00  0.00     0.164 HD
ENDROOT
BRANCH   1   7
HETATM    7  C   UNL     1      26.752  43.306  51.884  1.00  0.00     0.070 A 
HETATM    8  C   UNL     1      26.342  44.641  52.002  1.00  0.00     0.040 A 
HETATM    9  C   UNL     1      26.073  45.425  50.861  1.00  0.00    -0.048 A 
HETATM   10  C   UNL     1      26.220  44.808  49.605  1.00  0.00     0.011 A 
HETATM   11  C   UNL     1      26.630  43.477  49.478  1.00  0.00     0.039 A 
HETATM   12  C   UNL     1      26.919  42.727  50.612  1.00  0.00     0.095 A 
BRANCH   9  13
HETATM   13  C   UNL     1      25.755  46.931  50.971  1.00  0.00    -0.024 C 
HETATM   14  C   UNL     1      25.760  47.309  52.466  1.00  0.00     0.019 C 
HETATM   15  C   UNL     1      24.375  47.292  50.376  1.00  0.00     0.019 C 
HETATM   16  C   UNL     1      26.793  47.814  50.241  1.00  0.00     0.019 C 
ENDBRANCH   9  13
BRANCH  12  17
HETATM   17  O   UNL     1      27.367  41.426  50.613  1.00  0.00    -0.354 OA
HETATM   18  C   UNL     1      26.450  40.426  50.180  1.00  0.00     0.210 C 
ENDBRANCH  12  17
ENDBRANCH   1   7
BRANCH   3  19
HETATM   19  C   UNL     1      30.354  43.480  54.500  1.00  0.00     0.166 C 
BRANCH  19  20
HETATM   20  C   UNL     1      30.260  44.270  55.791  1.00  0.00     0.003 A 
HETATM   21  C   UNL     1      31.073  44.012  56.913  1.00  0.00     0.106 A 
HETATM   22  N   UNL     1      30.939  44.791  57.997  1.00  0.00    -0.352 N 
HETATM   23  H   UNL     1      31.566  44.602  58.772  1.00  0.00     0.166 HD
HETATM   24  C   UNL     1      30.087  45.816  58.083  1.00  0.00     0.089 A 
HETATM   25  C   UNL     1      29.270  46.126  57.013  1.00  0.00     0.018 A 
HETATM   26  C   UNL     1      29.348  45.340  55.868  1.00  0.00     0.014 A 
BRANCH  21  27
HETATM   27  N   UNL     1      32.129  43.135  56.928  1.00  0.00    -0.385 N 
HETATM   28  H   UNL     1      32.006  42.277  57.487  1.00  0.00     0.157 HD
HETATM   29  H   UNL     1      33.092  43.436  56.950  1.00  0.00     0.157 HD
ENDBRANCH  21  27
ENDBRANCH  19  20
ENDBRANCH   3  19
TORSDOF 6
ENDMDL
MODEL 6
REMARK VINA RESULT:      -7.1      3.742      6.239
REMARK  6 active torsions:
REMARK  status: ('A' for Active; 'I' for Inactive)
REMARK    1  A    between atoms: C_2  and  C_3 
REMARK    2  A    between atoms: C_5  and  N_6 
REMARK       I    between atoms: N_6  and  C_7 
REMARK       I    between atoms: C_7  and  N_8 
REMARK    3  A    between atoms: N_8  and  C_9 
REMARK    4  A    between atoms: C_9  and  C_10 
REMARK    5  A    between atoms: C_11  and  N_12 
REMARK    6  A    between atoms: C_19  and  O_20 
ROOT
HETATM    1  N   UNL     1      24.400  47.832  49.196  1.00  0.00    -0.306 N 
HETATM    2  C   UNL     1      23.323  48.548  48.801  1.00  0.00     0.321 C 
HETATM    3  N   UNL     1      22.243  48.583  49.628  1.00  0.00    -0.338 N 
HETATM    4  O   UNL     1      23.403  49.267  47.808  1.00  0.00    -0.247 OA
HETATM    5  H   UNL     1      25.266  48.132  48.760  1.00  0.00     0.171 HD
HETATM    6  H   UNL     1      22.359  48.188  50.552  1.00  0.00     0.164 HD
ENDROOT
BRANCH   1   7
HETATM    7  C   UNL     1      24.553  46.694  50.008  1.00  0.00     0.070 A 
HETATM    8  C   UNL     1      25.258  46.703  51.219  1.00  0.00     0.040 A 
HETATM    9  C   UNL     1      25.281  45.570  52.058  1.00  0.00    -0.048 A 
HETATM   10  C   UNL     1      24.581  44.429  51.622  1.00  0.00     0.011 A 
HETATM   11  C   UNL     1      23.874  44.413  50.415  1.00  0.00     0.039 A 
HETATM   12  C   UNL     1      23.837  45.548  49.614  1.00  0.00     0.095 A 
BRANCH   9  13
HETATM   13  C   UNL     1      25.937  45.611  53.454  1.00  0.00    -0.024 C 
HETATM   14  C   UNL     1      25.124  44.690  54.388  1.00  0.00     0.019 C 
HETATM   15  C   UNL     1      25.958  47.032  54.060  1.00  0.00     0.019 C 
HETATM   16  C   UNL     1      27.402  45.118  53.439  1.00  0.00     0.019 C 
ENDBRANCH   9  13
BRANCH  12  17
HETATM   17  O   UNL     1      23.147  45.664  48.430  1.00  0.00    -0.354 OA
HETATM   18  C   UNL     1      21.811  45.171  48.409  1.00  0.00     0.210 C 
ENDBRANCH  12  17
ENDBRANCH   1   7
BRANCH   3  19
HETATM   19  C   UNL     1      21.078  49.399  49.334  1.00  0.00     0.166 C 
BRANCH  19  20
HETATM   20  C   UNL     1      19.818  48.599  49.067  1.00  0.00     0.003 A 
HETATM   21  C   UNL     1      18.892  48.259  50.073  1.00  0.00     0.106 A 
HETATM   22  N   UNL     1      17.787  47.579  49.730  1.00  0.00    -0.352 N 
HETATM   23  H   UNL     1      17.125  47.385  50.472  1.00  0.00     0.166 HD
HETATM   24  C   UNL     1      17.494  47.208  48.480  1.00  0.00     0.089 A 
HETATM   25  C   UNL     1      18.357  47.520  47.447  1.00  0.00     0.018 A 
HETATM   26  C   UNL     1      19.530  48.207  47.745  1.00  0.00     0.014 A 
BRANCH  21  27
HETATM   27  N   UNL     1      18.935  48.725  51.364  1.00  0.00    -0.385 N 
HETATM   28  H   UNL     1      19.099  48.024  52.101  1.00  0.00     0.157 HD
HETATM   29  H   UNL     1      18.329  49.459  51.702  1.00  0.00     0.157 HD
ENDBRANCH  21  27
ENDBRANCH  19  20
ENDBRANCH   3  19
TORSDOF 6
ENDMDL
MODEL 7
REMARK VINA RESULT:      -7.1      4.762      7.988
REMARK  6 active torsions:
REMARK  status: ('A' for Active; 'I' for Inactive)
REMARK    1  A    between atoms: C_2  and  C_3 
REMARK    2  A    between atoms: C_5  and  N_6 
REMARK       I    between atoms: N_6  and  C_7 
REMARK       I    between atoms: C_7  and  N_8 
REMARK    3  A    between atoms: N_8  and  C_9 
REMARK    4  A    between atoms: C_9  and  C_10 
REMARK    5  A    between atoms: C_11  and  N_12 
REMARK    6  A    between atoms: C_19  and  O_20 
ROOT
HETATM    1  N   UNL     1      22.127  47.832  48.142  1.00  0.00    -0.306 N 
HETATM    2  C   UNL     1      20.848  47.882  48.577  1.00  0.00     0.321 C 
HETATM    3  N   UNL     1      20.583  48.612  49.694  1.00  0.00    -0.338 N 
HETATM    4  O   UNL     1      19.950  47.416  47.879  1.00  0.00    -0.247 OA
HETATM    5  H   UNL     1      22.209  47.612  47.155  1.00  0.00     0.171 HD
HETATM    6  H   UNL     1      21.331  49.189  50.055  1.00  0.00     0.164 HD
ENDROOT
BRANCH   1   7
HETATM    7  C   UNL     1      23.369  47.921  48.796  1.00  0.00     0.070 A 
HETATM    8  C   UNL     1      23.832  46.956  49.700  1.00  0.00     0.040 A 
HETATM    9  C   UNL     1      25.134  47.025  50.237  1.00  0.00    -0.048 A 
HETATM   10  C   UNL     1      25.939  48.109  49.841  1.00  0.00     0.011 A 
HETATM   11  C   UNL     1      25.485  49.076  48.939  1.00  0.00     0.039 A 
HETATM   12  C   UNL     1      24.209  48.977  48.395  1.00  0.00     0.095 A 
BRANCH   9  13
HETATM   13  C   UNL     1      25.703  45.898  51.124  1.00  0.00    -0.024 C 
HETATM   14  C   UNL     1      26.849  45.216  50.347  1.00  0.00     0.019 C 
HETATM   15  C   UNL     1      24.645  44.830  51.481  1.00  0.00     0.019 C 
HETATM   16  C   UNL     1      26.269  46.422  52.464  1.00  0.00     0.019 C 
ENDBRANCH   9  13
BRANCH  12  17
HETATM   17  O   UNL     1      23.668  49.842  47.473  1.00  0.00    -0.354 OA
HETATM   18  C   UNL     1      23.216  51.103  47.956  1.00  0.00     0.210 C 
ENDBRANCH  12  17
ENDBRANCH   1   7
BRANCH   3  19
HETATM   19  C   UNL     1      19.228  48.802  50.183  1.00  0.00     0.166 C 
BRANCH  19  20
HETATM   20  C   UNL     1      18.514  49.992  49.571  1.00  0.00     0.003 A 
HETATM   21  C   UNL     1      17.553  49.872  48.548  1.00  0.00     0.106 A 
HETATM   22  N   UNL     1      16.949  50.982  48.098  1.00  0.00    -0.352 N 
HETATM   23  H   UNL     1      16.236  50.856  47.389  1.00  0.00     0.166 HD
HETATM   24  C   UNL     1      17.191  52.210  48.567  1.00  0.00     0.089 A 
HETATM   25  C   UNL     1      18.116  52.393  49.577  1.00  0.00     0.018 A 
HETATM   26  C   UNL     1      18.789  51.280  50.071  1.00  0.00     0.014 A 
BRANCH  21  27
HETATM   27  N   UNL     1      17.043  48.682  48.091  1.00  0.00    -0.385 N 
HETATM   28  H   UNL     1      17.181  48.477  47.091  1.00  0.00     0.157 HD
HETATM   29  H   UNL     1      16.164  48.303  48.412  1.00  0.00     0.157 HD
ENDBRANCH  21  27
ENDBRANCH  19  20
ENDBRANCH   3  19
TORSDOF 6
ENDMDL
MODEL 8
REMARK VINA RESULT:      -7.0      4.550      7.630
REMARK  6 active torsions:
REMARK  status: ('A' for Active; 'I' for Inactive)
REMARK    1  A    between atoms: C_2  and  C_3 
REMARK    2  A    between atoms: C_5  and  N_6 
REMARK       I    between atoms: N_6  and  C_7 
REMARK       I    between atoms: C_7  and  N_8 
REMARK    3  A    between atoms: N_8  and  C_9 
REMARK    4  A    between atoms: C_9  and  C_10 
REMARK    5  A    between atoms: C_11  and  N_12 
REMARK    6  A    between atoms: C_19  and  O_20 
ROOT
HETATM    1  N   UNL     1      23.976  49.400  48.890  1.00  0.00    -0.306 N 
HETATM    2  C   UNL     1      23.030  50.343  49.099  1.00  0.00     0.321 C 
HETATM    3  N   UNL     1      22.184  50.175  50.150  1.00  0.00    -0.338 N 
HETATM    4  O   UNL     1      23.060  51.387  48.451  1.00  0.00    -0.247 OA
HETATM    5  H   UNL     1      24.776  49.739  48.366  1.00  0.00     0.171 HD
HETATM    6  H   UNL     1      22.398  49.428  50.798  1.00  0.00     0.164 HD
ENDROOT
BRANCH   1   7
HETATM    7  C   UNL     1      24.034  48.021  49.160  1.00  0.00     0.070 A 
HETATM    8  C   UNL     1      24.898  47.460  50.110  1.00  0.00     0.040 A 
HETATM    9  C   UNL     1      24.835  46.089  50.433  1.00  0.00    -0.048 A 
HETATM   10  C   UNL     1      23.882  45.308  49.753  1.00  0.00     0.011 A 
HETATM   11  C   UNL     1      23.015  45.860  48.804  1.00  0.00     0.039 A 
HETATM   12  C   UNL     1      23.070  47.219  48.518  1.00  0.00     0.095 A 
BRANCH   9  13
HETATM   13  C   UNL     1      25.683  45.487  51.572  1.00  0.00    -0.024 C 
HETATM   14  C   UNL     1      26.101  46.636  52.512  1.00  0.00     0.019 C 
HETATM   15  C   UNL     1      26.959  44.784  51.057  1.00  0.00     0.019 C 
HETATM   16  C   UNL     1      24.908  44.437  52.402  1.00  0.00     0.019 C 
ENDBRANCH   9  13
BRANCH  12  17
HETATM   17  O   UNL     1      22.248  47.881  47.637  1.00  0.00    -0.354 OA
HETATM   18  C   UNL     1      20.848  47.658  47.766  1.00  0.00     0.210 C 
ENDBRANCH  12  17
ENDBRANCH   1   7
BRANCH   3  19
HETATM   19  C   UNL     1      21.199  51.179  50.511  1.00  0.00     0.166 C 
BRANCH  19  20
HETATM   20  C   UNL     1      19.886  51.050  49.762  1.00  0.00     0.003 A 
HETATM   21  C   UNL     1      18.928  50.058  50.051  1.00  0.00     0.106 A 
HETATM   22  N   UNL     1      17.780  50.049  49.357  1.00  0.00    -0.352 N 
HETATM   23  H   UNL     1      17.098  49.346  49.617  1.00  0.00     0.166 HD
HETATM   24  C   UNL     1      17.473  50.935  48.405  1.00  0.00     0.089 A 
HETATM   25  C   UNL     1      18.366  51.939  48.082  1.00  0.00     0.018 A 
HETATM   26  C   UNL     1      19.583  51.986  48.755  1.00  0.00     0.014 A 
BRANCH  21  27
HETATM   27  N   UNL     1      18.992  49.198  51.120  1.00  0.00    -0.385 N 
HETATM   28  H   UNL     1      19.171  48.207  50.902  1.00  0.00     0.157 HD
HETATM   29  H   UNL     1      18.390  49.280  51.926  1.00  0.00     0.157 HD
ENDBRANCH  21  27
ENDBRANCH  19  20
ENDBRANCH   3  19
TORSDOF 6
ENDMDL
MODEL 9
REMARK VINA RESULT:      -7.0      2.553      7.469
REMARK  6 active torsions:
REMARK  status: ('A' for Active; 'I' for Inactive)
REMARK    1  A    between atoms: C_2  and  C_3 
REMARK    2  A    between atoms: C_5  and  N_6 
REMARK       I    between atoms: N_6  and  C_7 
REMARK       I    between atoms: C_7  and  N_8 
REMARK    3  A    between atoms: N_8  and  C_9 
REMARK    4  A    between atoms: C_9  and  C_10 
REMARK    5  A    between atoms: C_11  and  N_12 
REMARK    6  A    between atoms: C_19  and  O_20 
ROOT
HETATM    1  N   UNL     1      26.138  43.878  53.620  1.00  0.00    -0.306 N 
HETATM    2  C   UNL     1      27.342  43.328  53.895  1.00  0.00     0.321 C 
HETATM    3  N   UNL     1      28.456  44.018  53.532  1.00  0.00    -0.338 N 
HETATM    4  O   UNL     1      27.403  42.321  54.598  1.00  0.00    -0.247 OA
HETATM    5  H   UNL     1      25.391  43.535  54.215  1.00  0.00     0.171 HD
HETATM    6  H   UNL     1      28.323  44.965  53.203  1.00  0.00     0.164 HD
ENDROOT
BRANCH   1   7
HETATM    7  C   UNL     1      25.687  44.749  52.612  1.00  0.00     0.070 A 
HETATM    8  C   UNL     1      24.982  44.316  51.481  1.00  0.00     0.040 A 
HETATM    9  C   UNL     1      24.445  45.238  50.559  1.00  0.00    -0.048 A 
HETATM   10  C   UNL     1      24.659  46.605  50.815  1.00  0.00     0.011 A 
HETATM   11  C   UNL     1      25.360  47.046  51.942  1.00  0.00     0.039 A 
HETATM   12  C   UNL     1      25.858  46.125  52.856  1.00  0.00     0.095 A 
BRANCH   9  13
HETATM   13  C   UNL     1      23.552  44.782  49.387  1.00  0.00    -0.024 C 
HETATM   14  C   UNL     1      22.957  46.042  48.725  1.00  0.00     0.019 C 
HETATM   15  C   UNL     1      22.390  43.870  49.843  1.00  0.00     0.019 C 
HETATM   16  C   UNL     1      24.335  43.992  48.313  1.00  0.00     0.019 C 
ENDBRANCH   9  13
BRANCH  12  17
HETATM   17  O   UNL     1      26.527  46.437  54.016  1.00  0.00    -0.354 OA
HETATM   18  C   UNL     1      26.154  47.643  54.674  1.00  0.00     0.210 C 
ENDBRANCH  12  17
ENDBRANCH   1   7
BRANCH   3  19
HETATM   19  C   UNL     1      29.790  43.555  53.869  1.00  0.00     0.166 C 
BRANCH  19  20
HETATM   20  C   UNL     1      30.255  43.970  55.252  1.00  0.00     0.003 A 
HETATM   21  C   UNL     1      29.979  45.234  55.810  1.00  0.00     0.106 A 
HETATM   22  N   UNL     1      30.403  45.494  57.056  1.00  0.00    -0.352 N 
HETATM   23  H   UNL     1      30.155  46.399  57.441  1.00  0.00     0.166 HD
HETATM   24  C   UNL     1      31.067  44.621  57.820  1.00  0.00     0.089 A 
HETATM   25  C   UNL     1      31.359  43.361  57.333  1.00  0.00     0.018 A 
HETATM   26  C   UNL     1      30.963  43.041  56.038  1.00  0.00     0.014 A 
BRANCH  21  27
HETATM   27  N   UNL     1      29.147  46.172  55.249  1.00  0.00    -0.385 N 
HETATM   28  H   UNL     1      28.230  45.835  54.923  1.00  0.00     0.157 HD
HETATM   29  H   UNL     1      29.482  46.917  54.657  1.00  0.00     0.157 HD
ENDBRANCH  21  27
ENDBRANCH  19  20
ENDBRANCH   3  19
TORSDOF 6
ENDMDL
MODEL 10
REMARK VINA RESULT:      -7.0      2.602      7.199
REMARK  6 active torsions:
REMARK  status: ('A' for Active; 'I' for Inactive)
REMARK    1  A    between atoms: C_2  and  C_3 
REMARK    2  A    between atoms: C_5  and  N_6 
REMARK       I    between atoms: N_6  and  C_7 
REMARK       I    between atoms: C_7  and  N_8 
REMARK    3  A    between atoms: N_8  and  C_9 
REMARK    4  A    between atoms: C_9  and  C_10 
REMARK    5  A    between atoms: C_11  and  N_12 
REMARK    6  A    between atoms: C_19  and  O_20 
ROOT
HETATM    1  N   UNL     1      25.409  43.522  52.945  1.00  0.00    -0.306 N 
HETATM    2  C   UNL     1      26.019  44.082  54.013  1.00  0.00     0.321 C 
HETATM    3  N   UNL     1      27.034  44.958  53.781  1.00  0.00    -0.338 N 
HETATM    4  O   UNL     1      25.548  43.919  55.136  1.00  0.00    -0.247 OA
HETATM    5  H   UNL     1      24.468  43.197  53.142  1.00  0.00     0.171 HD
HETATM    6  H   UNL     1      27.181  45.247  52.823  1.00  0.00     0.164 HD
ENDROOT
BRANCH   1   7
HETATM    7  C   UNL     1      25.844  43.205  51.646  1.00  0.00     0.070 A 
HETATM    8  C   UNL     1      26.605  42.067  51.347  1.00  0.00     0.040 A 
HETATM    9  C   UNL     1      26.916  41.726  50.014  1.00  0.00    -0.048 A 
HETATM   10  C   UNL     1      26.443  42.582  49.002  1.00  0.00     0.011 A 
HETATM   11  C   UNL     1      25.681  43.719  49.292  1.00  0.00     0.039 A 
HETATM   12  C   UNL     1      25.360  44.025  50.609  1.00  0.00     0.095 A 
BRANCH   9  13
HETATM   13  C   UNL     1      27.633  40.406  49.664  1.00  0.00    -0.024 C 
HETATM   14  C   UNL     1      28.620  40.084  50.804  1.00  0.00     0.019 C 
HETATM   15  C   UNL     1      28.423  40.493  48.338  1.00  0.00     0.019 C 
HETATM   16  C   UNL     1      26.656  39.217  49.516  1.00  0.00     0.019 C 
ENDBRANCH   9  13
BRANCH  12  17
HETATM   17  O   UNL     1      24.589  45.089  51.013  1.00  0.00    -0.354 OA
HETATM   18  C   UNL     1      25.016  46.387  50.612  1.00  0.00     0.210 C 
ENDBRANCH  12  17
ENDBRANCH   1   7
BRANCH   3  19
HETATM   19  C   UNL     1      27.686  45.680  54.859  1.00  0.00     0.166 C 
BRANCH  19  20
HETATM   20  C   UNL     1      28.956  45.020  55.362  1.00  0.00     0.003 A 
HETATM   21  C   UNL     1      29.589  45.385  56.567  1.00  0.00     0.106 A 
HETATM   22  N   UNL     1      30.689  44.716  56.944  1.00  0.00    -0.352 N 
HETATM   23  H   UNL     1      31.097  44.978  57.835  1.00  0.00     0.166 HD
HETATM   24  C   UNL     1      31.226  43.706  56.254  1.00  0.00     0.089 A 
HETATM   25  C   UNL     1      30.646  43.295  55.069  1.00  0.00     0.018 A 
HETATM   26  C   UNL     1      29.514  43.965  54.616  1.00  0.00     0.014 A 
BRANCH  21  27
HETATM   27  N   UNL     1      29.068  46.257  57.490  1.00  0.00    -0.385 N 
HETATM   28  H   UNL     1      29.153  47.261  57.274  1.00  0.00     0.157 HD
HETATM   29  H   UNL     1      29.131  46.103  58.486  1.00  0.00     0.157 HD
ENDBRANCH  21  27
ENDBRANCH  19  20
ENDBRANCH   3  19
TORSDOF 6
ENDMDL
