MODEL 1
REMARK VINA RESULT:      -8.6      0.000      0.000
REMARK  6 active torsions:
REMARK  status: ('A' for Active; 'I' for Inactive)
REMARK    1  A    between atoms: C_5  and  N_6 
REMARK    2  A    between atoms: N_6  and  C_7 
REMARK    3  A    between atoms: C_7  and  C_8 
REMARK    4  A    between atoms: N_10  and  C_12 
REMARK    5  A    between atoms: C_12  and  C_13 
REMARK    6  A    between atoms: C_14  and  O_15 
ROOT
HETATM    1  C   UNL     1      26.281  45.764  54.197  1.00  0.00     0.031 C 
HETATM    2  C   UNL     1      26.113  46.882  53.167  1.00  0.00     0.241 C 
HETATM    3  N   UNL     1      25.465  46.233  51.972  1.00  0.00    -0.067 N 
HETATM    4  H   UNL     1      24.628  46.792  51.717  1.00  0.00     0.280 HD
HETATM    5  C   UNL     1      24.977  44.865  52.371  1.00  0.00     0.235 C 
HETATM    6  C   UNL     1      25.079  44.869  53.890  1.00  0.00     0.035 C 
ENDROOT
BRANCH   1   7
HETATM    7  C   UNL     1      27.618  45.009  54.080  1.00  0.00     0.127 C 
BRANCH   7   8
HETATM    8  N   UNL     1      28.705  45.798  54.647  1.00  0.00    -0.376 N 
HETATM    9  H   UNL     1      29.400  46.063  53.940  1.00  0.00     0.161 HD
BRANCH   8  10
HETATM   10  C   UNL     1      29.373  45.515  55.839  1.00  0.00     0.101 A 
HETATM   11  N   UNL     1      30.338  44.586  55.949  1.00  0.00    -0.347 N 
HETATM   12  C   UNL     1      30.976  44.305  57.105  1.00  0.00     0.007 A 
HETATM   13  H   UNL     1      30.618  44.073  55.124  1.00  0.00     0.167 HD
HETATM   14  C   UNL     1      32.068  43.283  57.102  1.00  0.00     0.068 C 
HETATM   15  C   UNL     1      30.614  44.980  58.269  1.00  0.00     0.025 A 
HETATM   16  C   UNL     1      29.601  45.924  58.220  1.00  0.00     0.006 A 
HETATM   17  C   UNL     1      28.977  46.188  57.005  1.00  0.00     0.048 A 
ENDBRANCH   8  10
ENDBRANCH   7   8
ENDBRANCH   1   7
BRANCH   3  18
HETATM   18  C   UNL     1      26.282  46.279  50.704  1.00  0.00     0.276 C 
BRANCH  18  19
HETATM   19  C   UNL     1      26.042  47.510  49.876  1.00  0.00     0.002 A 
HETATM   20  C   UNL     1      24.740  47.924  49.562  1.00  0.00     0.091 A 
HETATM   21  C   UNL     1      24.514  49.097  48.836  1.00  0.00     0.044 A 
HETATM   22 BR   UNL     1      22.753  49.647  48.417  1.00  0.00    -0.048 Br
HETATM   23  C   UNL     1      25.591  49.869  48.411  1.00  0.00     0.022 A 
HETATM   24  C   UNL     1      26.892  49.470  48.716  1.00  0.00     0.002 A 
HETATM   25  C   UNL     1      27.119  48.300  49.448  1.00  0.00     0.012 A 
BRANCH  20  26
HETATM   26  O   UNL     1      23.701  47.125  49.979  1.00  0.00    -0.359 OA
HETATM   27  H   UNL     1      22.876  47.595  49.720  1.00  0.00     0.218 HD
ENDBRANCH  20  26
ENDBRANCH  18  19
ENDBRANCH   3  18
TORSDOF 6
ENDMDL
MODEL 2
REMARK VINA RESULT:      -8.5      1.844      2.985
REMARK  6 active torsions:
REMARK  status: ('A' for Active; 'I' for Inactive)
REMARK    1  A    between atoms: C_5  and  N_6 
REMARK    2  A    between atoms: N_6  and  C_7 
REMARK    3  A    between atoms: C_7  and  C_8 
REMARK    4  A    between atoms: N_10  and  C_12 
REMARK    5  A    between atoms: C_12  and  C_13 
REMARK    6  A    between atoms: C_14  and  O_15 
ROOT
HETATM    1  C   UNL     1      25.228  43.159  50.996  1.00  0.00     0.031 C 
HETATM    2  C   UNL     1      24.539  44.404  51.560  1.00  0.00     0.241 C 
HETATM    3  N   UNL     1      24.758  45.484  50.532  1.00  0.00    -0.067 N 
HETATM    4  H   UNL     1      23.835  45.903  50.306  1.00  0.00     0.280 HD
HETATM    5  C   UNL     1      25.278  44.849  49.269  1.00  0.00     0.235 C 
HETATM    6  C   UNL     1      25.056  43.360  49.490  1.00  0.00     0.035 C 
ENDROOT
BRANCH   1   7
HETATM    7  C   UNL     1      26.706  43.030  51.405  1.00  0.00     0.127 C 
BRANCH   7   8
HETATM    8  N   UNL     1      26.825  42.804  52.841  1.00  0.00    -0.376 N 
HETATM    9  H   UNL     1      25.920  42.879  53.320  1.00  0.00     0.161 HD
BRANCH   8  10
HETATM   10  C   UNL     1      27.807  43.350  53.668  1.00  0.00     0.101 A 
HETATM   11  N   UNL     1      27.803  44.627  54.087  1.00  0.00    -0.347 N 
HETATM   12  C   UNL     1      28.760  45.157  54.877  1.00  0.00     0.007 A 
HETATM   13  H   UNL     1      27.038  45.228  53.813  1.00  0.00     0.167 HD
HETATM   14  C   UNL     1      28.630  46.579  55.323  1.00  0.00     0.068 C 
HETATM   15  C   UNL     1      29.839  44.367  55.271  1.00  0.00     0.025 A 
HETATM   16  C   UNL     1      29.912  43.053  54.838  1.00  0.00     0.006 A 
HETATM   17  C   UNL     1      28.898  42.546  54.033  1.00  0.00     0.048 A 
ENDBRANCH   8  10
ENDBRANCH   7   8
ENDBRANCH   1   7
BRANCH   3  18
HETATM   18  C   UNL     1      25.541  46.676  51.023  1.00  0.00     0.276 C 
BRANCH  18  19
HETATM   19  C   UNL     1      25.653  47.782  50.013  1.00  0.00     0.002 A 
HETATM   20  C   UNL     1      24.508  48.390  49.480  1.00  0.00     0.091 A 
HETATM   21  C   UNL     1      24.612  49.454  48.579  1.00  0.00     0.044 A 
HETATM   22 BR   UNL     1      23.060  50.269  47.867  1.00  0.00    -0.048 Br
HETATM   23  C   UNL     1      25.867  49.920  48.196  1.00  0.00     0.022 A 
HETATM   24  C   UNL     1      27.015  49.325  48.717  1.00  0.00     0.002 A 
HETATM   25  C   UNL     1      26.912  48.265  49.624  1.00  0.00     0.012 A 
BRANCH  20  26
HETATM   26  O   UNL     1      23.286  47.890  49.864  1.00  0.00    -0.359 OA
HETATM   27  H   UNL     1      23.423  47.492  50.753  1.00  0.00     0.218 HD
ENDBRANCH  20  26
ENDBRANCH  18  19
ENDBRANCH   3  18
TORSDOF 6
ENDMDL
MODEL 3
REMARK VINA RESULT:      -8.4      3.758      8.071
REMARK  6 active torsions:
REMARK  status: ('A' for Active; 'I' for Inactive)
REMARK    1  A    between atoms: C_5  and  N_6 
REMARK    2  A    between atoms: N_6  and  C_7 
REMARK    3  A    between atoms: C_7  and  C_8 
REMARK    4  A    between atoms: N_10  and  C_12 
REMARK    5  A    between atoms: C_12  and  C_13 
REMARK    6  A    between atoms: C_14  and  O_15 
ROOT
HETATM    1  C   UNL     1      26.378  44.525  49.645  1.00  0.00     0.031 C 
HETATM    2  C   UNL     1      27.272  44.631  50.881  1.00  0.00     0.241 C 
HETATM    3  N   UNL     1      26.826  43.519  51.795  1.00  0.00    -0.067 N 
HETATM    4  H   UNL     1      27.665  42.971  52.067  1.00  0.00     0.280 HD
HETATM    5  C   UNL     1      25.924  42.592  51.022  1.00  0.00     0.235 C 
HETATM    6  C   UNL     1      26.113  43.020  49.574  1.00  0.00     0.035 C 
ENDROOT
BRANCH   1   7
HETATM    7  C   UNL     1      25.078  45.344  49.748  1.00  0.00     0.127 C 
BRANCH   7   8
HETATM    8  N   UNL     1      25.334  46.638  50.370  1.00  0.00    -0.376 N 
HETATM    9  H   UNL     1      24.662  46.847  51.117  1.00  0.00     0.161 HD
BRANCH   8  10
HETATM   10  C   UNL     1      25.617  47.821  49.688  1.00  0.00     0.101 A 
HETATM   11  N   UNL     1      24.679  48.588  49.105  1.00  0.00    -0.347 N 
HETATM   12  C   UNL     1      24.955  49.727  48.435  1.00  0.00     0.007 A 
HETATM   13  H   UNL     1      23.709  48.313  49.179  1.00  0.00     0.167 HD
HETATM   14  C   UNL     1      23.827  50.527  47.866  1.00  0.00     0.068 C 
HETATM   15  C   UNL     1      26.280  50.138  48.300  1.00  0.00     0.025 A 
HETATM   16  C   UNL     1      27.290  49.366  48.851  1.00  0.00     0.006 A 
HETATM   17  C   UNL     1      26.959  48.205  49.541  1.00  0.00     0.048 A 
ENDBRANCH   8  10
ENDBRANCH   7   8
ENDBRANCH   1   7
BRANCH   3  18
HETATM   18  C   UNL     1      26.291  43.972  53.131  1.00  0.00     0.276 C 
BRANCH  18  19
HETATM   19  C   UNL     1      27.319  44.642  53.997  1.00  0.00     0.002 A 
HETATM   20  C   UNL     1      28.426  43.933  54.482  1.00  0.00     0.091 A 
HETATM   21  C   UNL     1      29.410  44.568  55.245  1.00  0.00     0.044 A 
HETATM   22 BR   UNL     1      30.901  43.601  55.893  1.00  0.00    -0.048 Br
HETATM   23  C   UNL     1      29.295  45.925  55.535  1.00  0.00     0.022 A 
HETATM   24  C   UNL     1      28.200  46.644  55.060  1.00  0.00     0.002 A 
HETATM   25  C   UNL     1      27.218  46.011  54.291  1.00  0.00     0.012 A 
BRANCH  20  26
HETATM   26  O   UNL     1      28.496  42.590  54.193  1.00  0.00    -0.359 OA
HETATM   27  H   UNL     1      27.636  42.357  53.776  1.00  0.00     0.218 HD
ENDBRANCH  20  26
ENDBRANCH  18  19
ENDBRANCH   3  18
TORSDOF 6
ENDMDL
MODEL 4
REMARK VINA RESULT:      -8.1      3.711      8.506
REMARK  6 active torsions:
REMARK  status: ('A' for Active; 'I' for Inactive)
REMARK    1  A    between atoms: C_5  and  N_6 
REMARK    2  A    between atoms: N_6  and  C_7 
REMARK    3  A    between atoms: C_7  and  C_8 
REMARK    4  A    between atoms: N_10  and  C_12 
REMARK    5  A    between atoms: C_12  and  C_13 
REMARK    6  A    between atoms: C_14  and  O_15 
ROOT
HETATM    1  C   UNL     1      25.201  45.320  49.392  1.00  0.00     0.031 C 
HETATM    2  C   UNL     1      26.227  45.710  50.458  1.00  0.00     0.241 C 
HETATM    3  N   UNL     1      26.114  44.656  51.529  1.00  0.00    -0.067 N 
HETATM    4  H   UNL     1      27.066  44.284  51.714  1.00  0.00     0.280 HD
HETATM    5  C   UNL     1      25.289  43.514  50.996  1.00  0.00     0.235 C 
HETATM    6  C   UNL     1      25.197  43.794  49.503  1.00  0.00     0.035 C 
ENDROOT
BRANCH   1   7
HETATM    7  C   UNL     1      23.806  45.927  49.623  1.00  0.00     0.127 C 
BRANCH   7   8
HETATM    8  N   UNL     1      23.914  47.243  50.242  1.00  0.00    -0.376 N 
HETATM    9  H   UNL     1      23.480  47.270  51.171  1.00  0.00     0.161 HD
BRANCH   8  10
HETATM   10  C   UNL     1      23.668  48.460  49.604  1.00  0.00     0.101 A 
HETATM   11  N   UNL     1      22.503  49.124  49.692  1.00  0.00    -0.347 N 
HETATM   12  C   UNL     1      22.262  50.295  49.065  1.00  0.00     0.007 A 
HETATM   13  H   UNL     1      21.765  48.741  50.267  1.00  0.00     0.167 HD
HETATM   14  C   UNL     1      20.944  50.972  49.271  1.00  0.00     0.068 C 
HETATM   15  C   UNL     1      23.247  50.854  48.253  1.00  0.00     0.025 A 
HETATM   16  C   UNL     1      24.455  50.192  48.099  1.00  0.00     0.006 A 
HETATM   17  C   UNL     1      24.664  48.993  48.771  1.00  0.00     0.048 A 
ENDBRANCH   8  10
ENDBRANCH   7   8
ENDBRANCH   1   7
BRANCH   3  18
HETATM   18  C   UNL     1      25.700  45.172  52.885  1.00  0.00     0.276 C 
BRANCH  18  19
HETATM   19  C   UNL     1      26.856  45.517  53.779  1.00  0.00     0.002 A 
HETATM   20  C   UNL     1      27.847  44.570  54.073  1.00  0.00     0.091 A 
HETATM   21  C   UNL     1      28.951  44.905  54.863  1.00  0.00     0.044 A 
HETATM   22 BR   UNL     1      30.283  43.620  55.254  1.00  0.00    -0.048 Br
HETATM   23  C   UNL     1      29.074  46.195  55.371  1.00  0.00     0.022 A 
HETATM   24  C   UNL     1      28.097  47.148  55.087  1.00  0.00     0.002 A 
HETATM   25  C   UNL     1      26.996  46.815  54.291  1.00  0.00     0.012 A 
BRANCH  20  26
HETATM   26  O   UNL     1      27.682  43.300  53.572  1.00  0.00    -0.359 OA
HETATM   27  H   UNL     1      26.721  43.207  53.380  1.00  0.00     0.218 HD
ENDBRANCH  20  26
ENDBRANCH  18  19
ENDBRANCH   3  18
TORSDOF 6
ENDMDL
MODEL 5
REMARK VINA RESULT:      -7.9      3.733      8.767
REMARK  6 active torsions:
REMARK  status: ('A' for Active; 'I' for Inactive)
REMARK    1  A    between atoms: C_5  and  N_6 
REMARK    2  A    between atoms: N_6  and  C_7 
REMARK    3  A    between atoms: C_7  and  C_8 
REMARK    4  A    between atoms: N_10  and  C_12 
REMARK    5  A    between atoms: C_12  and  C_13 
REMARK    6  A    between atoms: C_14  and  O_15 
ROOT
HETATM    1  C   UNL     1      25.741  45.781  50.085  1.00  0.00     0.031 C 
HETATM    2  C   UNL     1      26.825  45.039  50.869  1.00  0.00     0.241 C 
HETATM    3  N   UNL     1      26.099  43.976  51.651  1.00  0.00    -0.067 N 
HETATM    4  H   UNL     1      26.563  43.066  51.462  1.00  0.00     0.280 HD
HETATM    5  C   UNL     1      24.690  43.871  51.128  1.00  0.00     0.235 C 
HETATM    6  C   UNL     1      24.719  44.671  49.834  1.00  0.00     0.035 C 
ENDROOT
BRANCH   1   7
HETATM    7  C   UNL     1      25.134  46.975  50.844  1.00  0.00     0.127 C 
BRANCH   7   8
HETATM    8  N   UNL     1      23.856  47.361  50.256  1.00  0.00    -0.376 N 
HETATM    9  H   UNL     1      23.431  46.596  49.720  1.00  0.00     0.161 HD
BRANCH   8  10
HETATM   10  C   UNL     1      23.603  48.561  49.590  1.00  0.00     0.101 A 
HETATM   11  N   UNL     1      22.435  49.221  49.663  1.00  0.00    -0.347 N 
HETATM   12  C   UNL     1      22.186  50.375  49.008  1.00  0.00     0.007 A 
HETATM   13  H   UNL     1      21.700  48.849  50.249  1.00  0.00     0.167 HD
HETATM   14  C   UNL     1      20.865  51.050  49.200  1.00  0.00     0.068 C 
HETATM   15  C   UNL     1      23.168  50.919  48.181  1.00  0.00     0.025 A 
HETATM   16  C   UNL     1      24.379  50.260  48.042  1.00  0.00     0.006 A 
HETATM   17  C   UNL     1      24.595  49.079  48.742  1.00  0.00     0.048 A 
ENDBRANCH   8  10
ENDBRANCH   7   8
ENDBRANCH   1   7
BRANCH   3  18
HETATM   18  C   UNL     1      26.222  44.095  53.150  1.00  0.00     0.276 C 
BRANCH  18  19
HETATM   19  C   UNL     1      27.618  43.878  53.660  1.00  0.00     0.002 A 
HETATM   20  C   UNL     1      28.171  44.726  54.630  1.00  0.00     0.091 A 
HETATM   21  C   UNL     1      29.451  44.494  55.142  1.00  0.00     0.044 A 
HETATM   22 BR   UNL     1      30.187  45.643  56.453  1.00  0.00    -0.048 Br
HETATM   23  C   UNL     1      30.196  43.411  54.685  1.00  0.00     0.022 A 
HETATM   24  C   UNL     1      29.660  42.559  53.720  1.00  0.00     0.002 A 
HETATM   25  C   UNL     1      28.377  42.786  53.212  1.00  0.00     0.012 A 
BRANCH  20  26
HETATM   26  O   UNL     1      27.415  45.797  55.043  1.00  0.00    -0.359 OA
HETATM   27  H   UNL     1      27.837  46.126  55.868  1.00  0.00     0.218 HD
ENDBRANCH  20  26
ENDBRANCH  18  19
ENDBRANCH   3  18
TORSDOF 6
ENDMDL
MODEL 6
REMARK VINA RESULT:      -7.7      2.091      3.290
REMARK  6 active torsions:
REMARK  status: ('A' for Active; 'I' for Inactive)
REMARK    1  A    between atoms: C_5  and  N_6 
REMARK    2  A    between atoms: N_6  and  C_7 
REMARK    3  A    between atoms: C_7  and  C_8 
REMARK    4  A    between atoms: N_10  and  C_12 
REMARK    5  A    between atoms: C_12  and  C_13 
REMARK    6  A    between atoms: C_14  and  O_15 
ROOT
HETATM    1  C   UNL     1      25.693  43.730  50.675  1.00  0.00     0.031 C 
HETATM    2  C   UNL     1      24.597  44.582  50.034  1.00  0.00     0.241 C 
HETATM    3  N   UNL     1      25.267  45.875  49.647  1.00  0.00    -0.067 N 
HETATM    4  H   UNL     1      25.057  46.059  48.647  1.00  0.00     0.280 HD
HETATM    5  C   UNL     1      26.759  45.697  49.761  1.00  0.00     0.235 C 
HETATM    6  C   UNL     1      26.937  44.193  49.916  1.00  0.00     0.035 C 
ENDROOT
BRANCH   1   7
HETATM    7  C   UNL     1      25.826  43.933  52.196  1.00  0.00     0.127 C 
BRANCH   7   8
HETATM    8  N   UNL     1      26.820  43.021  52.751  1.00  0.00    -0.376 N 
HETATM    9  H   UNL     1      26.394  42.161  53.115  1.00  0.00     0.161 HD
BRANCH   8  10
HETATM   10  C   UNL     1      27.869  43.385  53.595  1.00  0.00     0.101 A 
HETATM   11  N   UNL     1      27.940  44.568  54.228  1.00  0.00    -0.347 N 
HETATM   12  C   UNL     1      28.961  44.924  55.036  1.00  0.00     0.007 A 
HETATM   13  H   UNL     1      27.184  45.230  54.112  1.00  0.00     0.167 HD
HETATM   14  C   UNL     1      28.913  46.249  55.729  1.00  0.00     0.068 C 
HETATM   15  C   UNL     1      30.029  44.047  55.217  1.00  0.00     0.025 A 
HETATM   16  C   UNL     1      30.025  42.827  54.559  1.00  0.00     0.006 A 
HETATM   17  C   UNL     1      28.947  42.498  53.744  1.00  0.00     0.048 A 
ENDBRANCH   8  10
ENDBRANCH   7   8
ENDBRANCH   1   7
BRANCH   3  18
HETATM   18  C   UNL     1      24.713  47.103  50.324  1.00  0.00     0.276 C 
BRANCH  18  19
HETATM   19  C   UNL     1      24.132  48.108  49.370  1.00  0.00     0.002 A 
HETATM   20  C   UNL     1      22.808  47.996  48.924  1.00  0.00     0.091 A 
HETATM   21  C   UNL     1      22.251  48.959  48.077  1.00  0.00     0.044 A 
HETATM   22 BR   UNL     1      20.462  48.799  47.482  1.00  0.00    -0.048 Br
HETATM   23  C   UNL     1      23.016  50.045  47.663  1.00  0.00     0.022 A 
HETATM   24  C   UNL     1      24.334  50.170  48.098  1.00  0.00     0.002 A 
HETATM   25  C   UNL     1      24.890  49.211  48.951  1.00  0.00     0.012 A 
BRANCH  20  26
HETATM   26  O   UNL     1      22.089  46.899  49.337  1.00  0.00    -0.359 OA
HETATM   27  H   UNL     1      22.663  46.119  49.166  1.00  0.00     0.218 HD
ENDBRANCH  20  26
ENDBRANCH  18  19
ENDBRANCH   3  18
TORSDOF 6
ENDMDL
MODEL 7
REMARK VINA RESULT:      -7.5     12.393     13.545
REMARK  6 active torsions:
REMARK  status: ('A' for Active; 'I' for Inactive)
REMARK    1  A    between atoms: C_5  and  N_6 
REMARK    2  A    between atoms: N_6  and  C_7 
REMARK    3  A    between atoms: C_7  and  C_8 
REMARK    4  A    between atoms: N_10  and  C_12 
REMARK    5  A    between atoms: C_12  and  C_13 
REMARK    6  A    between atoms: C_14  and  O_15 
ROOT
HETATM    1  C   UNL     1      28.819  48.553  41.771  1.00  0.00     0.031 C 
HETATM    2  C   UNL     1      28.111  49.906  41.678  1.00  0.00     0.241 C 
HETATM    3  N   UNL     1      27.421  49.906  40.339  1.00  0.00    -0.067 N 
HETATM    4  H   UNL     1      26.424  50.155  40.492  1.00  0.00     0.280 HD
HETATM    5  C   UNL     1      27.446  48.506  39.783  1.00  0.00     0.235 C 
HETATM    6  C   UNL     1      27.884  47.651  40.964  1.00  0.00     0.035 C 
ENDROOT
BRANCH   1   7
HETATM    7  C   UNL     1      30.252  48.563  41.209  1.00  0.00     0.127 C 
BRANCH   7   8
HETATM    8  N   UNL     1      31.229  48.575  42.292  1.00  0.00    -0.376 N 
HETATM    9  H   UNL     1      30.804  48.349  43.198  1.00  0.00     0.161 HD
BRANCH   8  10
HETATM   10  C   UNL     1      32.202  49.555  42.493  1.00  0.00     0.101 A 
HETATM   11  N   UNL     1      33.411  49.536  41.907  1.00  0.00    -0.347 N 
HETATM   12  C   UNL     1      34.356  50.478  42.111  1.00  0.00     0.007 A 
HETATM   13  H   UNL     1      33.631  48.786  41.265  1.00  0.00     0.167 HD
HETATM   14  C   UNL     1      35.651  50.382  41.369  1.00  0.00     0.068 C 
HETATM   15  C   UNL     1      34.100  51.524  42.996  1.00  0.00     0.025 A 
HETATM   16  C   UNL     1      32.881  51.574  43.654  1.00  0.00     0.006 A 
HETATM   17  C   UNL     1      31.934  50.587  43.406  1.00  0.00     0.048 A 
ENDBRANCH   8  10
ENDBRANCH   7   8
ENDBRANCH   1   7
BRANCH   3  18
HETATM   18  C   UNL     1      27.881  50.984  39.389  1.00  0.00     0.276 C 
BRANCH  18  19
HETATM   19  C   UNL     1      29.161  51.649  39.806  1.00  0.00     0.002 A 
HETATM   20  C   UNL     1      30.375  51.336  39.179  1.00  0.00     0.091 A 
HETATM   21  C   UNL     1      31.558  51.993  39.531  1.00  0.00     0.044 A 
HETATM   22 BR   UNL     1      33.190  51.563  38.676  1.00  0.00    -0.048 Br
HETATM   23  C   UNL     1      31.540  52.970  40.521  1.00  0.00     0.022 A 
HETATM   24  C   UNL     1      30.341  53.293  41.155  1.00  0.00     0.002 A 
HETATM   25  C   UNL     1      29.156  52.642  40.798  1.00  0.00     0.012 A 
BRANCH  20  26
HETATM   26  O   UNL     1      30.358  50.350  38.220  1.00  0.00    -0.359 OA
HETATM   27  H   UNL     1      29.447  50.350  37.847  1.00  0.00     0.218 HD
ENDBRANCH  20  26
ENDBRANCH  18  19
ENDBRANCH   3  18
TORSDOF 6
ENDMDL
MODEL 8
REMARK VINA RESULT:      -7.5     12.460     14.359
REMARK  6 active torsions:
REMARK  status: ('A' for Active; 'I' for Inactive)
REMARK    1  A    between atoms: C_5  and  N_6 
REMARK    2  A    between atoms: N_6  and  C_7 
REMARK    3  A    between atoms: C_7  and  C_8 
REMARK    4  A    between atoms: N_10  and  C_12 
REMARK    5  A    between atoms: C_12  and  C_13 
REMARK    6  A    between atoms: C_14  and  O_15 
ROOT
HETATM    1  C   UNL     1      29.377  52.588  38.905  1.00  0.00     0.031 C 
HETATM    2  C   UNL     1      28.098  51.752  38.835  1.00  0.00     0.241 C 
HETATM    3  N   UNL     1      27.638  51.602  40.262  1.00  0.00    -0.067 N 
HETATM    4  H   UNL     1      26.641  51.892  40.309  1.00  0.00     0.280 HD
HETATM    5  C   UNL     1      28.418  52.560  41.123  1.00  0.00     0.235 C 
HETATM    6  C   UNL     1      29.107  53.475  40.122  1.00  0.00     0.035 C 
ENDROOT
BRANCH   1   7
HETATM    7  C   UNL     1      30.658  51.749  39.065  1.00  0.00     0.127 C 
BRANCH   7   8
HETATM    8  N   UNL     1      31.709  52.532  39.704  1.00  0.00    -0.376 N 
HETATM    9  H   UNL     1      32.288  53.032  39.020  1.00  0.00     0.161 HD
BRANCH   8  10
HETATM   10  C   UNL     1      32.533  52.089  40.739  1.00  0.00     0.101 A 
HETATM   11  N   UNL     1      32.184  52.125  42.036  1.00  0.00    -0.347 N 
HETATM   12  C   UNL     1      32.987  51.707  43.038  1.00  0.00     0.007 A 
HETATM   13  H   UNL     1      31.267  52.470  42.286  1.00  0.00     0.167 HD
HETATM   14  C   UNL     1      32.477  51.749  44.444  1.00  0.00     0.068 C 
HETATM   15  C   UNL     1      34.263  51.233  42.741  1.00  0.00     0.025 A 
HETATM   16  C   UNL     1      34.688  51.207  41.422  1.00  0.00     0.006 A 
HETATM   17  C   UNL     1      33.824  51.639  40.422  1.00  0.00     0.048 A 
ENDBRANCH   8  10
ENDBRANCH   7   8
ENDBRANCH   1   7
BRANCH   3  18
HETATM   18  C   UNL     1      27.585  50.181  40.765  1.00  0.00     0.276 C 
BRANCH  18  19
HETATM   19  C   UNL     1      28.676  49.306  40.217  1.00  0.00     0.002 A 
HETATM   20  C   UNL     1      29.888  49.149  40.903  1.00  0.00     0.091 A 
HETATM   21  C   UNL     1      30.883  48.295  40.420  1.00  0.00     0.044 A 
HETATM   22 BR   UNL     1      32.515  48.091  41.355  1.00  0.00    -0.048 Br
HETATM   23  C   UNL     1      30.677  47.588  39.239  1.00  0.00     0.022 A 
HETATM   24  C   UNL     1      29.477  47.733  38.544  1.00  0.00     0.002 A 
HETATM   25  C   UNL     1      28.478  48.582  39.031  1.00  0.00     0.012 A 
BRANCH  20  26
HETATM   26  O   UNL     1      30.064  49.880  42.055  1.00  0.00    -0.359 OA
HETATM   27  H   UNL     1      29.962  49.243  42.798  1.00  0.00     0.218 HD
ENDBRANCH  20  26
ENDBRANCH  18  19
ENDBRANCH   3  18
TORSDOF 6
ENDMDL
MODEL 9
REMARK VINA RESULT:      -7.1     12.808     14.575
REMARK  6 active torsions:
REMARK  status: ('A' for Active; 'I' for Inactive)
REMARK    1  A    between atoms: C_5  and  N_6 
REMARK    2  A    between atoms: N_6  and  C_7 
REMARK    3  A    between atoms: C_7  and  C_8 
REMARK    4  A    between atoms: N_10  and  C_12 
REMARK    5  A    between atoms: C_12  and  C_13 
REMARK    6  A    between atoms: C_14  and  O_15 
ROOT
HETATM    1  C   UNL     1      26.630  49.872  38.855  1.00  0.00     0.031 C 
HETATM    2  C   UNL     1      27.414  48.563  38.741  1.00  0.00     0.241 C 
HETATM    3  N   UNL     1      26.698  47.588  39.639  1.00  0.00    -0.067 N 
HETATM    4  H   UNL     1      26.499  46.730  39.088  1.00  0.00     0.280 HD
HETATM    5  C   UNL     1      25.369  48.179  40.032  1.00  0.00     0.235 C 
HETATM    6  C   UNL     1      25.206  49.367  39.094  1.00  0.00     0.035 C 
ENDROOT
BRANCH   1   7
HETATM    7  C   UNL     1      27.123  50.793  39.985  1.00  0.00     0.127 C 
BRANCH   7   8
HETATM    8  N   UNL     1      27.850  51.934  39.439  1.00  0.00    -0.376 N 
HETATM    9  H   UNL     1      27.646  52.081  38.445  1.00  0.00     0.161 HD
BRANCH   8  10
HETATM   10  C   UNL     1      29.199  52.213  39.659  1.00  0.00     0.101 A 
HETATM   11  N   UNL     1      30.202  51.603  39.005  1.00  0.00    -0.347 N 
HETATM   12  C   UNL     1      31.507  51.866  39.227  1.00  0.00     0.007 A 
HETATM   13  H   UNL     1      29.977  50.918  38.296  1.00  0.00     0.167 HD
HETATM   14  C   UNL     1      32.540  51.160  38.406  1.00  0.00     0.068 C 
HETATM   15  C   UNL     1      31.863  52.795  40.203  1.00  0.00     0.025 A 
HETATM   16  C   UNL     1      30.869  53.428  40.932  1.00  0.00     0.006 A 
HETATM   17  C   UNL     1      29.537  53.134  40.663  1.00  0.00     0.048 A 
ENDBRANCH   8  10
ENDBRANCH   7   8
ENDBRANCH   1   7
BRANCH   3  18
HETATM   18  C   UNL     1      27.526  47.052  40.781  1.00  0.00     0.276 C 
BRANCH  18  19
HETATM   19  C   UNL     1      28.968  47.469  40.728  1.00  0.00     0.002 A 
HETATM   20  C   UNL     1      29.476  48.422  41.621  1.00  0.00     0.091 A 
HETATM   21  C   UNL     1      30.829  48.773  41.606  1.00  0.00     0.044 A 
HETATM   22 BR   UNL     1      31.504  50.060  42.817  1.00  0.00    -0.048 Br
HETATM   23  C   UNL     1      31.691  48.174  40.692  1.00  0.00     0.022 A 
HETATM   24  C   UNL     1      31.201  47.224  39.797  1.00  0.00     0.002 A 
HETATM   25  C   UNL     1      29.849  46.868  39.816  1.00  0.00     0.012 A 
BRANCH  20  26
HETATM   26  O   UNL     1      28.591  49.008  42.495  1.00  0.00    -0.359 OA
HETATM   27  H   UNL     1      29.106  49.210  43.309  1.00  0.00     0.218 HD
ENDBRANCH  20  26
ENDBRANCH  18  19
ENDBRANCH   3  18
TORSDOF 6
ENDMDL
MODEL 10
REMARK VINA RESULT:      -7.0     12.350     13.945
REMARK  6 active torsions:
REMARK  status: ('A' for Active; 'I' for Inactive)
REMARK    1  A    between atoms: C_5  and  N_6 
REMARK    2  A    between atoms: N_6  and  C_7 
REMARK    3  A    between atoms: C_7  and  C_8 
REMARK    4  A    between atoms: N_10  and  C_12 
REMARK    5  A    between atoms: C_12  and  C_13 
REMARK    6  A    between atoms: C_14  and  O_15 
ROOT
HETATM    1  C   UNL     1      29.245  52.814  38.932  1.00  0.00     0.031 C 
HETATM    2  C   UNL     1      28.048  52.134  38.266  1.00  0.00     0.241 C 
HETATM    3  N   UNL     1      27.396  51.315  39.351  1.00  0.00    -0.067 N 
HETATM    4  H   UNL     1      26.387  51.558  39.373  1.00  0.00     0.280 HD
HETATM    5  C   UNL     1      27.979  51.724  40.679  1.00  0.00     0.235 C 
HETATM    6  C   UNL     1      28.744  53.002  40.365  1.00  0.00     0.035 C 
ENDROOT
BRANCH   1   7
HETATM    7  C   UNL     1      30.542  51.987  38.870  1.00  0.00     0.127 C 
BRANCH   7   8
HETATM    8  N   UNL     1      31.436  52.350  39.963  1.00  0.00    -0.376 N 
HETATM    9  H   UNL     1      32.343  52.690  39.623  1.00  0.00     0.161 HD
BRANCH   8  10
HETATM   10  C   UNL     1      31.653  51.594  41.116  1.00  0.00     0.101 A 
HETATM   11  N   UNL     1      32.186  52.093  42.244  1.00  0.00    -0.347 N 
HETATM   12  C   UNL     1      32.406  51.358  43.354  1.00  0.00     0.007 A 
HETATM   13  H   UNL     1      32.426  53.075  42.278  1.00  0.00     0.167 HD
HETATM   14  C   UNL     1      32.962  52.029  44.571  1.00  0.00     0.068 C 
HETATM   15  C   UNL     1      32.100  49.999  43.349  1.00  0.00     0.025 A 
HETATM   16  C   UNL     1      31.581  49.425  42.200  1.00  0.00     0.006 A 
HETATM   17  C   UNL     1      31.362  50.222  41.082  1.00  0.00     0.048 A 
ENDBRANCH   8  10
ENDBRANCH   7   8
ENDBRANCH   1   7
BRANCH   3  18
HETATM   18  C   UNL     1      27.365  49.829  39.092  1.00  0.00     0.276 C 
BRANCH  18  19
HETATM   19  C   UNL     1      26.080  49.171  39.508  1.00  0.00     0.002 A 
HETATM   20  C   UNL     1      24.858  49.551  38.937  1.00  0.00     0.091 A 
HETATM   21  C   UNL     1      23.669  48.904  39.286  1.00  0.00     0.044 A 
HETATM   22 BR   UNL     1      22.025  49.424  38.508  1.00  0.00    -0.048 Br
HETATM   23  C   UNL     1      23.690  47.868  40.215  1.00  0.00     0.022 A 
HETATM   24  C   UNL     1      24.897  47.479  40.792  1.00  0.00     0.002 A 
HETATM   25  C   UNL     1      26.088  48.122  40.439  1.00  0.00     0.012 A 
BRANCH  20  26
HETATM   26  O   UNL     1      24.873  50.592  38.038  1.00  0.00    -0.359 OA
HETATM   27  H   UNL     1      24.079  51.136  38.240  1.00  0.00     0.218 HD
ENDBRANCH  20  26
ENDBRANCH  18  19
ENDBRANCH   3  18
TORSDOF 6
ENDMDL
