MODEL 1
REMARK VINA RESULT:      -9.8      0.000      0.000
REMARK  3 active torsions:
REMARK  status: ('A' for Active; 'I' for Inactive)
REMARK    1  A    between atoms: O_2  and  C_3 
REMARK    2  A    between atoms: C_7  and  C_8 
REMARK       I    between atoms: C_8  and  N_9 
REMARK    3  A    between atoms: C_15  and  C_16 
ROOT
HETATM    1  C   UNL     1      28.653  42.856  53.473  1.00  0.00     0.254 C 
HETATM    2  N   UNL     1      27.843  43.500  52.535  1.00  0.00    -0.342 N 
HETATM    3  C   UNL     1      27.254  44.841  52.794  1.00  0.00     0.187 C 
HETATM    4  C   UNL     1      26.669  45.390  51.538  1.00  0.00     0.077 A 
HETATM    5  C   UNL     1      26.488  44.667  50.387  1.00  0.00     0.039 A 
HETATM    6  N   UNL     1      25.914  45.518  49.495  1.00  0.00    -0.342 N 
HETATM    7  H   UNL     1      25.641  45.317  48.541  1.00  0.00     0.167 HD
HETATM    8  C   UNL     1      25.776  46.745  50.119  1.00  0.00     0.141 A 
HETATM    9  N   UNL     1      26.231  46.677  51.363  1.00  0.00    -0.231 NA
HETATM   10  C   UNL     1      26.886  43.258  50.198  1.00  0.00     0.079 C 
HETATM   11  C   UNL     1      27.113  42.621  51.588  1.00  0.00     0.132 C 
HETATM   12  O   UNL     1      28.844  41.641  53.486  1.00  0.00    -0.267 OA
ENDROOT
BRANCH   1  13
HETATM   13  C   UNL     1      29.325  43.644  54.525  1.00  0.00     0.037 A 
HETATM   14  C   UNL     1      30.571  43.268  55.020  1.00  0.00     0.036 A 
HETATM   15  C   UNL     1      31.105  44.034  56.038  1.00  0.00     0.120 A 
HETATM   16  N   UNL     1      30.482  45.102  56.584  1.00  0.00    -0.237 NA
HETATM   17  C   UNL     1      29.257  45.411  56.104  1.00  0.00     0.164 A 
HETATM   18  C   UNL     1      28.638  44.717  55.082  1.00  0.00     0.075 A 
BRANCH  17  19
HETATM   19  O   UNL     1      28.552  46.472  56.633  1.00  0.00    -0.339 OA
HETATM   20  C   UNL     1      27.724  47.127  55.678  1.00  0.00     0.211 C 
ENDBRANCH  17  19
ENDBRANCH   1  13
BRANCH   8  21
HETATM   21  C   UNL     1      25.219  47.933  49.465  1.00  0.00     0.049 A 
HETATM   22  C   UNL     1      26.026  48.893  48.836  1.00  0.00     0.133 A 
HETATM   23  F   UNL     1      27.362  48.747  48.814  1.00  0.00    -0.205 F 
HETATM   24  C   UNL     1      25.481  50.017  48.223  1.00  0.00     0.085 A 
HETATM   25  C   UNL     1      24.106  50.192  48.238  1.00  0.00     0.119 A 
HETATM   26  F   UNL     1      23.572  51.271  47.655  1.00  0.00    -0.206 F 
HETATM   27  C   UNL     1      23.273  49.263  48.852  1.00  0.00     0.043 A 
HETATM   28  C   UNL     1      23.829  48.134  49.461  1.00  0.00     0.021 A 
ENDBRANCH   8  21
TORSDOF 3
ENDMDL
MODEL 2
REMARK VINA RESULT:      -9.6      4.563      7.123
REMARK  3 active torsions:
REMARK  status: ('A' for Active; 'I' for Inactive)
REMARK    1  A    between atoms: O_2  and  C_3 
REMARK    2  A    between atoms: C_7  and  C_8 
REMARK       I    between atoms: C_8  and  N_9 
REMARK    3  A    between atoms: C_15  and  C_16 
ROOT
HETATM    1  C   UNL     1      25.633  47.956  49.581  1.00  0.00     0.254 C 
HETATM    2  N   UNL     1      24.523  48.707  49.186  1.00  0.00    -0.342 N 
HETATM    3  C   UNL     1      23.133  48.208  49.362  1.00  0.00     0.187 C 
HETATM    4  C   UNL     1      22.162  49.308  49.103  1.00  0.00     0.077 A 
HETATM    5  C   UNL     1      22.493  50.520  48.553  1.00  0.00     0.039 A 
HETATM    6  N   UNL     1      21.332  51.222  48.466  1.00  0.00    -0.342 N 
HETATM    7  H   UNL     1      21.205  52.159  48.104  1.00  0.00     0.167 HD
HETATM    8  C   UNL     1      20.324  50.428  48.983  1.00  0.00     0.141 A 
HETATM    9  N   UNL     1      20.819  49.260  49.372  1.00  0.00    -0.231 NA
HETATM   10  C   UNL     1      23.858  50.938  48.179  1.00  0.00     0.079 C 
HETATM   11  C   UNL     1      24.750  49.679  48.088  1.00  0.00     0.132 C 
HETATM   12  O   UNL     1      26.765  48.128  49.132  1.00  0.00    -0.267 OA
ENDROOT
BRANCH   1  13
HETATM   13  C   UNL     1      25.473  46.886  50.585  1.00  0.00     0.037 A 
HETATM   14  C   UNL     1      25.085  45.602  50.213  1.00  0.00     0.036 A 
HETATM   15  C   UNL     1      24.912  44.674  51.222  1.00  0.00     0.120 A 
HETATM   16  N   UNL     1      25.078  44.950  52.534  1.00  0.00    -0.237 NA
HETATM   17  C   UNL     1      25.417  46.218  52.859  1.00  0.00     0.164 A 
HETATM   18  C   UNL     1      25.624  47.217  51.928  1.00  0.00     0.075 A 
BRANCH  17  19
HETATM   19  O   UNL     1      25.577  46.576  54.182  1.00  0.00    -0.339 OA
HETATM   20  C   UNL     1      26.717  47.399  54.405  1.00  0.00     0.211 C 
ENDBRANCH  17  19
ENDBRANCH   1  13
BRANCH   8  21
HETATM   21  C   UNL     1      18.924  50.852  49.087  1.00  0.00     0.049 A 
HETATM   22  C   UNL     1      17.872  50.115  48.523  1.00  0.00     0.133 A 
HETATM   23  F   UNL     1      18.122  48.974  47.859  1.00  0.00    -0.205 F 
HETATM   24  C   UNL     1      16.549  50.533  48.628  1.00  0.00     0.085 A 
HETATM   25  C   UNL     1      16.267  51.711  49.305  1.00  0.00     0.119 A 
HETATM   26  F   UNL     1      14.999  52.124  49.409  1.00  0.00    -0.206 F 
HETATM   27  C   UNL     1      17.283  52.469  49.877  1.00  0.00     0.043 A 
HETATM   28  C   UNL     1      18.609  52.038  49.770  1.00  0.00     0.021 A 
ENDBRANCH   8  21
TORSDOF 3
ENDMDL
MODEL 3
REMARK VINA RESULT:      -9.5      4.634      8.313
REMARK  3 active torsions:
REMARK  status: ('A' for Active; 'I' for Inactive)
REMARK    1  A    between atoms: O_2  and  C_3 
REMARK    2  A    between atoms: C_7  and  C_8 
REMARK       I    between atoms: C_8  and  N_9 
REMARK    3  A    between atoms: C_15  and  C_16 
ROOT
HETATM    1  C   UNL     1      25.533  47.120  51.128  1.00  0.00     0.254 C 
HETATM    2  N   UNL     1      25.756  45.745  51.021  1.00  0.00    -0.342 N 
HETATM    3  C   UNL     1      25.944  45.079  49.705  1.00  0.00     0.187 C 
HETATM    4  C   UNL     1      26.422  43.682  49.906  1.00  0.00     0.077 A 
HETATM    5  C   UNL     1      26.447  43.039  51.117  1.00  0.00     0.039 A 
HETATM    6  N   UNL     1      26.924  41.790  50.869  1.00  0.00    -0.342 N 
HETATM    7  H   UNL     1      27.073  41.044  51.537  1.00  0.00     0.167 HD
HETATM    8  C   UNL     1      27.195  41.708  49.515  1.00  0.00     0.141 A 
HETATM    9  N   UNL     1      26.891  42.854  48.920  1.00  0.00    -0.231 NA
HETATM   10  C   UNL     1      26.055  43.641  52.407  1.00  0.00     0.079 C 
HETATM   11  C   UNL     1      25.217  44.909  52.122  1.00  0.00     0.132 C 
HETATM   12  O   UNL     1      25.007  47.649  52.105  1.00  0.00    -0.267 OA
ENDROOT
BRANCH   1  13
HETATM   13  C   UNL     1      25.932  48.015  50.024  1.00  0.00     0.037 A 
HETATM   14  C   UNL     1      27.266  48.363  49.826  1.00  0.00     0.036 A 
HETATM   15  C   UNL     1      27.546  49.244  48.799  1.00  0.00     0.120 A 
HETATM   16  N   UNL     1      26.604  49.793  48.001  1.00  0.00    -0.237 NA
HETATM   17  C   UNL     1      25.317  49.462  48.250  1.00  0.00     0.164 A 
HETATM   18  C   UNL     1      24.931  48.584  49.244  1.00  0.00     0.075 A 
BRANCH  17  19
HETATM   19  O   UNL     1      24.301  50.006  47.491  1.00  0.00    -0.339 OA
HETATM   20  C   UNL     1      23.335  50.706  48.267  1.00  0.00     0.211 C 
ENDBRANCH  17  19
ENDBRANCH   1  13
BRANCH   8  21
HETATM   21  C   UNL     1      27.753  40.518  48.866  1.00  0.00     0.049 A 
HETATM   22  C   UNL     1      28.555  39.594  49.552  1.00  0.00     0.133 A 
HETATM   23  F   UNL     1      28.841  39.777  50.852  1.00  0.00    -0.205 F 
HETATM   24  C   UNL     1      29.080  38.471  48.920  1.00  0.00     0.085 A 
HETATM   25  C   UNL     1      28.803  38.264  47.577  1.00  0.00     0.119 A 
HETATM   26  F   UNL     1      29.306  37.189  46.959  1.00  0.00    -0.206 F 
HETATM   27  C   UNL     1      28.012  39.157  46.863  1.00  0.00     0.043 A 
HETATM   28  C   UNL     1      27.485  40.280  47.508  1.00  0.00     0.021 A 
ENDBRANCH   8  21
TORSDOF 3
ENDMDL
MODEL 4
REMARK VINA RESULT:      -9.5      4.361      8.675
REMARK  3 active torsions:
REMARK  status: ('A' for Active; 'I' for Inactive)
REMARK    1  A    between atoms: O_2  and  C_3 
REMARK    2  A    between atoms: C_7  and  C_8 
REMARK       I    between atoms: C_8  and  N_9 
REMARK    3  A    between atoms: C_15  and  C_16 
ROOT
HETATM    1  C   UNL     1      22.429  47.216  48.243  1.00  0.00     0.254 C 
HETATM    2  N   UNL     1      23.336  46.684  49.163  1.00  0.00    -0.342 N 
HETATM    3  C   UNL     1      24.271  47.546  49.934  1.00  0.00     0.187 C 
HETATM    4  C   UNL     1      24.922  46.751  51.014  1.00  0.00     0.077 A 
HETATM    5  C   UNL     1      24.850  45.386  51.121  1.00  0.00     0.039 A 
HETATM    6  N   UNL     1      25.587  45.056  52.215  1.00  0.00    -0.342 N 
HETATM    7  H   UNL     1      25.753  44.129  52.589  1.00  0.00     0.167 HD
HETATM    8  C   UNL     1      26.075  46.230  52.759  1.00  0.00     0.141 A 
HETATM    9  N   UNL     1      25.677  47.267  52.034  1.00  0.00    -0.231 NA
HETATM   10  C   UNL     1      24.085  44.502  50.219  1.00  0.00     0.079 C 
HETATM   11  C   UNL     1      23.762  45.282  48.924  1.00  0.00     0.132 C 
HETATM   12  O   UNL     1      21.924  46.563  47.332  1.00  0.00    -0.267 OA
ENDROOT
BRANCH   1  13
HETATM   13  C   UNL     1      22.040  48.636  48.336  1.00  0.00     0.037 A 
HETATM   14  C   UNL     1      22.773  49.627  47.689  1.00  0.00     0.036 A 
HETATM   15  C   UNL     1      22.368  50.936  47.870  1.00  0.00     0.120 A 
HETATM   16  N   UNL     1      21.324  51.300  48.646  1.00  0.00    -0.237 NA
HETATM   17  C   UNL     1      20.662  50.313  49.290  1.00  0.00     0.164 A 
HETATM   18  C   UNL     1      20.979  48.974  49.170  1.00  0.00     0.075 A 
BRANCH  17  19
HETATM   19  O   UNL     1      19.602  50.615  50.120  1.00  0.00    -0.339 OA
HETATM   20  C   UNL     1      18.925  49.462  50.607  1.00  0.00     0.211 C 
ENDBRANCH  17  19
ENDBRANCH   1  13
BRANCH   8  21
HETATM   21  C   UNL     1      26.896  46.287  53.973  1.00  0.00     0.049 A 
HETATM   22  C   UNL     1      26.769  47.315  54.918  1.00  0.00     0.133 A 
HETATM   23  F   UNL     1      25.871  48.298  54.736  1.00  0.00    -0.205 F 
HETATM   24  C   UNL     1      27.558  47.356  56.064  1.00  0.00     0.085 A 
HETATM   25  C   UNL     1      28.496  46.355  56.271  1.00  0.00     0.119 A 
HETATM   26  F   UNL     1      29.263  46.387  57.367  1.00  0.00    -0.206 F 
HETATM   27  C   UNL     1      28.651  45.320  55.356  1.00  0.00     0.043 A 
HETATM   28  C   UNL     1      27.850  45.285  54.211  1.00  0.00     0.021 A 
ENDBRANCH   8  21
TORSDOF 3
ENDMDL
MODEL 5
REMARK VINA RESULT:      -9.4      2.352      4.901
REMARK  3 active torsions:
REMARK  status: ('A' for Active; 'I' for Inactive)
REMARK    1  A    between atoms: O_2  and  C_3 
REMARK    2  A    between atoms: C_7  and  C_8 
REMARK       I    between atoms: C_8  and  N_9 
REMARK    3  A    between atoms: C_15  and  C_16 
ROOT
HETATM    1  C   UNL     1      27.684  41.749  52.404  1.00  0.00     0.254 C 
HETATM    2  N   UNL     1      27.364  43.096  52.216  1.00  0.00    -0.342 N 
HETATM    3  C   UNL     1      27.323  43.713  50.863  1.00  0.00     0.187 C 
HETATM    4  C   UNL     1      26.704  45.066  50.940  1.00  0.00     0.077 A 
HETATM    5  C   UNL     1      26.437  45.730  52.110  1.00  0.00     0.039 A 
HETATM    6  N   UNL     1      25.900  46.925  51.748  1.00  0.00    -0.342 N 
HETATM    7  H   UNL     1      25.587  47.670  52.360  1.00  0.00     0.167 HD
HETATM    8  C   UNL     1      25.834  46.953  50.367  1.00  0.00     0.141 A 
HETATM    9  N   UNL     1      26.323  45.826  49.866  1.00  0.00    -0.231 NA
HETATM   10  C   UNL     1      26.677  45.194  53.464  1.00  0.00     0.079 C 
HETATM   11  C   UNL     1      27.654  44.001  53.355  1.00  0.00     0.132 C 
HETATM   12  O   UNL     1      28.097  41.291  53.467  1.00  0.00    -0.267 OA
ENDROOT
BRANCH   1  13
HETATM   13  C   UNL     1      27.537  40.798  51.285  1.00  0.00     0.037 A 
HETATM   14  C   UNL     1      26.303  40.591  50.673  1.00  0.00     0.036 A 
HETATM   15  C   UNL     1      26.244  39.648  49.666  1.00  0.00     0.120 A 
HETATM   16  N   UNL     1      27.303  38.911  49.263  1.00  0.00    -0.237 NA
HETATM   17  C   UNL     1      28.474  39.112  49.907  1.00  0.00     0.164 A 
HETATM   18  C   UNL     1      28.641  40.036  50.919  1.00  0.00     0.075 A 
BRANCH  17  19
HETATM   19  O   UNL     1      29.589  38.375  49.565  1.00  0.00    -0.339 OA
HETATM   20  C   UNL     1      30.245  37.796  50.688  1.00  0.00     0.211 C 
ENDBRANCH  17  19
ENDBRANCH   1  13
BRANCH   8  21
HETATM   21  C   UNL     1      25.283  48.074  49.599  1.00  0.00     0.049 A 
HETATM   22  C   UNL     1      26.097  48.986  48.911  1.00  0.00     0.133 A 
HETATM   23  F   UNL     1      27.434  48.855  48.936  1.00  0.00    -0.205 F 
HETATM   24  C   UNL     1      25.558  50.047  48.189  1.00  0.00     0.085 A 
HETATM   25  C   UNL     1      24.180  50.205  48.154  1.00  0.00     0.119 A 
HETATM   26  F   UNL     1      23.651  51.224  47.466  1.00  0.00    -0.206 F 
HETATM   27  C   UNL     1      23.341  49.322  48.824  1.00  0.00     0.043 A 
HETATM   28  C   UNL     1      23.892  48.256  49.542  1.00  0.00     0.021 A 
ENDBRANCH   8  21
TORSDOF 3
ENDMDL
MODEL 6
REMARK VINA RESULT:      -9.3      4.249      8.278
REMARK  3 active torsions:
REMARK  status: ('A' for Active; 'I' for Inactive)
REMARK    1  A    between atoms: O_2  and  C_3 
REMARK    2  A    between atoms: C_7  and  C_8 
REMARK       I    between atoms: C_8  and  N_9 
REMARK    3  A    between atoms: C_15  and  C_16 
ROOT
HETATM    1  C   UNL     1      24.693  44.559  49.824  1.00  0.00     0.254 C 
HETATM    2  N   UNL     1      25.313  44.995  50.998  1.00  0.00    -0.342 N 
HETATM    3  C   UNL     1      25.925  44.045  51.965  1.00  0.00     0.187 C 
HETATM    4  C   UNL     1      26.733  44.792  52.970  1.00  0.00     0.077 A 
HETATM    5  C   UNL     1      26.715  46.155  53.119  1.00  0.00     0.039 A 
HETATM    6  N   UNL     1      27.564  46.430  54.145  1.00  0.00    -0.342 N 
HETATM    7  H   UNL     1      27.792  47.340  54.527  1.00  0.00     0.167 HD
HETATM    8  C   UNL     1      28.094  45.230  54.583  1.00  0.00     0.141 A 
HETATM    9  N   UNL     1      27.593  44.226  53.874  1.00  0.00    -0.231 NA
HETATM   10  C   UNL     1      25.935  47.091  52.285  1.00  0.00     0.079 C 
HETATM   11  C   UNL     1      24.840  46.291  51.543  1.00  0.00     0.132 C 
HETATM   12  O   UNL     1      23.866  45.225  49.205  1.00  0.00    -0.267 OA
ENDROOT
BRANCH   1  13
HETATM   13  C   UNL     1      25.020  43.228  49.275  1.00  0.00     0.037 A 
HETATM   14  C   UNL     1      24.043  42.244  49.145  1.00  0.00     0.036 A 
HETATM   15  C   UNL     1      24.445  41.012  48.667  1.00  0.00     0.120 A 
HETATM   16  N   UNL     1      25.722  40.710  48.343  1.00  0.00    -0.237 NA
HETATM   17  C   UNL     1      26.647  41.679  48.521  1.00  0.00     0.164 A 
HETATM   18  C   UNL     1      26.349  42.946  48.982  1.00  0.00     0.075 A 
BRANCH  17  19
HETATM   19  O   UNL     1      27.974  41.431  48.236  1.00  0.00    -0.339 OA
HETATM   20  C   UNL     1      28.412  40.150  48.676  1.00  0.00     0.211 C 
ENDBRANCH  17  19
ENDBRANCH   1  13
BRANCH   8  21
HETATM   21  C   UNL     1      29.078  45.119  55.664  1.00  0.00     0.049 A 
HETATM   22  C   UNL     1      30.183  44.258  55.589  1.00  0.00     0.133 A 
HETATM   23  F   UNL     1      30.377  43.495  54.500  1.00  0.00    -0.205 F 
HETATM   24  C   UNL     1      31.106  44.163  56.626  1.00  0.00     0.085 A 
HETATM   25  C   UNL     1      30.924  44.936  57.763  1.00  0.00     0.119 A 
HETATM   26  F   UNL     1      31.803  44.849  58.767  1.00  0.00    -0.206 F 
HETATM   27  C   UNL     1      29.840  45.801  57.874  1.00  0.00     0.043 A 
HETATM   28  C   UNL     1      28.921  45.894  56.825  1.00  0.00     0.021 A 
ENDBRANCH   8  21
TORSDOF 3
ENDMDL
MODEL 7
REMARK VINA RESULT:      -9.2      3.581      8.072
REMARK  3 active torsions:
REMARK  status: ('A' for Active; 'I' for Inactive)
REMARK    1  A    between atoms: O_2  and  C_3 
REMARK    2  A    between atoms: C_7  and  C_8 
REMARK       I    between atoms: C_8  and  N_9 
REMARK    3  A    between atoms: C_15  and  C_16 
ROOT
HETATM    1  C   UNL     1      25.243  43.521  49.359  1.00  0.00     0.254 C 
HETATM    2  N   UNL     1      26.216  43.260  50.328  1.00  0.00    -0.342 N 
HETATM    3  C   UNL     1      26.942  44.353  51.027  1.00  0.00     0.187 C 
HETATM    4  C   UNL     1      27.712  43.798  52.176  1.00  0.00     0.077 A 
HETATM    5  C   UNL     1      27.909  42.460  52.401  1.00  0.00     0.039 A 
HETATM    6  N   UNL     1      28.671  42.377  53.525  1.00  0.00    -0.342 N 
HETATM    7  H   UNL     1      29.008  41.538  53.980  1.00  0.00     0.167 HD
HETATM    8  C   UNL     1      28.903  43.667  53.968  1.00  0.00     0.141 A 
HETATM    9  N   UNL     1      28.325  44.539  53.152  1.00  0.00    -0.231 NA
HETATM   10  C   UNL     1      27.356  41.369  51.576  1.00  0.00     0.079 C 
HETATM   11  C   UNL     1      26.916  41.957  50.215  1.00  0.00     0.132 C 
HETATM   12  O   UNL     1      24.899  42.706  48.505  1.00  0.00    -0.267 OA
ENDROOT
BRANCH   1  13
HETATM   13  C   UNL     1      24.578  44.838  49.325  1.00  0.00     0.037 A 
HETATM   14  C   UNL     1      23.305  44.988  48.782  1.00  0.00     0.036 A 
HETATM   15  C   UNL     1      22.777  46.264  48.746  1.00  0.00     0.120 A 
HETATM   16  N   UNL     1      23.430  47.361  49.187  1.00  0.00    -0.237 NA
HETATM   17  C   UNL     1      24.680  47.181  49.670  1.00  0.00     0.164 A 
HETATM   18  C   UNL     1      25.295  45.948  49.759  1.00  0.00     0.075 A 
BRANCH  17  19
HETATM   19  O   UNL     1      25.415  48.262  50.112  1.00  0.00    -0.339 OA
HETATM   20  C   UNL     1      26.636  48.437  49.401  1.00  0.00     0.211 C 
ENDBRANCH  17  19
ENDBRANCH   1  13
BRANCH   8  21
HETATM   21  C   UNL     1      29.667  43.989  55.177  1.00  0.00     0.049 A 
HETATM   22  C   UNL     1      29.459  45.169  55.906  1.00  0.00     0.133 A 
HETATM   23  F   UNL     1      28.531  46.057  55.510  1.00  0.00    -0.205 F 
HETATM   24  C   UNL     1      30.195  45.461  57.050  1.00  0.00     0.085 A 
HETATM   25  C   UNL     1      31.162  44.562  57.476  1.00  0.00     0.119 A 
HETATM   26  F   UNL     1      31.878  44.834  58.572  1.00  0.00    -0.206 F 
HETATM   27  C   UNL     1      31.398  43.381  56.779  1.00  0.00     0.043 A 
HETATM   28  C   UNL     1      30.649  43.095  55.634  1.00  0.00     0.021 A 
ENDBRANCH   8  21
TORSDOF 3
ENDMDL
MODEL 8
REMARK VINA RESULT:      -9.2      4.616      8.478
REMARK  3 active torsions:
REMARK  status: ('A' for Active; 'I' for Inactive)
REMARK    1  A    between atoms: O_2  and  C_3 
REMARK    2  A    between atoms: C_7  and  C_8 
REMARK       I    between atoms: C_8  and  N_9 
REMARK    3  A    between atoms: C_15  and  C_16 
ROOT
HETATM    1  C   UNL     1      26.746  41.101  48.983  1.00  0.00     0.254 C 
HETATM    2  N   UNL     1      27.075  41.946  50.046  1.00  0.00    -0.342 N 
HETATM    3  C   UNL     1      27.475  41.416  51.377  1.00  0.00     0.187 C 
HETATM    4  C   UNL     1      28.019  42.518  52.221  1.00  0.00     0.077 A 
HETATM    5  C   UNL     1      27.935  43.850  51.903  1.00  0.00     0.039 A 
HETATM    6  N   UNL     1      28.525  44.518  52.930  1.00  0.00    -0.342 N 
HETATM    7  H   UNL     1      28.640  45.519  53.027  1.00  0.00     0.167 HD
HETATM    8  C   UNL     1      28.970  43.576  53.840  1.00  0.00     0.141 A 
HETATM    9  N   UNL     1      28.665  42.356  53.418  1.00  0.00    -0.231 NA
HETATM   10  C   UNL     1      27.342  44.392  50.664  1.00  0.00     0.079 C 
HETATM   11  C   UNL     1      26.461  43.297  50.021  1.00  0.00     0.132 C 
HETATM   12  O   UNL     1      26.065  41.452  48.022  1.00  0.00    -0.267 OA
ENDROOT
BRANCH   1  13
HETATM   13  C   UNL     1      27.219  39.703  48.986  1.00  0.00     0.037 A 
HETATM   14  C   UNL     1      26.408  38.668  48.527  1.00  0.00     0.036 A 
HETATM   15  C   UNL     1      26.911  37.384  48.611  1.00  0.00     0.120 A 
HETATM   16  N   UNL     1      28.123  37.083  49.125  1.00  0.00    -0.237 NA
HETATM   17  C   UNL     1      28.864  38.110  49.596  1.00  0.00     0.164 A 
HETATM   18  C   UNL     1      28.460  39.429  49.551  1.00  0.00     0.075 A 
BRANCH  17  19
HETATM   19  O   UNL     1      30.102  37.871  50.159  1.00  0.00    -0.339 OA
HETATM   20  C   UNL     1      30.032  37.126  51.370  1.00  0.00     0.211 C 
ENDBRANCH  17  19
ENDBRANCH   1  13
BRANCH   8  21
HETATM   21  C   UNL     1      29.687  43.910  55.074  1.00  0.00     0.049 A 
HETATM   22  C   UNL     1      29.428  45.083  55.799  1.00  0.00     0.133 A 
HETATM   23  F   UNL     1      28.495  45.952  55.375  1.00  0.00    -0.205 F 
HETATM   24  C   UNL     1      30.120  45.387  56.968  1.00  0.00     0.085 A 
HETATM   25  C   UNL     1      31.092  44.508  57.422  1.00  0.00     0.119 A 
HETATM   26  F   UNL     1      31.766  44.793  58.543  1.00  0.00    -0.206 F 
HETATM   27  C   UNL     1      31.377  43.336  56.731  1.00  0.00     0.043 A 
HETATM   28  C   UNL     1      30.673  43.037  55.561  1.00  0.00     0.021 A 
ENDBRANCH   8  21
TORSDOF 3
ENDMDL
MODEL 9
REMARK VINA RESULT:      -9.2      4.791      8.363
REMARK  3 active torsions:
REMARK  status: ('A' for Active; 'I' for Inactive)
REMARK    1  A    between atoms: O_2  and  C_3 
REMARK    2  A    between atoms: C_7  and  C_8 
REMARK       I    between atoms: C_8  and  N_9 
REMARK    3  A    between atoms: C_15  and  C_16 
ROOT
HETATM    1  C   UNL     1      26.511  41.429  49.072  1.00  0.00     0.254 C 
HETATM    2  N   UNL     1      26.697  42.295  50.153  1.00  0.00    -0.342 N 
HETATM    3  C   UNL     1      27.266  41.827  51.446  1.00  0.00     0.187 C 
HETATM    4  C   UNL     1      27.595  42.996  52.309  1.00  0.00     0.077 A 
HETATM    5  C   UNL     1      27.207  44.286  52.047  1.00  0.00     0.039 A 
HETATM    6  N   UNL     1      27.685  45.037  53.075  1.00  0.00    -0.342 N 
HETATM    7  H   UNL     1      27.582  46.036  53.207  1.00  0.00     0.167 HD
HETATM    8  C   UNL     1      28.368  44.190  53.929  1.00  0.00     0.141 A 
HETATM    9  N   UNL     1      28.317  42.945  53.472  1.00  0.00    -0.231 NA
HETATM   10  C   UNL     1      26.452  44.720  50.855  1.00  0.00     0.079 C 
HETATM   11  C   UNL     1      25.802  43.477  50.206  1.00  0.00     0.132 C 
HETATM   12  O   UNL     1      25.724  41.650  48.154  1.00  0.00    -0.267 OA
ENDROOT
BRANCH   1  13
HETATM   13  C   UNL     1      27.277  40.170  49.001  1.00  0.00     0.037 A 
HETATM   14  C   UNL     1      28.646  40.174  48.749  1.00  0.00     0.036 A 
HETATM   15  C   UNL     1      29.277  38.949  48.650  1.00  0.00     0.120 A 
HETATM   16  N   UNL     1      28.639  37.763  48.766  1.00  0.00    -0.237 NA
HETATM   17  C   UNL     1      27.303  37.800  48.971  1.00  0.00     0.164 A 
HETATM   18  C   UNL     1      26.580  38.970  49.094  1.00  0.00     0.075 A 
BRANCH  17  19
HETATM   19  O   UNL     1      26.585  36.627  49.072  1.00  0.00    -0.339 OA
HETATM   20  C   UNL     1      26.506  35.911  47.844  1.00  0.00     0.211 C 
ENDBRANCH  17  19
ENDBRANCH   1  13
BRANCH   8  21
HETATM   21  C   UNL     1      29.052  44.637  55.146  1.00  0.00     0.049 A 
HETATM   22  C   UNL     1      30.272  44.088  55.567  1.00  0.00     0.133 A 
HETATM   23  F   UNL     1      30.862  43.115  54.852  1.00  0.00    -0.205 F 
HETATM   24  C   UNL     1      30.907  44.522  56.727  1.00  0.00     0.085 A 
HETATM   25  C   UNL     1      30.315  45.521  57.485  1.00  0.00     0.119 A 
HETATM   26  F   UNL     1      30.915  45.943  58.604  1.00  0.00    -0.206 F 
HETATM   27  C   UNL     1      29.106  46.090  57.100  1.00  0.00     0.043 A 
HETATM   28  C   UNL     1      28.478  45.651  55.931  1.00  0.00     0.021 A 
ENDBRANCH   8  21
TORSDOF 3
ENDMDL
MODEL 10
REMARK VINA RESULT:      -9.0      4.021      8.395
REMARK  3 active torsions:
REMARK  status: ('A' for Active; 'I' for Inactive)
REMARK    1  A    between atoms: O_2  and  C_3 
REMARK    2  A    between atoms: C_7  and  C_8 
REMARK       I    between atoms: C_8  and  N_9 
REMARK    3  A    between atoms: C_15  and  C_16 
ROOT
HETATM    1  C   UNL     1      25.808  42.570  49.129  1.00  0.00     0.254 C 
HETATM    2  N   UNL     1      26.781  42.503  50.129  1.00  0.00    -0.342 N 
HETATM    3  C   UNL     1      27.227  43.712  50.873  1.00  0.00     0.187 C 
HETATM    4  C   UNL     1      28.061  43.310  52.041  1.00  0.00     0.077 A 
HETATM    5  C   UNL     1      28.539  42.042  52.252  1.00  0.00     0.039 A 
HETATM    6  N   UNL     1      29.263  42.100  53.401  1.00  0.00    -0.342 N 
HETATM    7  H   UNL     1      29.760  41.343  53.855  1.00  0.00     0.167 HD
HETATM    8  C   UNL     1      29.192  43.398  53.874  1.00  0.00     0.141 A 
HETATM    9  N   UNL     1      28.464  44.143  53.052  1.00  0.00    -0.231 NA
HETATM   10  C   UNL     1      28.266  40.877  51.388  1.00  0.00     0.079 C 
HETATM   11  C   UNL     1      27.753  41.388  50.022  1.00  0.00     0.132 C 
HETATM   12  O   UNL     1      25.679  41.720  48.250  1.00  0.00    -0.267 OA
ENDROOT
BRANCH   1  13
HETATM   13  C   UNL     1      24.872  43.710  49.092  1.00  0.00     0.037 A 
HETATM   14  C   UNL     1      25.310  45.009  49.338  1.00  0.00     0.036 A 
HETATM   15  C   UNL     1      24.359  46.011  49.332  1.00  0.00     0.120 A 
HETATM   16  N   UNL     1      23.042  45.796  49.122  1.00  0.00    -0.237 NA
HETATM   17  C   UNL     1      22.650  44.518  48.926  1.00  0.00     0.164 A 
HETATM   18  C   UNL     1      23.520  43.446  48.903  1.00  0.00     0.075 A 
BRANCH  17  19
HETATM   19  O   UNL     1      21.316  44.224  48.732  1.00  0.00    -0.339 OA
HETATM   20  C   UNL     1      20.879  44.459  47.398  1.00  0.00     0.211 C 
ENDBRANCH  17  19
ENDBRANCH   1  13
BRANCH   8  21
HETATM   21  C   UNL     1      29.827  43.849  55.116  1.00  0.00     0.049 A 
HETATM   22  C   UNL     1      29.516  45.079  55.716  1.00  0.00     0.133 A 
HETATM   23  F   UNL     1      28.607  45.896  55.157  1.00  0.00    -0.205 F 
HETATM   24  C   UNL     1      30.131  45.494  56.893  1.00  0.00     0.085 A 
HETATM   25  C   UNL     1      31.076  44.670  57.485  1.00  0.00     0.119 A 
HETATM   26  F   UNL     1      31.676  45.061  58.616  1.00  0.00    -0.206 F 
HETATM   27  C   UNL     1      31.412  43.444  56.921  1.00  0.00     0.043 A 
HETATM   28  C   UNL     1      30.785  43.034  55.740  1.00  0.00     0.021 A 
ENDBRANCH   8  21
TORSDOF 3
ENDMDL
