MODEL 1
REMARK VINA RESULT:      -8.9      0.000      0.000
REMARK  8 active torsions:
REMARK  status: ('A' for Active; 'I' for Inactive)
REMARK    1  A    between atoms: O_2  and  C_3 
REMARK    2  A    between atoms: C_5  and  O_6 
REMARK    3  A    between atoms: C_9  and  C_10 
REMARK    4  A    between atoms: C_10  and  N_11 
REMARK    5  A    between atoms: C_20  and  C_21 
REMARK    6  A    between atoms: C_21  and  N_22 
REMARK    7  A    between atoms: C_26  and  O_27 
REMARK    8  A    between atoms: C_26  and  C_28 
ROOT
HETATM    1  N   UNL     1      25.462  47.120  49.837  1.00  0.00    -0.061 N 
HETATM    2  H   UNL     1      25.692  46.121  49.864  1.00  0.00     0.280 HD
HETATM    3  C   UNL     1      24.334  47.244  48.833  1.00  0.00     0.276 C 
HETATM    4  C   UNL     1      23.691  48.605  48.822  1.00  0.00     0.002 A 
HETATM    5  C   UNL     1      24.428  49.702  48.377  1.00  0.00     0.076 A 
HETATM    6  O   UNL     1      25.718  49.535  47.955  1.00  0.00    -0.349 OA
HETATM    7  C   UNL     1      26.594  49.293  49.068  1.00  0.00     0.203 C 
HETATM    8  C   UNL     1      26.746  47.794  49.368  1.00  0.00     0.262 C 
HETATM    9  C   UNL     1      22.396  48.825  49.325  1.00  0.00     0.020 A 
HETATM   10  C   UNL     1      21.847  50.122  49.381  1.00  0.00    -0.032 A 
HETATM   11  C   UNL     1      22.599  51.195  48.874  1.00  0.00     0.011 A 
HETATM   12  C   UNL     1      23.880  50.980  48.358  1.00  0.00     0.038 A 
ENDROOT
BRANCH  10  13
HETATM   13  C   UNL     1      20.524  50.359  50.072  1.00  0.00     0.273 C 
BRANCH  13  14
HETATM   14  N   UNL     1      19.551  51.282  49.370  1.00  0.00    -0.067 N 
HETATM   15  H   UNL     1      19.877  52.246  49.528  1.00  0.00     0.280 HD
HETATM   16  C   UNL     1      19.508  51.060  47.876  1.00  0.00     0.238 C 
HETATM   17  C   UNL     1      18.505  52.008  47.245  1.00  0.00     0.071 C 
HETATM   18  C   UNL     1      17.083  51.795  47.803  1.00  0.00     0.089 C 
HETATM   19  C   UNL     1      17.164  52.047  49.320  1.00  0.00     0.071 C 
HETATM   20  C   UNL     1      18.186  51.164  50.018  1.00  0.00     0.238 C 
BRANCH  18  21
HETATM   21  O   UNL     1      16.279  52.850  47.271  1.00  0.00    -0.385 OA
HETATM   22  H   UNL     1      16.023  53.469  47.982  1.00  0.00     0.211 HD
ENDBRANCH  18  21
BRANCH  18  23
HETATM   23  C   UNL     1      16.476  50.467  47.367  1.00  0.00    -0.006 A 
HETATM   24  C   UNL     1      15.619  49.711  48.165  1.00  0.00     0.126 A 
HETATM   25  N   UNL     1      15.135  48.494  47.838  1.00  0.00    -0.272 NA
HETATM   26  C   UNL     1      15.432  48.018  46.614  1.00  0.00     0.116 A 
HETATM   27  C   UNL     1      16.215  48.705  45.708  1.00  0.00     0.020 A 
HETATM   28  C   UNL     1      16.736  49.940  46.091  1.00  0.00     0.013 A 
ENDBRANCH  18  23
ENDBRANCH  13  14
ENDBRANCH  10  13
BRANCH   1  29
HETATM   29  C   UNL     1      25.019  47.485  51.233  1.00  0.00     0.274 C 
BRANCH  29  30
HETATM   30  C   UNL     1      25.709  46.772  52.356  1.00  0.00    -0.027 A 
HETATM   31  C   UNL     1      26.093  45.433  52.195  1.00  0.00     0.045 A 
HETATM   32  C   UNL     1      26.873  44.786  53.156  1.00  0.00     0.071 A 
HETATM   33  C   UNL     1      27.250  45.463  54.317  1.00  0.00     0.073 A 
HETATM   34  C   UNL     1      26.874  46.795  54.495  1.00  0.00     0.071 A 
HETATM   35  C   UNL     1      26.111  47.444  53.517  1.00  0.00     0.045 A 
BRANCH  32  36
HETATM   36  O   UNL     1      27.202  43.499  52.832  1.00  0.00    -0.356 OA
HETATM   37  C   UNL     1      28.495  43.291  52.268  1.00  0.00     0.210 C 
ENDBRANCH  32  36
BRANCH  34  38
HETATM   38  O   UNL     1      27.192  47.587  55.563  1.00  0.00    -0.356 OA
HETATM   39  C   UNL     1      26.280  48.634  55.886  1.00  0.00     0.210 C 
ENDBRANCH  34  38
ENDBRANCH  29  30
ENDBRANCH   1  29
TORSDOF 8
ENDMDL
MODEL 2
REMARK VINA RESULT:      -8.8      2.445      2.804
REMARK  8 active torsions:
REMARK  status: ('A' for Active; 'I' for Inactive)
REMARK    1  A    between atoms: O_2  and  C_3 
REMARK    2  A    between atoms: C_5  and  O_6 
REMARK    3  A    between atoms: C_9  and  C_10 
REMARK    4  A    between atoms: C_10  and  N_11 
REMARK    5  A    between atoms: C_20  and  C_21 
REMARK    6  A    between atoms: C_21  and  N_22 
REMARK    7  A    between atoms: C_26  and  O_27 
REMARK    8  A    between atoms: C_26  and  C_28 
ROOT
HETATM    1  N   UNL     1      25.503  47.057  49.937  1.00  0.00    -0.061 N 
HETATM    2  H   UNL     1      25.759  46.065  50.005  1.00  0.00     0.280 HD
HETATM    3  C   UNL     1      24.381  47.112  48.922  1.00  0.00     0.276 C 
HETATM    4  C   UNL     1      23.702  48.454  48.853  1.00  0.00     0.002 A 
HETATM    5  C   UNL     1      24.414  49.553  48.372  1.00  0.00     0.076 A 
HETATM    6  O   UNL     1      25.711  49.404  47.966  1.00  0.00    -0.349 OA
HETATM    7  C   UNL     1      26.585  49.228  49.094  1.00  0.00     0.203 C 
HETATM    8  C   UNL     1      26.773  47.746  49.452  1.00  0.00     0.262 C 
HETATM    9  C   UNL     1      22.398  48.659  49.339  1.00  0.00     0.020 A 
HETATM   10  C   UNL     1      21.815  49.942  49.341  1.00  0.00    -0.032 A 
HETATM   11  C   UNL     1      22.543  51.014  48.798  1.00  0.00     0.011 A 
HETATM   12  C   UNL     1      23.833  50.814  48.300  1.00  0.00     0.038 A 
ENDROOT
BRANCH  10  13
HETATM   13  C   UNL     1      20.480  50.170  50.013  1.00  0.00     0.273 C 
BRANCH  13  14
HETATM   14  N   UNL     1      19.265  49.597  49.314  1.00  0.00    -0.067 N 
HETATM   15  H   UNL     1      18.490  50.260  49.457  1.00  0.00     0.280 HD
HETATM   16  C   UNL     1      19.464  49.452  47.823  1.00  0.00     0.238 C 
HETATM   17  C   UNL     1      18.215  48.862  47.195  1.00  0.00     0.071 C 
HETATM   18  C   UNL     1      17.883  47.470  47.772  1.00  0.00     0.089 C 
HETATM   19  C   UNL     1      17.671  47.663  49.286  1.00  0.00     0.071 C 
HETATM   20  C   UNL     1      18.867  48.296  49.980  1.00  0.00     0.238 C 
BRANCH  18  21
HETATM   21  O   UNL     1      16.609  47.106  47.240  1.00  0.00    -0.385 OA
HETATM   22  H   UNL     1      15.985  47.854  47.319  1.00  0.00     0.211 HD
ENDBRANCH  18  21
BRANCH  18  23
HETATM   23  C   UNL     1      18.894  46.409  47.359  1.00  0.00    -0.006 A 
HETATM   24  C   UNL     1      19.145  45.253  48.096  1.00  0.00     0.126 A 
HETATM   25  N   UNL     1      20.092  44.339  47.797  1.00  0.00    -0.272 NA
HETATM   26  C   UNL     1      20.784  44.514  46.654  1.00  0.00     0.116 A 
HETATM   27  C   UNL     1      20.576  45.582  45.806  1.00  0.00     0.020 A 
HETATM   28  C   UNL     1      19.622  46.533  46.163  1.00  0.00     0.013 A 
ENDBRANCH  18  23
ENDBRANCH  13  14
ENDBRANCH  10  13
BRANCH   1  29
HETATM   29  C   UNL     1      25.040  47.463  51.316  1.00  0.00     0.274 C 
BRANCH  29  30
HETATM   30  C   UNL     1      25.683  46.754  52.468  1.00  0.00    -0.027 A 
HETATM   31  C   UNL     1      26.058  45.409  52.333  1.00  0.00     0.045 A 
HETATM   32  C   UNL     1      26.798  44.763  53.326  1.00  0.00     0.071 A 
HETATM   33  C   UNL     1      27.143  45.448  54.492  1.00  0.00     0.073 A 
HETATM   34  C   UNL     1      26.776  46.786  54.645  1.00  0.00     0.071 A 
HETATM   35  C   UNL     1      26.053  47.433  53.635  1.00  0.00     0.045 A 
BRANCH  32  36
HETATM   36  O   UNL     1      27.123  43.470  53.026  1.00  0.00    -0.356 OA
HETATM   37  C   UNL     1      28.073  43.274  51.981  1.00  0.00     0.210 C 
ENDBRANCH  32  36
BRANCH  34  38
HETATM   38  O   UNL     1      27.066  47.585  55.715  1.00  0.00    -0.356 OA
HETATM   39  C   UNL     1      26.270  48.755  55.884  1.00  0.00     0.210 C 
ENDBRANCH  34  38
ENDBRANCH  29  30
ENDBRANCH   1  29
TORSDOF 8
ENDMDL
MODEL 3
REMARK VINA RESULT:      -8.7      0.656      2.157
REMARK  8 active torsions:
REMARK  status: ('A' for Active; 'I' for Inactive)
REMARK    1  A    between atoms: O_2  and  C_3 
REMARK    2  A    between atoms: C_5  and  O_6 
REMARK    3  A    between atoms: C_9  and  C_10 
REMARK    4  A    between atoms: C_10  and  N_11 
REMARK    5  A    between atoms: C_20  and  C_21 
REMARK    6  A    between atoms: C_21  and  N_22 
REMARK    7  A    between atoms: C_26  and  O_27 
REMARK    8  A    between atoms: C_26  and  C_28 
ROOT
HETATM    1  N   UNL     1      25.343  46.772  49.775  1.00  0.00    -0.061 N 
HETATM    2  H   UNL     1      25.622  45.786  49.721  1.00  0.00     0.280 HD
HETATM    3  C   UNL     1      24.312  46.955  48.680  1.00  0.00     0.276 C 
HETATM    4  C   UNL     1      23.602  48.281  48.745  1.00  0.00     0.002 A 
HETATM    5  C   UNL     1      24.319  49.451  48.493  1.00  0.00     0.076 A 
HETATM    6  O   UNL     1      25.650  49.385  48.188  1.00  0.00    -0.349 OA
HETATM    7  C   UNL     1      26.427  49.062  49.354  1.00  0.00     0.203 C 
HETATM    8  C   UNL     1      26.629  47.546  49.510  1.00  0.00     0.262 C 
HETATM    9  C   UNL     1      22.255  48.390  49.135  1.00  0.00     0.020 A 
HETATM   10  C   UNL     1      21.634  49.649  49.269  1.00  0.00    -0.032 A 
HETATM   11  C   UNL     1      22.374  50.801  48.955  1.00  0.00     0.011 A 
HETATM   12  C   UNL     1      23.708  50.698  48.551  1.00  0.00     0.038 A 
ENDROOT
BRANCH  10  13
HETATM   13  C   UNL     1      20.240  49.753  49.843  1.00  0.00     0.273 C 
BRANCH  13  14
HETATM   14  N   UNL     1      19.356  50.844  49.279  1.00  0.00    -0.067 N 
HETATM   15  H   UNL     1      19.815  51.744  49.481  1.00  0.00     0.280 HD
HETATM   16  C   UNL     1      19.195  50.748  47.780  1.00  0.00     0.238 C 
HETATM   17  C   UNL     1      18.289  51.862  47.289  1.00  0.00     0.071 C 
HETATM   18  C   UNL     1      16.887  51.787  47.928  1.00  0.00     0.089 C 
HETATM   19  C   UNL     1      17.092  51.905  49.450  1.00  0.00     0.071 C 
HETATM   20  C   UNL     1      18.029  50.847  50.010  1.00  0.00     0.238 C 
BRANCH  18  21
HETATM   21  O   UNL     1      16.198  52.973  47.530  1.00  0.00    -0.385 OA
HETATM   22  H   UNL     1      15.722  53.357  48.292  1.00  0.00     0.211 HD
ENDBRANCH  18  21
BRANCH  18  23
HETATM   23  C   UNL     1      16.087  50.585  47.443  1.00  0.00    -0.006 A 
HETATM   24  C   UNL     1      15.798  49.477  48.239  1.00  0.00     0.126 A 
HETATM   25  N   UNL     1      15.165  48.365  47.810  1.00  0.00    -0.272 NA
HETATM   26  C   UNL     1      14.701  48.364  46.545  1.00  0.00     0.116 A 
HETATM   27  C   UNL     1      14.864  49.429  45.683  1.00  0.00     0.020 A 
HETATM   28  C   UNL     1      15.561  50.547  46.140  1.00  0.00     0.013 A 
ENDBRANCH  18  23
ENDBRANCH  13  14
ENDBRANCH  10  13
BRANCH   1  29
HETATM   29  C   UNL     1      24.749  46.964  51.149  1.00  0.00     0.274 C 
BRANCH  29  30
HETATM   30  C   UNL     1      25.594  46.519  52.305  1.00  0.00    -0.027 A 
HETATM   31  C   UNL     1      26.142  47.476  53.171  1.00  0.00     0.045 A 
HETATM   32  C   UNL     1      26.801  47.094  54.342  1.00  0.00     0.071 A 
HETATM   33  C   UNL     1      26.954  45.741  54.645  1.00  0.00     0.073 A 
HETATM   34  C   UNL     1      26.417  44.775  53.791  1.00  0.00     0.071 A 
HETATM   35  C   UNL     1      25.739  45.166  52.631  1.00  0.00     0.045 A 
BRANCH  32  36
HETATM   36  O   UNL     1      27.238  48.143  55.103  1.00  0.00    -0.356 OA
HETATM   37  C   UNL     1      26.313  48.679  56.047  1.00  0.00     0.210 C 
ENDBRANCH  32  36
BRANCH  34  38
HETATM   38  O   UNL     1      26.467  43.421  53.973  1.00  0.00    -0.356 OA
HETATM   39  C   UNL     1      27.728  42.787  53.774  1.00  0.00     0.210 C 
ENDBRANCH  34  38
ENDBRANCH  29  30
ENDBRANCH   1  29
TORSDOF 8
ENDMDL
MODEL 4
REMARK VINA RESULT:      -8.6      5.344     11.009
REMARK  8 active torsions:
REMARK  status: ('A' for Active; 'I' for Inactive)
REMARK    1  A    between atoms: O_2  and  C_3 
REMARK    2  A    between atoms: C_5  and  O_6 
REMARK    3  A    between atoms: C_9  and  C_10 
REMARK    4  A    between atoms: C_10  and  N_11 
REMARK    5  A    between atoms: C_20  and  C_21 
REMARK    6  A    between atoms: C_21  and  N_22 
REMARK    7  A    between atoms: C_26  and  O_27 
REMARK    8  A    between atoms: C_26  and  C_28 
ROOT
HETATM    1  N   UNL     1      26.105  45.843  53.641  1.00  0.00    -0.061 N 
HETATM    2  H   UNL     1      25.165  46.249  53.710  1.00  0.00     0.280 HD
HETATM    3  C   UNL     1      25.974  44.435  54.182  1.00  0.00     0.276 C 
HETATM    4  C   UNL     1      27.197  43.589  53.949  1.00  0.00     0.002 A 
HETATM    5  C   UNL     1      28.383  43.909  54.610  1.00  0.00     0.076 A 
HETATM    6  O   UNL     1      28.425  44.978  55.461  1.00  0.00    -0.349 OA
HETATM    7  C   UNL     1      28.401  46.216  54.730  1.00  0.00     0.203 C 
HETATM    8  C   UNL     1      26.970  46.736  54.522  1.00  0.00     0.262 C 
HETATM    9  C   UNL     1      27.210  42.533  53.019  1.00  0.00     0.020 A 
HETATM   10  C   UNL     1      28.391  41.808  52.756  1.00  0.00    -0.032 A 
HETATM   11  C   UNL     1      29.551  42.126  53.481  1.00  0.00     0.011 A 
HETATM   12  C   UNL     1      29.540  43.163  54.417  1.00  0.00     0.038 A 
ENDROOT
BRANCH  10  13
HETATM   13  C   UNL     1      28.425  40.789  51.641  1.00  0.00     0.273 C 
BRANCH  13  14
HETATM   14  N   UNL     1      27.596  41.103  50.413  1.00  0.00    -0.067 N 
HETATM   15  H   UNL     1      27.262  42.072  50.510  1.00  0.00     0.280 HD
HETATM   16  C   UNL     1      28.397  41.028  49.134  1.00  0.00     0.238 C 
HETATM   17  C   UNL     1      27.501  41.339  47.949  1.00  0.00     0.071 C 
HETATM   18  C   UNL     1      26.327  40.346  47.839  1.00  0.00     0.089 C 
HETATM   19  C   UNL     1      25.528  40.464  49.150  1.00  0.00     0.071 C 
HETATM   20  C   UNL     1      26.372  40.210  50.389  1.00  0.00     0.238 C 
BRANCH  18  21
HETATM   21  O   UNL     1      25.471  40.845  46.810  1.00  0.00    -0.385 OA
HETATM   22  H   UNL     1      24.853  41.506  47.177  1.00  0.00     0.211 HD
ENDBRANCH  18  21
BRANCH  18  23
HETATM   23  C   UNL     1      26.781  38.945  47.445  1.00  0.00    -0.006 A 
HETATM   24  C   UNL     1      26.154  37.779  47.883  1.00  0.00     0.126 A 
HETATM   25  N   UNL     1      26.585  36.528  47.617  1.00  0.00    -0.272 NA
HETATM   26  C   UNL     1      27.645  36.398  46.796  1.00  0.00     0.116 A 
HETATM   27  C   UNL     1      28.306  37.477  46.245  1.00  0.00     0.020 A 
HETATM   28  C   UNL     1      27.866  38.758  46.572  1.00  0.00     0.013 A 
ENDBRANCH  18  23
ENDBRANCH  13  14
ENDBRANCH  10  13
BRANCH   1  29
HETATM   29  C   UNL     1      26.458  45.855  52.173  1.00  0.00     0.274 C 
BRANCH  29  30
HETATM   30  C   UNL     1      25.330  46.112  51.221  1.00  0.00    -0.027 A 
HETATM   31  C   UNL     1      25.003  47.431  50.875  1.00  0.00     0.045 A 
HETATM   32  C   UNL     1      24.065  47.702  49.876  1.00  0.00     0.071 A 
HETATM   33  C   UNL     1      23.410  46.651  49.233  1.00  0.00     0.073 A 
HETATM   34  C   UNL     1      23.721  45.332  49.568  1.00  0.00     0.071 A 
HETATM   35  C   UNL     1      24.678  45.068  50.554  1.00  0.00     0.045 A 
BRANCH  32  36
HETATM   36  O   UNL     1      23.890  49.034  49.623  1.00  0.00    -0.356 OA
HETATM   37  C   UNL     1      24.583  49.570  48.498  1.00  0.00     0.210 C 
ENDBRANCH  32  36
BRANCH  34  38
HETATM   38  O   UNL     1      23.183  44.208  49.006  1.00  0.00    -0.356 OA
HETATM   39  C   UNL     1      22.892  43.122  49.882  1.00  0.00     0.210 C 
ENDBRANCH  34  38
ENDBRANCH  29  30
ENDBRANCH   1  29
TORSDOF 8
ENDMDL
MODEL 5
REMARK VINA RESULT:      -8.6      4.782      9.624
REMARK  8 active torsions:
REMARK  status: ('A' for Active; 'I' for Inactive)
REMARK    1  A    between atoms: O_2  and  C_3 
REMARK    2  A    between atoms: C_5  and  O_6 
REMARK    3  A    between atoms: C_9  and  C_10 
REMARK    4  A    between atoms: C_10  and  N_11 
REMARK    5  A    between atoms: C_20  and  C_21 
REMARK    6  A    between atoms: C_21  and  N_22 
REMARK    7  A    between atoms: C_26  and  O_27 
REMARK    8  A    between atoms: C_26  and  C_28 
ROOT
HETATM    1  N   UNL     1      25.640  46.553  53.372  1.00  0.00    -0.061 N 
HETATM    2  H   UNL     1      24.689  46.916  53.241  1.00  0.00     0.280 HD
HETATM    3  C   UNL     1      25.494  45.385  54.325  1.00  0.00     0.276 C 
HETATM    4  C   UNL     1      26.749  44.565  54.462  1.00  0.00     0.002 A 
HETATM    5  C   UNL     1      27.870  45.132  55.067  1.00  0.00     0.076 A 
HETATM    6  O   UNL     1      27.821  46.417  55.531  1.00  0.00    -0.349 OA
HETATM    7  C   UNL     1      27.832  47.356  54.442  1.00  0.00     0.203 C 
HETATM    8  C   UNL     1      26.412  47.718  53.979  1.00  0.00     0.262 C 
HETATM    9  C   UNL     1      26.859  43.270  53.923  1.00  0.00     0.020 A 
HETATM   10  C   UNL     1      28.072  42.554  53.990  1.00  0.00    -0.032 A 
HETATM   11  C   UNL     1      29.163  43.137  54.655  1.00  0.00     0.011 A 
HETATM   12  C   UNL     1      29.055  44.417  55.206  1.00  0.00     0.038 A 
ENDROOT
BRANCH  10  13
HETATM   13  C   UNL     1      28.217  41.235  53.266  1.00  0.00     0.273 C 
BRANCH  13  14
HETATM   14  N   UNL     1      28.131  41.281  51.755  1.00  0.00    -0.067 N 
HETATM   15  H   UNL     1      29.034  40.950  51.388  1.00  0.00     0.280 HD
HETATM   16  C   UNL     1      27.059  40.369  51.204  1.00  0.00     0.238 C 
HETATM   17  C   UNL     1      27.023  40.477  49.691  1.00  0.00     0.071 C 
HETATM   18  C   UNL     1      26.716  41.915  49.224  1.00  0.00     0.089 C 
HETATM   19  C   UNL     1      27.836  42.808  49.790  1.00  0.00     0.071 C 
HETATM   20  C   UNL     1      27.965  42.717  51.302  1.00  0.00     0.238 C 
BRANCH  18  21
HETATM   21  O   UNL     1      26.885  41.924  47.806  1.00  0.00    -0.385 OA
HETATM   22  H   UNL     1      26.296  42.590  47.401  1.00  0.00     0.211 HD
ENDBRANCH  18  21
BRANCH  18  23
HETATM   23  C   UNL     1      25.287  42.339  49.538  1.00  0.00    -0.006 A 
HETATM   24  C   UNL     1      24.911  42.970  50.723  1.00  0.00     0.126 A 
HETATM   25  N   UNL     1      23.642  43.281  51.061  1.00  0.00    -0.272 NA
HETATM   26  C   UNL     1      22.681  43.044  50.146  1.00  0.00     0.116 A 
HETATM   27  C   UNL     1      22.939  42.487  48.910  1.00  0.00     0.020 A 
HETATM   28  C   UNL     1      24.254  42.137  48.606  1.00  0.00     0.013 A 
ENDBRANCH  18  23
ENDBRANCH  13  14
ENDBRANCH  10  13
BRANCH   1  29
HETATM   29  C   UNL     1      26.111  46.113  52.007  1.00  0.00     0.274 C 
BRANCH  29  30
HETATM   30  C   UNL     1      25.613  46.915  50.843  1.00  0.00    -0.027 A 
HETATM   31  C   UNL     1      24.276  46.794  50.439  1.00  0.00     0.045 A 
HETATM   32  C   UNL     1      23.738  47.637  49.463  1.00  0.00     0.071 A 
HETATM   33  C   UNL     1      24.547  48.592  48.847  1.00  0.00     0.073 A 
HETATM   34  C   UNL     1      25.882  48.724  49.235  1.00  0.00     0.071 A 
HETATM   35  C   UNL     1      26.407  47.891  50.229  1.00  0.00     0.045 A 
BRANCH  32  36
HETATM   36  O   UNL     1      22.411  47.424  49.213  1.00  0.00    -0.356 OA
HETATM   37  C   UNL     1      22.092  46.416  48.257  1.00  0.00     0.210 C 
ENDBRANCH  32  36
BRANCH  34  38
HETATM   38  O   UNL     1      26.779  49.629  48.740  1.00  0.00    -0.356 OA
HETATM   39  C   UNL     1      28.118  49.542  49.224  1.00  0.00     0.210 C 
ENDBRANCH  34  38
ENDBRANCH  29  30
ENDBRANCH   1  29
TORSDOF 8
ENDMDL
MODEL 6
REMARK VINA RESULT:      -8.6      2.273      3.310
REMARK  8 active torsions:
REMARK  status: ('A' for Active; 'I' for Inactive)
REMARK    1  A    between atoms: O_2  and  C_3 
REMARK    2  A    between atoms: C_5  and  O_6 
REMARK    3  A    between atoms: C_9  and  C_10 
REMARK    4  A    between atoms: C_10  and  N_11 
REMARK    5  A    between atoms: C_20  and  C_21 
REMARK    6  A    between atoms: C_21  and  N_22 
REMARK    7  A    between atoms: C_26  and  O_27 
REMARK    8  A    between atoms: C_26  and  C_28 
ROOT
HETATM    1  N   UNL     1      25.583  46.703  49.986  1.00  0.00    -0.061 N 
HETATM    2  H   UNL     1      25.728  45.688  50.026  1.00  0.00     0.280 HD
HETATM    3  C   UNL     1      24.483  46.909  48.965  1.00  0.00     0.276 C 
HETATM    4  C   UNL     1      23.956  48.318  48.930  1.00  0.00     0.002 A 
HETATM    5  C   UNL     1      24.788  49.346  48.485  1.00  0.00     0.076 A 
HETATM    6  O   UNL     1      26.065  49.067  48.083  1.00  0.00    -0.349 OA
HETATM    7  C   UNL     1      26.903  48.765  49.212  1.00  0.00     0.203 C 
HETATM    8  C   UNL     1      26.925  47.262  49.529  1.00  0.00     0.262 C 
HETATM    9  C   UNL     1      22.677  48.651  49.413  1.00  0.00     0.020 A 
HETATM   10  C   UNL     1      22.238  49.991  49.448  1.00  0.00    -0.032 A 
HETATM   11  C   UNL     1      23.084  50.991  48.941  1.00  0.00     0.011 A 
HETATM   12  C   UNL     1      24.349  50.664  48.446  1.00  0.00     0.038 A 
ENDROOT
BRANCH  10  13
HETATM   13  C   UNL     1      20.930  50.344  50.118  1.00  0.00     0.273 C 
BRANCH  13  14
HETATM   14  N   UNL     1      19.667  50.012  49.351  1.00  0.00    -0.067 N 
HETATM   15  H   UNL     1      19.047  50.831  49.415  1.00  0.00     0.280 HD
HETATM   16  C   UNL     1      19.925  49.756  47.885  1.00  0.00     0.238 C 
HETATM   17  C   UNL     1      18.620  49.417  47.186  1.00  0.00     0.071 C 
HETATM   18  C   UNL     1      17.958  48.159  47.784  1.00  0.00     0.089 C 
HETATM   19  C   UNL     1      17.697  48.465  49.271  1.00  0.00     0.071 C 
HETATM   20  C   UNL     1      18.954  48.859  50.029  1.00  0.00     0.238 C 
BRANCH  18  21
HETATM   21  O   UNL     1      16.672  48.051  47.172  1.00  0.00    -0.385 OA
HETATM   22  H   UNL     1      16.430  47.111  47.061  1.00  0.00     0.211 HD
ENDBRANCH  18  21
BRANCH  18  23
HETATM   23  C   UNL     1      18.739  46.887  47.480  1.00  0.00    -0.006 A 
HETATM   24  C   UNL     1      18.481  45.659  48.087  1.00  0.00     0.126 A 
HETATM   25  N   UNL     1      19.210  44.538  47.898  1.00  0.00    -0.272 NA
HETATM   26  C   UNL     1      20.204  44.590  46.991  1.00  0.00     0.116 A 
HETATM   27  C   UNL     1      20.511  45.730  46.276  1.00  0.00     0.020 A 
HETATM   28  C   UNL     1      19.769  46.884  46.523  1.00  0.00     0.013 A 
ENDBRANCH  18  23
ENDBRANCH  13  14
ENDBRANCH  10  13
BRANCH   1  29
HETATM   29  C   UNL     1      25.153  47.119  51.372  1.00  0.00     0.274 C 
BRANCH  29  30
HETATM   30  C   UNL     1      25.969  46.583  52.508  1.00  0.00    -0.027 A 
HETATM   31  C   UNL     1      26.335  47.434  53.561  1.00  0.00     0.045 A 
HETATM   32  C   UNL     1      26.959  46.935  54.707  1.00  0.00     0.071 A 
HETATM   33  C   UNL     1      27.261  45.576  54.800  1.00  0.00     0.073 A 
HETATM   34  C   UNL     1      26.906  44.715  53.760  1.00  0.00     0.071 A 
HETATM   35  C   UNL     1      26.262  45.218  52.624  1.00  0.00     0.045 A 
BRANCH  32  36
HETATM   36  O   UNL     1      27.211  47.883  55.661  1.00  0.00    -0.356 OA
HETATM   37  C   UNL     1      26.148  48.783  55.966  1.00  0.00     0.210 C 
ENDBRANCH  32  36
BRANCH  34  38
HETATM   38  O   UNL     1      27.113  43.364  53.726  1.00  0.00    -0.356 OA
HETATM   39  C   UNL     1      27.171  42.751  52.440  1.00  0.00     0.210 C 
ENDBRANCH  34  38
ENDBRANCH  29  30
ENDBRANCH   1  29
TORSDOF 8
ENDMDL
MODEL 7
REMARK VINA RESULT:      -8.5      3.195      4.913
REMARK  8 active torsions:
REMARK  status: ('A' for Active; 'I' for Inactive)
REMARK    1  A    between atoms: O_2  and  C_3 
REMARK    2  A    between atoms: C_5  and  O_6 
REMARK    3  A    between atoms: C_9  and  C_10 
REMARK    4  A    between atoms: C_10  and  N_11 
REMARK    5  A    between atoms: C_20  and  C_21 
REMARK    6  A    between atoms: C_21  and  N_22 
REMARK    7  A    between atoms: C_26  and  O_27 
REMARK    8  A    between atoms: C_26  and  C_28 
ROOT
HETATM    1  N   UNL     1      25.203  42.473  50.244  1.00  0.00    -0.061 N 
HETATM    2  H   UNL     1      25.603  42.290  51.171  1.00  0.00     0.280 HD
HETATM    3  C   UNL     1      23.766  42.877  50.501  1.00  0.00     0.276 C 
HETATM    4  C   UNL     1      23.069  43.416  49.281  1.00  0.00     0.002 A 
HETATM    5  C   UNL     1      22.811  42.560  48.210  1.00  0.00     0.076 A 
HETATM    6  O   UNL     1      23.185  41.247  48.278  1.00  0.00    -0.349 OA
HETATM    7  C   UNL     1      24.611  41.114  48.148  1.00  0.00     0.203 C 
HETATM    8  C   UNL     1      25.320  41.143  49.510  1.00  0.00     0.262 C 
HETATM    9  C   UNL     1      22.744  44.778  49.145  1.00  0.00     0.020 A 
HETATM   10  C   UNL     1      22.168  45.275  47.958  1.00  0.00    -0.032 A 
HETATM   11  C   UNL     1      21.874  44.373  46.923  1.00  0.00     0.011 A 
HETATM   12  C   UNL     1      22.180  43.016  47.058  1.00  0.00     0.038 A 
ENDROOT
BRANCH  10  13
HETATM   13  C   UNL     1      21.977  46.763  47.771  1.00  0.00     0.273 C 
BRANCH  13  14
HETATM   14  N   UNL     1      21.209  47.487  48.857  1.00  0.00    -0.067 N 
HETATM   15  H   UNL     1      21.519  47.100  49.759  1.00  0.00     0.280 HD
HETATM   16  C   UNL     1      21.494  48.971  48.882  1.00  0.00     0.238 C 
HETATM   17  C   UNL     1      20.683  49.630  49.982  1.00  0.00     0.071 C 
HETATM   18  C   UNL     1      19.167  49.436  49.774  1.00  0.00     0.089 C 
HETATM   19  C   UNL     1      18.916  47.916  49.771  1.00  0.00     0.071 C 
HETATM   20  C   UNL     1      19.732  47.178  48.722  1.00  0.00     0.238 C 
BRANCH  18  21
HETATM   21  O   UNL     1      18.530  49.938  50.949  1.00  0.00    -0.385 OA
HETATM   22  H   UNL     1      19.152  49.920  51.703  1.00  0.00     0.211 HD
ENDBRANCH  18  21
BRANCH  18  23
HETATM   23  C   UNL     1      18.637  50.213  48.575  1.00  0.00    -0.006 A 
HETATM   24  C   UNL     1      17.941  49.625  47.520  1.00  0.00     0.126 A 
HETATM   25  N   UNL     1      17.534  50.275  46.409  1.00  0.00    -0.272 NA
HETATM   26  C   UNL     1      17.739  51.605  46.359  1.00  0.00     0.116 A 
HETATM   27  C   UNL     1      18.355  52.311  47.372  1.00  0.00     0.020 A 
HETATM   28  C   UNL     1      18.804  51.606  48.488  1.00  0.00     0.013 A 
ENDBRANCH  18  23
ENDBRANCH  13  14
ENDBRANCH  10  13
BRANCH   1  29
HETATM   29  C   UNL     1      26.012  43.604  49.656  1.00  0.00     0.274 C 
BRANCH  29  30
HETATM   30  C   UNL     1      26.173  44.821  50.515  1.00  0.00    -0.027 A 
HETATM   31  C   UNL     1      26.124  46.094  49.929  1.00  0.00     0.045 A 
HETATM   32  C   UNL     1      26.114  47.249  50.714  1.00  0.00     0.071 A 
HETATM   33  C   UNL     1      26.191  47.147  52.104  1.00  0.00     0.073 A 
HETATM   34  C   UNL     1      26.242  45.887  52.704  1.00  0.00     0.071 A 
HETATM   35  C   UNL     1      26.230  44.734  51.911  1.00  0.00     0.045 A 
BRANCH  32  36
HETATM   36  O   UNL     1      26.018  48.410  49.997  1.00  0.00    -0.356 OA
HETATM   37  C   UNL     1      27.152  48.774  49.214  1.00  0.00     0.210 C 
ENDBRANCH  32  36
BRANCH  34  38
HETATM   38  O   UNL     1      26.293  45.635  54.046  1.00  0.00    -0.356 OA
HETATM   39  C   UNL     1      26.933  44.429  54.454  1.00  0.00     0.210 C 
ENDBRANCH  34  38
ENDBRANCH  29  30
ENDBRANCH   1  29
TORSDOF 8
ENDMDL
MODEL 8
REMARK VINA RESULT:      -8.5      5.227     10.899
REMARK  8 active torsions:
REMARK  status: ('A' for Active; 'I' for Inactive)
REMARK    1  A    between atoms: O_2  and  C_3 
REMARK    2  A    between atoms: C_5  and  O_6 
REMARK    3  A    between atoms: C_9  and  C_10 
REMARK    4  A    between atoms: C_10  and  N_11 
REMARK    5  A    between atoms: C_20  and  C_21 
REMARK    6  A    between atoms: C_21  and  N_22 
REMARK    7  A    between atoms: C_26  and  O_27 
REMARK    8  A    between atoms: C_26  and  C_28 
ROOT
HETATM    1  N   UNL     1      26.039  45.756  53.327  1.00  0.00    -0.061 N 
HETATM    2  H   UNL     1      25.106  46.183  53.334  1.00  0.00     0.280 HD
HETATM    3  C   UNL     1      25.836  44.346  53.843  1.00  0.00     0.276 C 
HETATM    4  C   UNL     1      27.053  43.473  53.687  1.00  0.00     0.002 A 
HETATM    5  C   UNL     1      28.196  43.759  54.433  1.00  0.00     0.076 A 
HETATM    6  O   UNL     1      28.204  44.820  55.296  1.00  0.00    -0.349 OA
HETATM    7  C   UNL     1      28.260  46.064  54.578  1.00  0.00     0.203 C 
HETATM    8  C   UNL     1      26.860  46.620  54.276  1.00  0.00     0.262 C 
HETATM    9  C   UNL     1      27.106  42.425  52.750  1.00  0.00     0.020 A 
HETATM   10  C   UNL     1      28.285  41.675  52.563  1.00  0.00    -0.032 A 
HETATM   11  C   UNL     1      29.399  41.958  53.370  1.00  0.00     0.011 A 
HETATM   12  C   UNL     1      29.347  42.987  54.314  1.00  0.00     0.038 A 
ENDROOT
BRANCH  10  13
HETATM   13  C   UNL     1      28.374  40.665  51.442  1.00  0.00     0.273 C 
BRANCH  13  14
HETATM   14  N   UNL     1      27.630  41.003  50.168  1.00  0.00    -0.067 N 
HETATM   15  H   UNL     1      27.379  42.000  50.216  1.00  0.00     0.280 HD
HETATM   16  C   UNL     1      28.476  40.811  48.930  1.00  0.00     0.238 C 
HETATM   17  C   UNL     1      27.663  41.154  47.696  1.00  0.00     0.071 C 
HETATM   18  C   UNL     1      26.411  40.262  47.564  1.00  0.00     0.089 C 
HETATM   19  C   UNL     1      25.570  40.498  48.833  1.00  0.00     0.071 C 
HETATM   20  C   UNL     1      26.334  40.219  50.117  1.00  0.00     0.238 C 
BRANCH  18  21
HETATM   21  O   UNL     1      25.648  40.795  46.481  1.00  0.00    -0.385 OA
HETATM   22  H   UNL     1      25.472  41.744  46.628  1.00  0.00     0.211 HD
ENDBRANCH  18  21
BRANCH  18  23
HETATM   23  C   UNL     1      26.756  38.814  47.239  1.00  0.00    -0.006 A 
HETATM   24  C   UNL     1      25.886  37.747  47.453  1.00  0.00     0.126 A 
HETATM   25  N   UNL     1      26.196  36.448  47.252  1.00  0.00    -0.272 NA
HETATM   26  C   UNL     1      27.405  36.174  46.723  1.00  0.00     0.116 A 
HETATM   27  C   UNL     1      28.326  37.151  46.404  1.00  0.00     0.020 A 
HETATM   28  C   UNL     1      27.994  38.480  46.663  1.00  0.00     0.013 A 
ENDBRANCH  18  23
ENDBRANCH  13  14
ENDBRANCH  10  13
BRANCH   1  29
HETATM   29  C   UNL     1      26.494  45.772  51.888  1.00  0.00     0.274 C 
BRANCH  29  30
HETATM   30  C   UNL     1      25.459  46.141  50.869  1.00  0.00    -0.027 A 
HETATM   31  C   UNL     1      24.691  45.135  50.266  1.00  0.00     0.045 A 
HETATM   32  C   UNL     1      23.616  45.451  49.431  1.00  0.00     0.071 A 
HETATM   33  C   UNL     1      23.318  46.786  49.157  1.00  0.00     0.073 A 
HETATM   34  C   UNL     1      24.074  47.801  49.747  1.00  0.00     0.071 A 
HETATM   35  C   UNL     1      25.136  47.476  50.599  1.00  0.00     0.045 A 
BRANCH  32  36
HETATM   36  O   UNL     1      22.939  44.362  48.958  1.00  0.00    -0.356 OA
HETATM   37  C   UNL     1      22.837  43.241  49.833  1.00  0.00     0.210 C 
ENDBRANCH  32  36
BRANCH  34  38
HETATM   38  O   UNL     1      23.881  49.145  49.592  1.00  0.00    -0.356 OA
HETATM   39  C   UNL     1      24.376  49.736  48.392  1.00  0.00     0.210 C 
ENDBRANCH  34  38
ENDBRANCH  29  30
ENDBRANCH   1  29
TORSDOF 8
ENDMDL
MODEL 9
REMARK VINA RESULT:      -8.4      3.266     10.005
REMARK  8 active torsions:
REMARK  status: ('A' for Active; 'I' for Inactive)
REMARK    1  A    between atoms: O_2  and  C_3 
REMARK    2  A    between atoms: C_5  and  O_6 
REMARK    3  A    between atoms: C_9  and  C_10 
REMARK    4  A    between atoms: C_10  and  N_11 
REMARK    5  A    between atoms: C_20  and  C_21 
REMARK    6  A    between atoms: C_21  and  N_22 
REMARK    7  A    between atoms: C_26  and  O_27 
REMARK    8  A    between atoms: C_26  and  C_28 
ROOT
HETATM    1  N   UNL     1      20.769  46.565  47.169  1.00  0.00    -0.061 N 
HETATM    2  H   UNL     1      20.573  47.421  46.637  1.00  0.00     0.280 HD
HETATM    3  C   UNL     1      22.016  45.980  46.539  1.00  0.00     0.276 C 
HETATM    4  C   UNL     1      22.605  44.842  47.328  1.00  0.00     0.002 A 
HETATM    5  C   UNL     1      21.896  43.645  47.431  1.00  0.00     0.076 A 
HETATM    6  O   UNL     1      20.681  43.515  46.817  1.00  0.00    -0.349 OA
HETATM    7  C   UNL     1      19.673  44.269  47.510  1.00  0.00     0.203 C 
HETATM    8  C   UNL     1      19.536  45.695  46.956  1.00  0.00     0.262 C 
HETATM    9  C   UNL     1      23.813  44.970  48.039  1.00  0.00     0.020 A 
HETATM   10  C   UNL     1      24.302  43.918  48.840  1.00  0.00    -0.032 A 
HETATM   11  C   UNL     1      23.587  42.710  48.875  1.00  0.00     0.011 A 
HETATM   12  C   UNL     1      22.396  42.571  48.158  1.00  0.00     0.038 A 
ENDROOT
BRANCH  10  13
HETATM   13  C   UNL     1      25.511  44.132  49.720  1.00  0.00     0.273 C 
BRANCH  13  14
HETATM   14  N   UNL     1      25.281  44.885  51.013  1.00  0.00    -0.067 N 
HETATM   15  H   UNL     1      24.388  45.389  50.918  1.00  0.00     0.280 HD
HETATM   16  C   UNL     1      25.154  43.968  52.208  1.00  0.00     0.238 C 
HETATM   17  C   UNL     1      24.939  44.791  53.465  1.00  0.00     0.071 C 
HETATM   18  C   UNL     1      26.111  45.761  53.726  1.00  0.00     0.089 C 
HETATM   19  C   UNL     1      26.196  46.686  52.497  1.00  0.00     0.071 C 
HETATM   20  C   UNL     1      26.365  45.929  51.190  1.00  0.00     0.238 C 
BRANCH  18  21
HETATM   21  O   UNL     1      25.712  46.591  54.817  1.00  0.00    -0.385 OA
HETATM   22  H   UNL     1      26.486  46.813  55.371  1.00  0.00     0.211 HD
ENDBRANCH  18  21
BRANCH  18  23
HETATM   23  C   UNL     1      27.392  45.037  54.119  1.00  0.00    -0.006 A 
HETATM   24  C   UNL     1      27.693  43.733  53.729  1.00  0.00     0.126 A 
HETATM   25  N   UNL     1      28.780  43.040  54.131  1.00  0.00    -0.272 NA
HETATM   26  C   UNL     1      29.682  43.689  54.893  1.00  0.00     0.116 A 
HETATM   27  C   UNL     1      29.528  45.003  55.286  1.00  0.00     0.020 A 
HETATM   28  C   UNL     1      28.375  45.679  54.892  1.00  0.00     0.013 A 
ENDBRANCH  18  23
ENDBRANCH  13  14
ENDBRANCH  10  13
BRANCH   1  29
HETATM   29  C   UNL     1      21.007  47.005  48.593  1.00  0.00     0.274 C 
BRANCH  29  30
HETATM   30  C   UNL     1      21.619  48.360  48.776  1.00  0.00    -0.027 A 
HETATM   31  C   UNL     1      23.006  48.477  48.945  1.00  0.00     0.045 A 
HETATM   32  C   UNL     1      23.627  49.728  48.962  1.00  0.00     0.071 A 
HETATM   33  C   UNL     1      22.860  50.888  48.847  1.00  0.00     0.073 A 
HETATM   34  C   UNL     1      21.477  50.790  48.680  1.00  0.00     0.071 A 
HETATM   35  C   UNL     1      20.865  49.532  48.642  1.00  0.00     0.045 A 
BRANCH  32  36
HETATM   36  O   UNL     1      24.988  49.673  49.090  1.00  0.00    -0.356 OA
HETATM   37  C   UNL     1      25.754  50.014  47.937  1.00  0.00     0.210 C 
ENDBRANCH  32  36
BRANCH  34  38
HETATM   38  O   UNL     1      20.607  51.833  48.528  1.00  0.00    -0.356 OA
HETATM   39  C   UNL     1      19.259  51.616  48.936  1.00  0.00     0.210 C 
ENDBRANCH  34  38
ENDBRANCH  29  30
ENDBRANCH   1  29
TORSDOF 8
ENDMDL
MODEL 10
REMARK VINA RESULT:      -8.3      3.295      4.890
REMARK  8 active torsions:
REMARK  status: ('A' for Active; 'I' for Inactive)
REMARK    1  A    between atoms: O_2  and  C_3 
REMARK    2  A    between atoms: C_5  and  O_6 
REMARK    3  A    between atoms: C_9  and  C_10 
REMARK    4  A    between atoms: C_10  and  N_11 
REMARK    5  A    between atoms: C_20  and  C_21 
REMARK    6  A    between atoms: C_21  and  N_22 
REMARK    7  A    between atoms: C_26  and  O_27 
REMARK    8  A    between atoms: C_26  and  C_28 
ROOT
HETATM    1  N   UNL     1      24.878  42.383  49.925  1.00  0.00    -0.061 N 
HETATM    2  H   UNL     1      25.219  42.120  50.857  1.00  0.00     0.280 HD
HETATM    3  C   UNL     1      23.432  42.788  50.130  1.00  0.00     0.276 C 
HETATM    4  C   UNL     1      22.816  43.435  48.918  1.00  0.00     0.002 A 
HETATM    5  C   UNL     1      22.613  42.673  47.768  1.00  0.00     0.076 A 
HETATM    6  O   UNL     1      22.968  41.353  47.750  1.00  0.00    -0.349 OA
HETATM    7  C   UNL     1      24.397  41.207  47.694  1.00  0.00     0.203 C 
HETATM    8  C   UNL     1      25.024  41.115  49.094  1.00  0.00     0.262 C 
HETATM    9  C   UNL     1      22.515  44.809  48.875  1.00  0.00     0.020 A 
HETATM   10  C   UNL     1      22.017  45.410  47.701  1.00  0.00    -0.032 A 
HETATM   11  C   UNL     1      21.775  44.598  46.580  1.00  0.00     0.011 A 
HETATM   12  C   UNL     1      22.057  43.230  46.622  1.00  0.00     0.038 A 
ENDROOT
BRANCH  10  13
HETATM   13  C   UNL     1      21.854  46.910  47.625  1.00  0.00     0.273 C 
BRANCH  13  14
HETATM   14  N   UNL     1      21.103  47.567  48.764  1.00  0.00    -0.067 N 
HETATM   15  H   UNL     1      21.417  47.117  49.636  1.00  0.00     0.280 HD
HETATM   16  C   UNL     1      21.404  49.043  48.886  1.00  0.00     0.238 C 
HETATM   17  C   UNL     1      20.609  49.634  50.036  1.00  0.00     0.071 C 
HETATM   18  C   UNL     1      19.089  49.469  49.830  1.00  0.00     0.089 C 
HETATM   19  C   UNL     1      18.822  47.955  49.727  1.00  0.00     0.071 C 
HETATM   20  C   UNL     1      19.622  47.282  48.623  1.00  0.00     0.238 C 
BRANCH  18  21
HETATM   21  O   UNL     1      18.468  49.896  51.043  1.00  0.00    -0.385 OA
HETATM   22  H   UNL     1      17.808  50.592  50.856  1.00  0.00     0.211 HD
ENDBRANCH  18  21
BRANCH  18  23
HETATM   23  C   UNL     1      18.557  50.330  48.691  1.00  0.00    -0.006 A 
HETATM   24  C   UNL     1      17.637  49.879  47.747  1.00  0.00     0.126 A 
HETATM   25  N   UNL     1      17.213  50.593  46.682  1.00  0.00    -0.272 NA
HETATM   26  C   UNL     1      17.644  51.864  46.577  1.00  0.00     0.116 A 
HETATM   27  C   UNL     1      18.502  52.446  47.488  1.00  0.00     0.020 A 
HETATM   28  C   UNL     1      18.957  51.670  48.553  1.00  0.00     0.013 A 
ENDBRANCH  18  23
ENDBRANCH  13  14
ENDBRANCH  10  13
BRANCH   1  29
HETATM   29  C   UNL     1      25.733  43.545  49.480  1.00  0.00     0.274 C 
BRANCH  29  30
HETATM   30  C   UNL     1      25.791  44.720  50.408  1.00  0.00    -0.027 A 
HETATM   31  C   UNL     1      25.909  44.508  51.789  1.00  0.00     0.045 A 
HETATM   32  C   UNL     1      26.122  45.574  52.666  1.00  0.00     0.071 A 
HETATM   33  C   UNL     1      26.182  46.878  52.175  1.00  0.00     0.073 A 
HETATM   34  C   UNL     1      26.064  47.108  50.803  1.00  0.00     0.071 A 
HETATM   35  C   UNL     1      25.872  46.033  49.928  1.00  0.00     0.045 A 
BRANCH  32  36
HETATM   36  O   UNL     1      26.261  45.200  53.974  1.00  0.00    -0.356 OA
HETATM   37  C   UNL     1      25.226  44.388  54.522  1.00  0.00     0.210 C 
ENDBRANCH  32  36
BRANCH  34  38
HETATM   38  O   UNL     1      26.129  48.323  50.180  1.00  0.00    -0.356 OA
HETATM   39  C   UNL     1      27.191  48.516  49.248  1.00  0.00     0.210 C 
ENDBRANCH  34  38
ENDBRANCH  29  30
ENDBRANCH   1  29
TORSDOF 8
ENDMDL
