MODEL 1
REMARK VINA RESULT:     -10.0      0.000      0.000
REMARK  6 active torsions:
REMARK  status: ('A' for Active; 'I' for Inactive)
REMARK    1  A    between atoms: C_2  and  C_3 
REMARK    2  A    between atoms: C_7  and  C_8 
REMARK       I    between atoms: C_8  and  N_9 
REMARK    3  A    between atoms: N_9  and  C_10 
REMARK    4  A    between atoms: C_13  and  C_14 
REMARK       I    between atoms: C_14  and  N_15 
REMARK    5  A    between atoms: N_15  and  C_16 
REMARK    6  A    between atoms: C_16  and  C_17 
ROOT
HETATM    1  C   UNL     1      24.877  46.535  50.618  1.00  0.00     0.035 A 
HETATM    2  C   UNL     1      25.403  45.575  49.751  1.00  0.00     0.030 A 
HETATM    3  C   UNL     1      26.384  44.675  50.189  1.00  0.00     0.019 A 
HETATM    4  C   UNL     1      26.845  44.725  51.508  1.00  0.00     0.032 A 
HETATM    5  C   UNL     1      26.349  45.708  52.369  1.00  0.00     0.019 A 
HETATM    6  C   UNL     1      25.370  46.604  51.927  1.00  0.00     0.030 A 
ENDROOT
BRANCH   1   7
HETATM    7  N   UNL     1      23.862  47.448  50.270  1.00  0.00    -0.322 N 
HETATM    8  C   UNL     1      23.993  48.651  49.603  1.00  0.00     0.274 C 
HETATM    9  O   UNL     1      25.052  49.141  49.227  1.00  0.00    -0.266 OA
HETATM   10  H   UNL     1      22.921  47.168  50.509  1.00  0.00     0.169 HD
BRANCH   8  11
HETATM   11  C   UNL     1      22.744  49.330  49.347  1.00  0.00     0.120 A 
HETATM   12  N   UNL     1      21.545  48.693  49.530  1.00  0.00    -0.273 N 
HETATM   13  N   UNL     1      20.471  49.453  49.260  1.00  0.00    -0.179 NA
HETATM   14  H   UNL     1      21.406  47.737  49.841  1.00  0.00     0.189 HD
HETATM   15  C   UNL     1      20.992  50.626  48.885  1.00  0.00     0.056 A 
HETATM   16  C   UNL     1      22.407  50.601  48.921  1.00  0.00     0.065 A 
BRANCH  15  17
HETATM   17  C   UNL     1      20.103  51.760  48.498  1.00  0.00     0.056 C 
HETATM   18  C   UNL     1      18.955  51.953  49.477  1.00  0.00     0.011 C 
ENDBRANCH  15  17
ENDBRANCH   8  11
ENDBRANCH   1   7
BRANCH   4  19
HETATM   19  C   UNL     1      27.839  43.757  52.049  1.00  0.00     0.251 C 
HETATM   20  N   UNL     1      28.486  44.126  53.206  1.00  0.00    -0.353 N 
HETATM   21  H   UNL     1      28.267  44.997  53.668  1.00  0.00     0.163 HD
HETATM   22  O   UNL     1      28.086  42.724  51.438  1.00  0.00    -0.268 OA
BRANCH  20  23
HETATM   23  C   UNL     1      29.548  43.317  53.763  1.00  0.00     0.161 C 
BRANCH  23  24
HETATM   24  C   UNL     1      29.996  43.838  55.107  1.00  0.00    -0.040 A 
HETATM   25  C   UNL     1      30.943  43.129  55.863  1.00  0.00     0.012 A 
HETATM   26  C   UNL     1      31.379  43.623  57.094  1.00  0.00     0.043 A 
HETATM   27  C   UNL     1      30.874  44.827  57.569  1.00  0.00     0.116 A 
HETATM   28  F   UNL     1      31.293  45.298  58.751  1.00  0.00    -0.206 F 
HETATM   29  C   UNL     1      29.947  45.554  56.833  1.00  0.00     0.043 A 
HETATM   30  C   UNL     1      29.515  45.065  55.599  1.00  0.00     0.012 A 
ENDBRANCH  23  24
ENDBRANCH  20  23
ENDBRANCH   4  19
TORSDOF 6
ENDMDL
MODEL 2
REMARK VINA RESULT:      -9.0      6.715     13.277
REMARK  6 active torsions:
REMARK  status: ('A' for Active; 'I' for Inactive)
REMARK    1  A    between atoms: C_2  and  C_3 
REMARK    2  A    between atoms: C_7  and  C_8 
REMARK       I    between atoms: C_8  and  N_9 
REMARK    3  A    between atoms: N_9  and  C_10 
REMARK    4  A    between atoms: C_13  and  C_14 
REMARK       I    between atoms: C_14  and  N_15 
REMARK    5  A    between atoms: N_15  and  C_16 
REMARK    6  A    between atoms: C_16  and  C_17 
ROOT
HETATM    1  C   UNL     1      20.439  50.775  49.456  1.00  0.00     0.035 A 
HETATM    2  C   UNL     1      20.201  51.828  48.570  1.00  0.00     0.030 A 
HETATM    3  C   UNL     1      18.941  52.440  48.508  1.00  0.00     0.019 A 
HETATM    4  C   UNL     1      17.905  52.004  49.339  1.00  0.00     0.032 A 
HETATM    5  C   UNL     1      18.128  50.926  50.200  1.00  0.00     0.019 A 
HETATM    6  C   UNL     1      19.386  50.318  50.259  1.00  0.00     0.030 A 
ENDROOT
BRANCH   1   7
HETATM    7  N   UNL     1      21.684  50.134  49.610  1.00  0.00    -0.322 N 
HETATM    8  C   UNL     1      22.119  48.966  49.013  1.00  0.00     0.274 C 
HETATM    9  O   UNL     1      21.454  48.267  48.257  1.00  0.00    -0.266 OA
HETATM   10  H   UNL     1      22.349  50.609  50.204  1.00  0.00     0.169 HD
BRANCH   8  11
HETATM   11  C   UNL     1      23.479  48.602  49.336  1.00  0.00     0.120 A 
HETATM   12  N   UNL     1      23.749  47.651  50.284  1.00  0.00    -0.273 N 
HETATM   13  N   UNL     1      25.058  47.414  50.468  1.00  0.00    -0.179 NA
HETATM   14  H   UNL     1      23.072  47.132  50.834  1.00  0.00     0.189 HD
HETATM   15  C   UNL     1      25.660  48.243  49.610  1.00  0.00     0.056 A 
HETATM   16  C   UNL     1      24.719  49.008  48.880  1.00  0.00     0.065 A 
BRANCH  15  17
HETATM   17  C   UNL     1      27.148  48.278  49.510  1.00  0.00     0.056 C 
HETATM   18  C   UNL     1      27.656  49.590  48.931  1.00  0.00     0.011 C 
ENDBRANCH  15  17
ENDBRANCH   8  11
ENDBRANCH   1   7
BRANCH   4  19
HETATM   19  C   UNL     1      16.566  52.653  49.363  1.00  0.00     0.251 C 
HETATM   20  N   UNL     1      16.239  53.342  50.509  1.00  0.00    -0.353 N 
HETATM   21  H   UNL     1      16.894  53.417  51.273  1.00  0.00     0.163 HD
HETATM   22  O   UNL     1      15.798  52.512  48.419  1.00  0.00    -0.268 OA
BRANCH  20  23
HETATM   23  C   UNL     1      14.926  53.920  50.688  1.00  0.00     0.161 C 
BRANCH  23  24
HETATM   24  C   UNL     1      15.009  55.344  51.181  1.00  0.00    -0.040 A 
HETATM   25  C   UNL     1      14.929  55.625  52.555  1.00  0.00     0.012 A 
HETATM   26  C   UNL     1      15.034  56.939  53.015  1.00  0.00     0.043 A 
HETATM   27  C   UNL     1      15.223  57.973  52.107  1.00  0.00     0.116 A 
HETATM   28  F   UNL     1      15.322  59.233  52.551  1.00  0.00    -0.206 F 
HETATM   29  C   UNL     1      15.320  57.718  50.745  1.00  0.00     0.043 A 
HETATM   30  C   UNL     1      15.222  56.406  50.283  1.00  0.00     0.012 A 
ENDBRANCH  23  24
ENDBRANCH  20  23
ENDBRANCH   4  19
TORSDOF 6
ENDMDL
MODEL 3
REMARK VINA RESULT:      -8.9      3.842     10.662
REMARK  6 active torsions:
REMARK  status: ('A' for Active; 'I' for Inactive)
REMARK    1  A    between atoms: C_2  and  C_3 
REMARK    2  A    between atoms: C_7  and  C_8 
REMARK       I    between atoms: C_8  and  N_9 
REMARK    3  A    between atoms: N_9  and  C_10 
REMARK    4  A    between atoms: C_13  and  C_14 
REMARK       I    between atoms: C_14  and  N_15 
REMARK    5  A    between atoms: N_15  and  C_16 
REMARK    6  A    between atoms: C_16  and  C_17 
ROOT
HETATM    1  C   UNL     1      25.965  45.682  51.792  1.00  0.00     0.035 A 
HETATM    2  C   UNL     1      25.033  44.728  51.377  1.00  0.00     0.030 A 
HETATM    3  C   UNL     1      24.052  45.053  50.429  1.00  0.00     0.019 A 
HETATM    4  C   UNL     1      23.998  46.339  49.884  1.00  0.00     0.032 A 
HETATM    5  C   UNL     1      24.905  47.306  50.325  1.00  0.00     0.019 A 
HETATM    6  C   UNL     1      25.882  46.979  51.270  1.00  0.00     0.030 A 
ENDROOT
BRANCH   1   7
HETATM    7  N   UNL     1      27.006  45.428  52.707  1.00  0.00    -0.322 N 
HETATM    8  C   UNL     1      27.087  45.814  54.032  1.00  0.00     0.274 C 
HETATM    9  O   UNL     1      26.252  46.486  54.626  1.00  0.00    -0.266 OA
HETATM   10  H   UNL     1      27.767  44.864  52.357  1.00  0.00     0.169 HD
BRANCH   8  11
HETATM   11  C   UNL     1      28.267  45.342  54.718  1.00  0.00     0.120 A 
HETATM   12  N   UNL     1      28.897  46.119  55.654  1.00  0.00    -0.273 N 
HETATM   13  N   UNL     1      29.974  45.544  56.214  1.00  0.00    -0.179 NA
HETATM   14  H   UNL     1      28.628  47.052  55.950  1.00  0.00     0.189 HD
HETATM   15  C   UNL     1      30.047  44.350  55.617  1.00  0.00     0.056 A 
HETATM   16  C   UNL     1      29.006  44.175  54.674  1.00  0.00     0.065 A 
BRANCH  15  17
HETATM   17  C   UNL     1      31.133  43.391  55.975  1.00  0.00     0.056 C 
HETATM   18  C   UNL     1      31.627  43.585  57.401  1.00  0.00     0.011 C 
ENDBRANCH  15  17
ENDBRANCH   8  11
ENDBRANCH   1   7
BRANCH   4  19
HETATM   19  C   UNL     1      23.020  46.724  48.830  1.00  0.00     0.251 C 
HETATM   20  N   UNL     1      22.705  48.062  48.746  1.00  0.00    -0.353 N 
HETATM   21  H   UNL     1      23.144  48.737  49.355  1.00  0.00     0.163 HD
HETATM   22  O   UNL     1      22.497  45.864  48.133  1.00  0.00    -0.268 OA
BRANCH  20  23
HETATM   23  C   UNL     1      21.688  48.538  47.835  1.00  0.00     0.161 C 
BRANCH  23  24
HETATM   24  C   UNL     1      20.818  49.591  48.477  1.00  0.00    -0.040 A 
HETATM   25  C   UNL     1      20.040  49.279  49.604  1.00  0.00     0.012 A 
HETATM   26  C   UNL     1      19.256  50.259  50.216  1.00  0.00     0.043 A 
HETATM   27  C   UNL     1      19.251  51.552  49.707  1.00  0.00     0.116 A 
HETATM   28  F   UNL     1      18.496  52.490  50.295  1.00  0.00    -0.206 F 
HETATM   29  C   UNL     1      20.022  51.888  48.602  1.00  0.00     0.043 A 
HETATM   30  C   UNL     1      20.812  50.912  47.993  1.00  0.00     0.012 A 
ENDBRANCH  23  24
ENDBRANCH  20  23
ENDBRANCH   4  19
TORSDOF 6
ENDMDL
MODEL 4
REMARK VINA RESULT:      -8.7      3.814     10.951
REMARK  6 active torsions:
REMARK  status: ('A' for Active; 'I' for Inactive)
REMARK    1  A    between atoms: C_2  and  C_3 
REMARK    2  A    between atoms: C_7  and  C_8 
REMARK       I    between atoms: C_8  and  N_9 
REMARK    3  A    between atoms: N_9  and  C_10 
REMARK    4  A    between atoms: C_13  and  C_14 
REMARK       I    between atoms: C_14  and  N_15 
REMARK    5  A    between atoms: N_15  and  C_16 
REMARK    6  A    between atoms: C_16  and  C_17 
ROOT
HETATM    1  C   UNL     1      25.855  46.960  50.581  1.00  0.00     0.035 A 
HETATM    2  C   UNL     1      26.529  47.969  49.889  1.00  0.00     0.030 A 
HETATM    3  C   UNL     1      25.831  48.849  49.049  1.00  0.00     0.019 A 
HETATM    4  C   UNL     1      24.447  48.729  48.897  1.00  0.00     0.032 A 
HETATM    5  C   UNL     1      23.775  47.697  49.558  1.00  0.00     0.019 A 
HETATM    6  C   UNL     1      24.474  46.821  50.395  1.00  0.00     0.030 A 
ENDROOT
BRANCH   1   7
HETATM    7  N   UNL     1      26.472  46.063  51.473  1.00  0.00    -0.322 N 
HETATM    8  C   UNL     1      26.530  44.684  51.389  1.00  0.00     0.274 C 
HETATM    9  O   UNL     1      26.009  44.005  50.512  1.00  0.00    -0.266 OA
HETATM   10  H   UNL     1      26.961  46.485  52.250  1.00  0.00     0.169 HD
BRANCH   8  11
HETATM   11  C   UNL     1      27.294  44.054  52.441  1.00  0.00     0.120 A 
HETATM   12  N   UNL     1      26.671  43.383  53.460  1.00  0.00    -0.273 N 
HETATM   13  N   UNL     1      27.511  42.843  54.358  1.00  0.00    -0.179 NA
HETATM   14  H   UNL     1      25.671  43.262  53.586  1.00  0.00     0.189 HD
HETATM   15  C   UNL     1      28.724  43.179  53.907  1.00  0.00     0.056 A 
HETATM   16  C   UNL     1      28.644  43.937  52.715  1.00  0.00     0.065 A 
BRANCH  15  17
HETATM   17  C   UNL     1      29.949  42.754  54.646  1.00  0.00     0.056 C 
HETATM   18  C   UNL     1      30.385  43.783  55.679  1.00  0.00     0.011 C 
ENDBRANCH  15  17
ENDBRANCH   8  11
ENDBRANCH   1   7
BRANCH   4  19
HETATM   19  C   UNL     1      23.645  49.670  48.069  1.00  0.00     0.251 C 
HETATM   20  N   UNL     1      22.276  49.542  48.148  1.00  0.00    -0.353 N 
HETATM   21  H   UNL     1      21.854  48.859  48.761  1.00  0.00     0.163 HD
HETATM   22  O   UNL     1      24.205  50.464  47.324  1.00  0.00    -0.268 OA
BRANCH  20  23
HETATM   23  C   UNL     1      21.399  50.327  47.308  1.00  0.00     0.161 C 
BRANCH  23  24
HETATM   24  C   UNL     1      20.318  51.004  48.115  1.00  0.00    -0.040 A 
HETATM   25  C   UNL     1      19.278  51.693  47.471  1.00  0.00     0.012 A 
HETATM   26  C   UNL     1      18.262  52.297  48.215  1.00  0.00     0.043 A 
HETATM   27  C   UNL     1      18.280  52.209  49.601  1.00  0.00     0.116 A 
HETATM   28  F   UNL     1      17.305  52.790  50.312  1.00  0.00    -0.206 F 
HETATM   29  C   UNL     1      19.291  51.521  50.261  1.00  0.00     0.043 A 
HETATM   30  C   UNL     1      20.303  50.911  49.519  1.00  0.00     0.012 A 
ENDBRANCH  23  24
ENDBRANCH  20  23
ENDBRANCH   4  19
TORSDOF 6
ENDMDL
MODEL 5
REMARK VINA RESULT:      -8.1      3.832     10.799
REMARK  6 active torsions:
REMARK  status: ('A' for Active; 'I' for Inactive)
REMARK    1  A    between atoms: C_2  and  C_3 
REMARK    2  A    between atoms: C_7  and  C_8 
REMARK       I    between atoms: C_8  and  N_9 
REMARK    3  A    between atoms: N_9  and  C_10 
REMARK    4  A    between atoms: C_13  and  C_14 
REMARK       I    between atoms: C_14  and  N_15 
REMARK    5  A    between atoms: N_15  and  C_16 
REMARK    6  A    between atoms: C_16  and  C_17 
ROOT
HETATM    1  C   UNL     1      25.721  45.933  50.905  1.00  0.00     0.035 A 
HETATM    2  C   UNL     1      25.752  47.281  50.541  1.00  0.00     0.030 A 
HETATM    3  C   UNL     1      24.728  47.836  49.760  1.00  0.00     0.019 A 
HETATM    4  C   UNL     1      23.657  47.043  49.339  1.00  0.00     0.032 A 
HETATM    5  C   UNL     1      23.641  45.685  49.669  1.00  0.00     0.019 A 
HETATM    6  C   UNL     1      24.664  45.136  50.448  1.00  0.00     0.030 A 
ENDROOT
BRANCH   1   7
HETATM    7  N   UNL     1      26.686  45.309  51.719  1.00  0.00    -0.322 N 
HETATM    8  C   UNL     1      26.659  45.136  53.090  1.00  0.00     0.274 C 
HETATM    9  O   UNL     1      25.776  45.540  53.838  1.00  0.00    -0.266 OA
HETATM   10  H   UNL     1      27.476  44.910  51.232  1.00  0.00     0.169 HD
BRANCH   8  11
HETATM   11  C   UNL     1      27.782  44.398  53.620  1.00  0.00     0.120 A 
HETATM   12  N   UNL     1      28.203  43.235  53.032  1.00  0.00    -0.273 N 
HETATM   13  N   UNL     1      29.263  42.667  53.630  1.00  0.00    -0.179 NA
HETATM   14  H   UNL     1      27.800  42.786  52.215  1.00  0.00     0.189 HD
HETATM   15  C   UNL     1      29.539  43.491  54.646  1.00  0.00     0.056 A 
HETATM   16  C   UNL     1      28.643  44.586  54.685  1.00  0.00     0.065 A 
BRANCH  15  17
HETATM   17  C   UNL     1      30.675  43.200  55.568  1.00  0.00     0.056 C 
HETATM   18  C   UNL     1      30.950  44.351  56.524  1.00  0.00     0.011 C 
ENDBRANCH  15  17
ENDBRANCH   8  11
ENDBRANCH   1   7
BRANCH   4  19
HETATM   19  C   UNL     1      22.510  47.588  48.562  1.00  0.00     0.251 C 
HETATM   20  N   UNL     1      21.254  47.333  49.063  1.00  0.00    -0.353 N 
HETATM   21  H   UNL     1      21.133  46.826  49.927  1.00  0.00     0.163 HD
HETATM   22  O   UNL     1      22.708  48.176  47.505  1.00  0.00    -0.268 OA
BRANCH  20  23
HETATM   23  C   UNL     1      20.064  47.719  48.336  1.00  0.00     0.161 C 
BRANCH  23  24
HETATM   24  C   UNL     1      19.548  49.063  48.791  1.00  0.00    -0.040 A 
HETATM   25  C   UNL     1      20.288  49.837  49.699  1.00  0.00     0.012 A 
HETATM   26  C   UNL     1      19.826  51.092  50.100  1.00  0.00     0.043 A 
HETATM   27  C   UNL     1      18.627  51.577  49.592  1.00  0.00     0.116 A 
HETATM   28  F   UNL     1      18.185  52.781  49.979  1.00  0.00    -0.206 F 
HETATM   29  C   UNL     1      17.884  50.836  48.682  1.00  0.00     0.043 A 
HETATM   30  C   UNL     1      18.348  49.585  48.275  1.00  0.00     0.012 A 
ENDBRANCH  23  24
ENDBRANCH  20  23
ENDBRANCH   4  19
TORSDOF 6
ENDMDL
MODEL 6
REMARK VINA RESULT:      -8.1      2.795      3.272
REMARK  6 active torsions:
REMARK  status: ('A' for Active; 'I' for Inactive)
REMARK    1  A    between atoms: C_2  and  C_3 
REMARK    2  A    between atoms: C_7  and  C_8 
REMARK       I    between atoms: C_8  and  N_9 
REMARK    3  A    between atoms: N_9  and  C_10 
REMARK    4  A    between atoms: C_13  and  C_14 
REMARK       I    between atoms: C_14  and  N_15 
REMARK    5  A    between atoms: N_15  and  C_16 
REMARK    6  A    between atoms: C_16  and  C_17 
ROOT
HETATM    1  C   UNL     1      24.423  44.348  50.500  1.00  0.00     0.035 A 
HETATM    2  C   UNL     1      24.729  44.622  51.835  1.00  0.00     0.030 A 
HETATM    3  C   UNL     1      25.874  44.076  52.433  1.00  0.00     0.019 A 
HETATM    4  C   UNL     1      26.728  43.251  51.695  1.00  0.00     0.032 A 
HETATM    5  C   UNL     1      26.405  42.944  50.371  1.00  0.00     0.019 A 
HETATM    6  C   UNL     1      25.263  43.491  49.778  1.00  0.00     0.030 A 
ENDROOT
BRANCH   1   7
HETATM    7  N   UNL     1      23.318  44.888  49.813  1.00  0.00    -0.322 N 
HETATM    8  C   UNL     1      22.291  44.207  49.187  1.00  0.00     0.274 C 
HETATM    9  O   UNL     1      22.196  42.987  49.104  1.00  0.00    -0.266 OA
HETATM   10  H   UNL     1      23.255  45.896  49.810  1.00  0.00     0.169 HD
BRANCH   8  11
HETATM   11  C   UNL     1      21.271  45.058  48.619  1.00  0.00     0.120 A 
HETATM   12  N   UNL     1      20.270  45.575  49.398  1.00  0.00    -0.273 N 
HETATM   13  N   UNL     1      19.402  46.354  48.732  1.00  0.00    -0.179 NA
HETATM   14  H   UNL     1      20.136  45.428  50.393  1.00  0.00     0.189 HD
HETATM   15  C   UNL     1      19.854  46.340  47.475  1.00  0.00     0.056 A 
HETATM   16  C   UNL     1      21.018  45.544  47.350  1.00  0.00     0.065 A 
BRANCH  15  17
HETATM   17  C   UNL     1      19.147  47.105  46.407  1.00  0.00     0.056 C 
HETATM   18  C   UNL     1      18.712  48.485  46.879  1.00  0.00     0.011 C 
ENDBRANCH  15  17
ENDBRANCH   8  11
ENDBRANCH   1   7
BRANCH   4  19
HETATM   19  C   UNL     1      27.989  42.693  52.256  1.00  0.00     0.251 C 
HETATM   20  N   UNL     1      28.415  43.224  53.452  1.00  0.00    -0.353 N 
HETATM   21  H   UNL     1      27.876  43.934  53.926  1.00  0.00     0.163 HD
HETATM   22  O   UNL     1      28.619  41.849  51.630  1.00  0.00    -0.268 OA
BRANCH  20  23
HETATM   23  C   UNL     1      29.680  42.837  54.037  1.00  0.00     0.161 C 
BRANCH  23  24
HETATM   24  C   UNL     1      30.036  43.710  55.216  1.00  0.00    -0.040 A 
HETATM   25  C   UNL     1      29.380  44.935  55.415  1.00  0.00     0.012 A 
HETATM   26  C   UNL     1      29.688  45.731  56.520  1.00  0.00     0.043 A 
HETATM   27  C   UNL     1      30.648  45.303  57.429  1.00  0.00     0.116 A 
HETATM   28  F   UNL     1      30.943  46.070  58.488  1.00  0.00    -0.206 F 
HETATM   29  C   UNL     1      31.301  44.089  57.261  1.00  0.00     0.043 A 
HETATM   30  C   UNL     1      30.989  43.289  56.161  1.00  0.00     0.012 A 
ENDBRANCH  23  24
ENDBRANCH  20  23
ENDBRANCH   4  19
TORSDOF 6
ENDMDL
MODEL 7
REMARK VINA RESULT:      -7.9      4.267      5.588
REMARK  6 active torsions:
REMARK  status: ('A' for Active; 'I' for Inactive)
REMARK    1  A    between atoms: C_2  and  C_3 
REMARK    2  A    between atoms: C_7  and  C_8 
REMARK       I    between atoms: C_8  and  N_9 
REMARK    3  A    between atoms: N_9  and  C_10 
REMARK    4  A    between atoms: C_13  and  C_14 
REMARK       I    between atoms: C_14  and  N_15 
REMARK    5  A    between atoms: N_15  and  C_16 
REMARK    6  A    between atoms: C_16  and  C_17 
ROOT
HETATM    1  C   UNL     1      24.503  46.243  50.045  1.00  0.00     0.035 A 
HETATM    2  C   UNL     1      24.739  45.184  49.167  1.00  0.00     0.030 A 
HETATM    3  C   UNL     1      25.705  44.211  49.461  1.00  0.00     0.019 A 
HETATM    4  C   UNL     1      26.444  44.289  50.645  1.00  0.00     0.032 A 
HETATM    5  C   UNL     1      26.238  45.369  51.509  1.00  0.00     0.019 A 
HETATM    6  C   UNL     1      25.273  46.336  51.212  1.00  0.00     0.030 A 
ENDROOT
BRANCH   1   7
HETATM    7  N   UNL     1      23.525  47.237  49.846  1.00  0.00    -0.322 N 
HETATM    8  C   UNL     1      23.715  48.553  49.469  1.00  0.00     0.274 C 
HETATM    9  O   UNL     1      24.802  49.085  49.275  1.00  0.00    -0.266 OA
HETATM   10  H   UNL     1      22.567  46.936  49.958  1.00  0.00     0.169 HD
BRANCH   8  11
HETATM   11  C   UNL     1      22.493  49.304  49.292  1.00  0.00     0.120 A 
HETATM   12  N   UNL     1      21.274  48.742  49.560  1.00  0.00    -0.273 N 
HETATM   13  N   UNL     1      20.231  49.564  49.358  1.00  0.00    -0.179 NA
HETATM   14  H   UNL     1      21.099  47.797  49.888  1.00  0.00     0.189 HD
HETATM   15  C   UNL     1      20.795  50.702  48.940  1.00  0.00     0.056 A 
HETATM   16  C   UNL     1      22.205  50.592  48.880  1.00  0.00     0.065 A 
BRANCH  15  17
HETATM   17  C   UNL     1      19.950  51.885  48.605  1.00  0.00     0.056 C 
HETATM   18  C   UNL     1      18.731  51.998  49.508  1.00  0.00     0.011 C 
ENDBRANCH  15  17
ENDBRANCH   8  11
ENDBRANCH   1   7
BRANCH   4  19
HETATM   19  C   UNL     1      27.438  43.255  51.042  1.00  0.00     0.251 C 
HETATM   20  N   UNL     1      27.316  42.024  50.438  1.00  0.00    -0.353 N 
HETATM   21  H   UNL     1      26.602  41.856  49.744  1.00  0.00     0.163 HD
HETATM   22  O   UNL     1      28.270  43.502  51.907  1.00  0.00    -0.268 OA
BRANCH  20  23
HETATM   23  C   UNL     1      28.156  40.912  50.824  1.00  0.00     0.161 C 
BRANCH  23  24
HETATM   24  C   UNL     1      28.022  39.756  49.862  1.00  0.00    -0.040 A 
HETATM   25  C   UNL     1      29.157  39.223  49.232  1.00  0.00     0.012 A 
HETATM   26  C   UNL     1      29.039  38.135  48.364  1.00  0.00     0.043 A 
HETATM   27  C   UNL     1      27.788  37.577  48.128  1.00  0.00     0.116 A 
HETATM   28  F   UNL     1      27.678  36.535  47.293  1.00  0.00    -0.206 F 
HETATM   29  C   UNL     1      26.653  38.078  48.751  1.00  0.00     0.043 A 
HETATM   30  C   UNL     1      26.770  39.160  49.624  1.00  0.00     0.012 A 
ENDBRANCH  23  24
ENDBRANCH  20  23
ENDBRANCH   4  19
TORSDOF 6
ENDMDL
MODEL 8
REMARK VINA RESULT:      -7.7      2.032      2.776
REMARK  6 active torsions:
REMARK  status: ('A' for Active; 'I' for Inactive)
REMARK    1  A    between atoms: C_2  and  C_3 
REMARK    2  A    between atoms: C_7  and  C_8 
REMARK       I    between atoms: C_8  and  N_9 
REMARK    3  A    between atoms: N_9  and  C_10 
REMARK    4  A    between atoms: C_13  and  C_14 
REMARK       I    between atoms: C_14  and  N_15 
REMARK    5  A    between atoms: N_15  and  C_16 
REMARK    6  A    between atoms: C_16  and  C_17 
ROOT
HETATM    1  C   UNL     1      23.185  46.558  49.467  1.00  0.00     0.035 A 
HETATM    2  C   UNL     1      24.373  46.975  50.071  1.00  0.00     0.030 A 
HETATM    3  C   UNL     1      25.296  46.038  50.557  1.00  0.00     0.019 A 
HETATM    4  C   UNL     1      25.039  44.669  50.437  1.00  0.00     0.032 A 
HETATM    5  C   UNL     1      23.833  44.248  49.868  1.00  0.00     0.019 A 
HETATM    6  C   UNL     1      22.916  45.186  49.384  1.00  0.00     0.030 A 
ENDROOT
BRANCH   1   7
HETATM    7  N   UNL     1      22.226  47.431  48.917  1.00  0.00    -0.322 N 
HETATM    8  C   UNL     1      21.768  47.479  47.614  1.00  0.00     0.274 C 
HETATM    9  O   UNL     1      22.161  46.767  46.698  1.00  0.00    -0.266 OA
HETATM   10  H   UNL     1      21.799  48.075  49.567  1.00  0.00     0.169 HD
BRANCH   8  11
HETATM   11  C   UNL     1      20.731  48.459  47.383  1.00  0.00     0.120 A 
HETATM   12  N   UNL     1      19.658  48.175  46.581  1.00  0.00    -0.273 N 
HETATM   13  N   UNL     1      18.774  49.179  46.468  1.00  0.00    -0.179 NA
HETATM   14  H   UNL     1      19.481  47.306  46.088  1.00  0.00     0.189 HD
HETATM   15  C   UNL     1      19.293  50.153  47.223  1.00  0.00     0.056 A 
HETATM   16  C   UNL     1      20.516  49.755  47.815  1.00  0.00     0.065 A 
BRANCH  15  17
HETATM   17  C   UNL     1      18.590  51.461  47.360  1.00  0.00     0.056 C 
HETATM   18  C   UNL     1      19.232  52.354  48.411  1.00  0.00     0.011 C 
ENDBRANCH  15  17
ENDBRANCH   8  11
ENDBRANCH   1   7
BRANCH   4  19
HETATM   19  C   UNL     1      26.007  43.628  50.877  1.00  0.00     0.251 C 
HETATM   20  N   UNL     1      27.185  44.079  51.427  1.00  0.00    -0.353 N 
HETATM   21  H   UNL     1      27.357  45.067  51.545  1.00  0.00     0.163 HD
HETATM   22  O   UNL     1      25.761  42.442  50.689  1.00  0.00    -0.268 OA
BRANCH  20  23
HETATM   23  C   UNL     1      28.244  43.163  51.789  1.00  0.00     0.161 C 
BRANCH  23  24
HETATM   24  C   UNL     1      28.897  43.558  53.092  1.00  0.00    -0.040 A 
HETATM   25  C   UNL     1      28.296  44.514  53.926  1.00  0.00     0.012 A 
HETATM   26  C   UNL     1      28.884  44.860  55.144  1.00  0.00     0.043 A 
HETATM   27  C   UNL     1      30.071  44.250  55.532  1.00  0.00     0.116 A 
HETATM   28  F   UNL     1      30.634  44.586  56.700  1.00  0.00    -0.206 F 
HETATM   29  C   UNL     1      30.677  43.292  54.731  1.00  0.00     0.043 A 
HETATM   30  C   UNL     1      30.087  42.939  53.517  1.00  0.00     0.012 A 
ENDBRANCH  23  24
ENDBRANCH  20  23
ENDBRANCH   4  19
TORSDOF 6
ENDMDL
MODEL 9
REMARK VINA RESULT:      -7.6      4.312     11.319
REMARK  6 active torsions:
REMARK  status: ('A' for Active; 'I' for Inactive)
REMARK    1  A    between atoms: C_2  and  C_3 
REMARK    2  A    between atoms: C_7  and  C_8 
REMARK       I    between atoms: C_8  and  N_9 
REMARK    3  A    between atoms: N_9  and  C_10 
REMARK    4  A    between atoms: C_13  and  C_14 
REMARK       I    between atoms: C_14  and  N_15 
REMARK    5  A    between atoms: N_15  and  C_16 
REMARK    6  A    between atoms: C_16  and  C_17 
ROOT
HETATM    1  C   UNL     1      24.648  46.560  49.674  1.00  0.00     0.035 A 
HETATM    2  C   UNL     1      23.446  46.210  49.053  1.00  0.00     0.030 A 
HETATM    3  C   UNL     1      22.641  47.187  48.451  1.00  0.00     0.019 A 
HETATM    4  C   UNL     1      23.035  48.528  48.461  1.00  0.00     0.032 A 
HETATM    5  C   UNL     1      24.218  48.888  49.114  1.00  0.00     0.019 A 
HETATM    6  C   UNL     1      25.018  47.910  49.713  1.00  0.00     0.030 A 
ENDROOT
BRANCH   1   7
HETATM    7  N   UNL     1      25.533  45.637  50.265  1.00  0.00    -0.322 N 
HETATM    8  C   UNL     1      25.803  45.459  51.608  1.00  0.00     0.274 C 
HETATM    9  O   UNL     1      25.321  46.119  52.522  1.00  0.00    -0.266 OA
HETATM   10  H   UNL     1      25.999  45.008  49.626  1.00  0.00     0.169 HD
BRANCH   8  11
HETATM   11  C   UNL     1      26.723  44.383  51.894  1.00  0.00     0.120 A 
HETATM   12  N   UNL     1      27.024  43.441  50.945  1.00  0.00    -0.273 N 
HETATM   13  N   UNL     1      27.901  42.509  51.353  1.00  0.00    -0.179 NA
HETATM   14  H   UNL     1      26.658  43.393  50.000  1.00  0.00     0.189 HD
HETATM   15  C   UNL     1      28.178  42.857  52.613  1.00  0.00     0.056 A 
HETATM   16  C   UNL     1      27.468  44.018  53.000  1.00  0.00     0.065 A 
BRANCH  15  17
HETATM   17  C   UNL     1      29.134  42.051  53.427  1.00  0.00     0.056 C 
HETATM   18  C   UNL     1      30.494  42.723  53.552  1.00  0.00     0.011 C 
ENDBRANCH  15  17
ENDBRANCH   8  11
ENDBRANCH   1   7
BRANCH   4  19
HETATM   19  C   UNL     1      22.254  49.600  47.786  1.00  0.00     0.251 C 
HETATM   20  N   UNL     1      20.888  49.434  47.752  1.00  0.00    -0.353 N 
HETATM   21  H   UNL     1      20.451  48.637  48.191  1.00  0.00     0.163 HD
HETATM   22  O   UNL     1      22.833  50.536  47.248  1.00  0.00    -0.268 OA
BRANCH  20  23
HETATM   23  C   UNL     1      20.038  50.355  47.030  1.00  0.00     0.161 C 
BRANCH  23  24
HETATM   24  C   UNL     1      18.961  50.929  47.918  1.00  0.00    -0.040 A 
HETATM   25  C   UNL     1      19.301  51.761  48.997  1.00  0.00     0.012 A 
HETATM   26  C   UNL     1      18.305  52.316  49.803  1.00  0.00     0.043 A 
HETATM   27  C   UNL     1      16.969  52.044  49.531  1.00  0.00     0.116 A 
HETATM   28  F   UNL     1      16.016  52.576  50.307  1.00  0.00    -0.206 F 
HETATM   29  C   UNL     1      16.608  51.236  48.461  1.00  0.00     0.043 A 
HETATM   30  C   UNL     1      17.601  50.686  47.650  1.00  0.00     0.012 A 
ENDBRANCH  23  24
ENDBRANCH  20  23
ENDBRANCH   4  19
TORSDOF 6
ENDMDL
MODEL 10
REMARK VINA RESULT:      -7.5      5.808      9.311
REMARK  6 active torsions:
REMARK  status: ('A' for Active; 'I' for Inactive)
REMARK    1  A    between atoms: C_2  and  C_3 
REMARK    2  A    between atoms: C_7  and  C_8 
REMARK       I    between atoms: C_8  and  N_9 
REMARK    3  A    between atoms: N_9  and  C_10 
REMARK    4  A    between atoms: C_13  and  C_14 
REMARK       I    between atoms: C_14  and  N_15 
REMARK    5  A    between atoms: N_15  and  C_16 
REMARK    6  A    between atoms: C_16  and  C_17 
ROOT
HETATM    1  C   UNL     1      26.923  40.063  50.267  1.00  0.00     0.035 A 
HETATM    2  C   UNL     1      28.024  40.341  51.079  1.00  0.00     0.030 A 
HETATM    3  C   UNL     1      28.060  41.502  51.865  1.00  0.00     0.019 A 
HETATM    4  C   UNL     1      26.985  42.396  51.848  1.00  0.00     0.032 A 
HETATM    5  C   UNL     1      25.897  42.141  51.008  1.00  0.00     0.019 A 
HETATM    6  C   UNL     1      25.866  40.982  50.226  1.00  0.00     0.030 A 
ENDROOT
BRANCH   1   7
HETATM    7  N   UNL     1      26.790  38.903  49.480  1.00  0.00    -0.322 N 
HETATM    8  C   UNL     1      27.477  38.574  48.327  1.00  0.00     0.274 C 
HETATM    9  O   UNL     1      28.315  39.279  47.776  1.00  0.00    -0.266 OA
HETATM   10  H   UNL     1      26.136  38.214  49.824  1.00  0.00     0.169 HD
BRANCH   8  11
HETATM   11  C   UNL     1      27.148  37.275  47.787  1.00  0.00     0.120 A 
HETATM   12  N   UNL     1      27.995  36.635  46.922  1.00  0.00    -0.273 N 
HETATM   13  N   UNL     1      27.559  35.433  46.512  1.00  0.00    -0.179 NA
HETATM   14  H   UNL     1      28.889  36.977  46.582  1.00  0.00     0.189 HD
HETATM   15  C   UNL     1      26.383  35.288  47.132  1.00  0.00     0.056 A 
HETATM   16  C   UNL     1      26.079  36.411  47.938  1.00  0.00     0.065 A 
BRANCH  15  17
HETATM   17  C   UNL     1      25.569  34.054  46.931  1.00  0.00     0.056 C 
HETATM   18  C   UNL     1      25.974  33.294  45.676  1.00  0.00     0.011 C 
ENDBRANCH  15  17
ENDBRANCH   8  11
ENDBRANCH   1   7
BRANCH   4  19
HETATM   19  C   UNL     1      26.938  43.612  52.705  1.00  0.00     0.251 C 
HETATM   20  N   UNL     1      28.140  44.052  53.211  1.00  0.00    -0.353 N 
HETATM   21  H   UNL     1      29.003  43.581  52.981  1.00  0.00     0.163 HD
HETATM   22  O   UNL     1      25.862  44.133  52.975  1.00  0.00    -0.268 OA
BRANCH  20  23
HETATM   23  C   UNL     1      28.203  45.156  54.143  1.00  0.00     0.161 C 
BRANCH  23  24
HETATM   24  C   UNL     1      29.206  44.899  55.242  1.00  0.00    -0.040 A 
HETATM   25  C   UNL     1      30.064  43.790  55.173  1.00  0.00     0.012 A 
HETATM   26  C   UNL     1      31.011  43.565  56.174  1.00  0.00     0.043 A 
HETATM   27  C   UNL     1      31.106  44.449  57.242  1.00  0.00     0.116 A 
HETATM   28  F   UNL     1      32.014  44.230  58.202  1.00  0.00    -0.206 F 
HETATM   29  C   UNL     1      30.277  45.561  57.324  1.00  0.00     0.043 A 
HETATM   30  C   UNL     1      29.335  45.791  56.322  1.00  0.00     0.012 A 
ENDBRANCH  23  24
ENDBRANCH  20  23
ENDBRANCH   4  19
TORSDOF 6
ENDMDL
