MODEL 1
REMARK VINA RESULT:      -9.7      0.000      0.000
REMARK  8 active torsions:
REMARK  status: ('A' for Active; 'I' for Inactive)
REMARK    1  A    between atoms: C_2  and  O_3 
REMARK    2  A    between atoms: O_3  and  C_4 
REMARK    3  A    between atoms: C_4  and  C_5 
REMARK    4  A    between atoms: C_6  and  C_7 
REMARK    5  A    between atoms: C_7  and  O_8 
REMARK    6  A    between atoms: O_8  and  C_9 
REMARK    7  A    between atoms: C_9  and  C_10 
REMARK       I    between atoms: C_10  and  N_11 
REMARK       I    between atoms: N_11  and  C_12 
REMARK       I    between atoms: C_12  and  N_13 
REMARK    8  A    between atoms: N_13  and  C_14 
ROOT
HETATM    1  C   UNL     1      24.103  45.413  49.443  1.00  0.00     0.282 C 
ENDROOT
BRANCH   1   2
HETATM    2  O   UNL     1      23.609  46.757  49.438  1.00  0.00    -0.307 OA
BRANCH   2   3
HETATM    3  C   UNL     1      22.748  47.015  48.406  1.00  0.00     0.318 C 
HETATM    4  O   UNL     1      22.658  46.320  47.399  1.00  0.00    -0.257 OA
BRANCH   3   5
HETATM    5  C   UNL     1      21.965  48.193  48.683  1.00  0.00     0.160 A 
HETATM    6  C   UNL     1      22.178  49.550  48.461  1.00  0.00     0.018 A 
HETATM    7  C   UNL     1      20.997  50.215  48.922  1.00  0.00     0.009 A 
HETATM    8  C   UNL     1      20.154  49.219  49.393  1.00  0.00     0.087 A 
HETATM    9  C   UNL     1      20.541  51.547  48.971  1.00  0.00     0.015 A 
HETATM   10  O   UNL     1      20.730  48.002  49.245  1.00  0.00    -0.303 OA
HETATM   11  C   UNL     1      18.888  49.446  49.927  1.00  0.00     0.038 A 
HETATM   12  C   UNL     1      18.459  50.775  49.973  1.00  0.00     0.003 A 
HETATM   13  C   UNL     1      19.269  51.810  49.500  1.00  0.00     0.001 A 
BRANCH   6  14
HETATM   14  C   UNL     1      23.350  50.174  47.793  1.00  0.00     0.210 C 
BRANCH  14  15
HETATM   15  O   UNL     1      24.502  50.052  48.629  1.00  0.00    -0.387 OA
BRANCH  15  16
HETATM   16  C   UNL     1      25.709  49.995  47.877  1.00  0.00     0.163 C 
HETATM   17  C   UNL     1      26.799  49.433  48.769  1.00  0.00     0.033 C 
ENDBRANCH  15  16
ENDBRANCH  14  15
ENDBRANCH   6  14
ENDBRANCH   3   5
ENDBRANCH   2   3
ENDBRANCH   1   2
BRANCH   1  18
HETATM   18  C   UNL     1      25.566  45.307  49.897  1.00  0.00     0.249 C 
HETATM   19  N   UNL     1      25.899  44.533  50.985  1.00  0.00    -0.277 N 
HETATM   20  C   UNL     1      25.090  43.732  51.746  1.00  0.00     0.327 C 
HETATM   21  H   UNL     1      26.821  44.735  51.332  1.00  0.00     0.173 HD
HETATM   22  N   UNL     1      25.501  43.467  53.022  1.00  0.00    -0.308 N 
HETATM   23  O   UNL     1      24.010  43.285  51.369  1.00  0.00    -0.247 OA
HETATM   24  H   UNL     1      24.708  43.290  53.628  1.00  0.00     0.170 HD
HETATM   25  O   UNL     1      26.458  45.948  49.331  1.00  0.00    -0.271 OA
BRANCH  22  26
HETATM   26  C   UNL     1      26.749  43.635  53.644  1.00  0.00     0.042 A 
HETATM   27  C   UNL     1      27.176  44.822  54.263  1.00  0.00    -0.035 A 
HETATM   28  C   UNL     1      26.384  46.103  54.274  1.00  0.00     0.050 C 
HETATM   29  C   UNL     1      28.461  44.859  54.840  1.00  0.00     0.015 A 
HETATM   30  C   UNL     1      29.332  43.766  54.766  1.00  0.00    -0.061 A 
HETATM   31  C   UNL     1      30.721  43.849  55.325  1.00  0.00     0.048 C 
HETATM   32  C   UNL     1      28.916  42.619  54.087  1.00  0.00     0.009 A 
HETATM   33  C   UNL     1      27.641  42.560  53.525  1.00  0.00     0.030 A 
ENDBRANCH  22  26
ENDBRANCH   1  18
TORSDOF 8
ENDMDL
MODEL 2
REMARK VINA RESULT:      -9.5      2.207      9.736
REMARK  8 active torsions:
REMARK  status: ('A' for Active; 'I' for Inactive)
REMARK    1  A    between atoms: C_2  and  O_3 
REMARK    2  A    between atoms: O_3  and  C_4 
REMARK    3  A    between atoms: C_4  and  C_5 
REMARK    4  A    between atoms: C_6  and  C_7 
REMARK    5  A    between atoms: C_7  and  O_8 
REMARK    6  A    between atoms: O_8  and  C_9 
REMARK    7  A    between atoms: C_9  and  C_10 
REMARK       I    between atoms: C_10  and  N_11 
REMARK       I    between atoms: N_11  and  C_12 
REMARK       I    between atoms: C_12  and  N_13 
REMARK    8  A    between atoms: N_13  and  C_14 
ROOT
HETATM    1  C   UNL     1      25.705  45.875  50.169  1.00  0.00     0.282 C 
ENDROOT
BRANCH   1   2
HETATM    2  O   UNL     1      26.760  45.562  51.087  1.00  0.00    -0.307 OA
BRANCH   2   3
HETATM    3  C   UNL     1      26.470  44.506  51.907  1.00  0.00     0.318 C 
HETATM    4  O   UNL     1      25.459  43.817  51.807  1.00  0.00    -0.257 OA
BRANCH   3   5
HETATM    5  C   UNL     1      27.521  44.314  52.875  1.00  0.00     0.160 A 
HETATM    6  C   UNL     1      28.498  43.337  53.035  1.00  0.00     0.018 A 
HETATM    7  C   UNL     1      29.276  43.738  54.167  1.00  0.00     0.009 A 
HETATM    8  C   UNL     1      28.718  44.926  54.616  1.00  0.00     0.087 A 
HETATM    9  C   UNL     1      30.405  43.238  54.846  1.00  0.00     0.015 A 
HETATM   10  O   UNL     1      27.666  45.278  53.837  1.00  0.00    -0.303 OA
HETATM   11  C   UNL     1      29.186  45.655  55.706  1.00  0.00     0.038 A 
HETATM   12  C   UNL     1      30.302  45.137  56.369  1.00  0.00     0.003 A 
HETATM   13  C   UNL     1      30.905  43.951  55.946  1.00  0.00     0.001 A 
BRANCH   6  14
HETATM   14  C   UNL     1      28.745  42.165  52.153  1.00  0.00     0.210 C 
BRANCH  14  15
HETATM   15  O   UNL     1      27.687  41.217  52.304  1.00  0.00    -0.387 OA
BRANCH  15  16
HETATM   16  C   UNL     1      27.130  40.829  51.053  1.00  0.00     0.163 C 
HETATM   17  C   UNL     1      28.177  40.040  50.290  1.00  0.00     0.033 C 
ENDBRANCH  15  16
ENDBRANCH  14  15
ENDBRANCH   6  14
ENDBRANCH   3   5
ENDBRANCH   2   3
ENDBRANCH   1   2
BRANCH   1  18
HETATM   18  C   UNL     1      24.742  46.950  50.696  1.00  0.00     0.249 C 
HETATM   19  N   UNL     1      23.595  47.252  49.999  1.00  0.00    -0.277 N 
HETATM   20  C   UNL     1      23.102  46.666  48.864  1.00  0.00     0.327 C 
HETATM   21  H   UNL     1      23.184  48.121  50.295  1.00  0.00     0.173 HD
HETATM   22  N   UNL     1      22.262  47.417  48.091  1.00  0.00    -0.308 N 
HETATM   23  O   UNL     1      23.405  45.539  48.482  1.00  0.00    -0.247 OA
HETATM   24  H   UNL     1      22.314  47.132  47.120  1.00  0.00     0.170 HD
HETATM   25  O   UNL     1      25.001  47.592  51.719  1.00  0.00    -0.271 OA
BRANCH  22  26
HETATM   26  C   UNL     1      21.571  48.608  48.367  1.00  0.00     0.042 A 
HETATM   27  C   UNL     1      22.102  49.896  48.188  1.00  0.00    -0.035 A 
HETATM   28  C   UNL     1      23.516  50.175  47.752  1.00  0.00     0.050 C 
HETATM   29  C   UNL     1      21.303  51.009  48.517  1.00  0.00     0.015 A 
HETATM   30  C   UNL     1      20.021  50.859  49.060  1.00  0.00    -0.061 A 
HETATM   31  C   UNL     1      19.213  52.054  49.469  1.00  0.00     0.048 C 
HETATM   32  C   UNL     1      19.537  49.571  49.294  1.00  0.00     0.009 A 
HETATM   33  C   UNL     1      20.309  48.458  48.959  1.00  0.00     0.030 A 
ENDBRANCH  22  26
ENDBRANCH   1  18
TORSDOF 8
ENDMDL
MODEL 3
REMARK VINA RESULT:      -9.4      1.390      2.903
REMARK  8 active torsions:
REMARK  status: ('A' for Active; 'I' for Inactive)
REMARK    1  A    between atoms: C_2  and  O_3 
REMARK    2  A    between atoms: O_3  and  C_4 
REMARK    3  A    between atoms: C_4  and  C_5 
REMARK    4  A    between atoms: C_6  and  C_7 
REMARK    5  A    between atoms: C_7  and  O_8 
REMARK    6  A    between atoms: O_8  and  C_9 
REMARK    7  A    between atoms: C_9  and  C_10 
REMARK       I    between atoms: C_10  and  N_11 
REMARK       I    between atoms: N_11  and  C_12 
REMARK       I    between atoms: C_12  and  N_13 
REMARK    8  A    between atoms: N_13  and  C_14 
ROOT
HETATM    1  C   UNL     1      24.964  45.586  49.669  1.00  0.00     0.282 C 
ENDROOT
BRANCH   1   2
HETATM    2  O   UNL     1      24.449  46.748  50.330  1.00  0.00    -0.307 OA
BRANCH   2   3
HETATM    3  C   UNL     1      24.564  47.891  49.586  1.00  0.00     0.318 C 
HETATM    4  O   UNL     1      25.635  48.367  49.222  1.00  0.00    -0.257 OA
BRANCH   3   5
HETATM    5  C   UNL     1      23.262  48.429  49.281  1.00  0.00     0.160 A 
HETATM    6  C   UNL     1      22.173  47.936  48.568  1.00  0.00     0.018 A 
HETATM    7  C   UNL     1      21.152  48.934  48.667  1.00  0.00     0.009 A 
HETATM    8  C   UNL     1      21.691  49.961  49.428  1.00  0.00     0.087 A 
HETATM    9  C   UNL     1      19.824  49.070  48.216  1.00  0.00     0.015 A 
HETATM   10  O   UNL     1      22.957  49.657  49.803  1.00  0.00    -0.303 OA
HETATM   11  C   UNL     1      21.014  51.130  49.766  1.00  0.00     0.038 A 
HETATM   12  C   UNL     1      19.701  51.248  49.302  1.00  0.00     0.003 A 
HETATM   13  C   UNL     1      19.113  50.234  48.542  1.00  0.00     0.001 A 
BRANCH   6  14
HETATM   14  C   UNL     1      22.059  46.604  47.918  1.00  0.00     0.210 C 
BRANCH  14  15
HETATM   15  O   UNL     1      22.056  46.759  46.498  1.00  0.00    -0.387 OA
BRANCH  15  16
HETATM   16  C   UNL     1      21.022  46.004  45.876  1.00  0.00     0.163 C 
HETATM   17  C   UNL     1      20.124  45.443  46.962  1.00  0.00     0.033 C 
ENDBRANCH  15  16
ENDBRANCH  14  15
ENDBRANCH   6  14
ENDBRANCH   3   5
ENDBRANCH   2   3
ENDBRANCH   1   2
BRANCH   1  18
HETATM   18  C   UNL     1      26.401  45.239  50.087  1.00  0.00     0.249 C 
HETATM   19  N   UNL     1      26.632  44.520  51.237  1.00  0.00    -0.277 N 
HETATM   20  C   UNL     1      25.724  43.968  52.099  1.00  0.00     0.327 C 
HETATM   21  H   UNL     1      27.591  44.569  51.534  1.00  0.00     0.173 HD
HETATM   22  N   UNL     1      26.138  43.747  53.382  1.00  0.00    -0.308 N 
HETATM   23  O   UNL     1      24.560  43.707  51.803  1.00  0.00    -0.247 OA
HETATM   24  H   UNL     1      25.357  43.786  54.027  1.00  0.00     0.170 HD
HETATM   25  O   UNL     1      27.370  45.638  49.432  1.00  0.00    -0.271 OA
BRANCH  22  26
HETATM   26  C   UNL     1      27.425  43.725  53.946  1.00  0.00     0.042 A 
HETATM   27  C   UNL     1      28.292  42.621  53.905  1.00  0.00    -0.035 A 
HETATM   28  C   UNL     1      27.931  41.282  53.320  1.00  0.00     0.050 C 
HETATM   29  C   UNL     1      29.554  42.729  54.524  1.00  0.00     0.015 A 
HETATM   30  C   UNL     1      29.937  43.885  55.214  1.00  0.00    -0.061 A 
HETATM   31  C   UNL     1      31.256  43.956  55.925  1.00  0.00     0.048 C 
HETATM   32  C   UNL     1      29.035  44.946  55.303  1.00  0.00     0.009 A 
HETATM   33  C   UNL     1      27.789  44.862  54.682  1.00  0.00     0.030 A 
ENDBRANCH  22  26
ENDBRANCH   1  18
TORSDOF 8
ENDMDL
MODEL 4
REMARK VINA RESULT:      -9.4      2.080      9.182
REMARK  8 active torsions:
REMARK  status: ('A' for Active; 'I' for Inactive)
REMARK    1  A    between atoms: C_2  and  O_3 
REMARK    2  A    between atoms: O_3  and  C_4 
REMARK    3  A    between atoms: C_4  and  C_5 
REMARK    4  A    between atoms: C_6  and  C_7 
REMARK    5  A    between atoms: C_7  and  O_8 
REMARK    6  A    between atoms: O_8  and  C_9 
REMARK    7  A    between atoms: C_9  and  C_10 
REMARK       I    between atoms: C_10  and  N_11 
REMARK       I    between atoms: N_11  and  C_12 
REMARK       I    between atoms: C_12  and  N_13 
REMARK    8  A    between atoms: N_13  and  C_14 
ROOT
HETATM    1  C   UNL     1      25.755  46.085  49.960  1.00  0.00     0.282 C 
ENDROOT
BRANCH   1   2
HETATM    2  O   UNL     1      25.405  44.721  50.221  1.00  0.00    -0.307 OA
BRANCH   2   3
HETATM    3  C   UNL     1      25.118  44.477  51.536  1.00  0.00     0.318 C 
HETATM    4  O   UNL     1      23.979  44.377  51.983  1.00  0.00    -0.257 OA
BRANCH   3   5
HETATM    5  C   UNL     1      26.332  44.336  52.300  1.00  0.00     0.160 A 
HETATM    6  C   UNL     1      26.787  44.923  53.477  1.00  0.00     0.018 A 
HETATM    7  C   UNL     1      28.061  44.328  53.747  1.00  0.00     0.009 A 
HETATM    8  C   UNL     1      28.291  43.427  52.718  1.00  0.00     0.087 A 
HETATM    9  C   UNL     1      29.033  44.436  54.762  1.00  0.00     0.015 A 
HETATM   10  O   UNL     1      27.250  43.426  51.850  1.00  0.00    -0.303 OA
HETATM   11  C   UNL     1      29.427  42.630  52.607  1.00  0.00     0.038 A 
HETATM   12  C   UNL     1      30.381  42.759  53.620  1.00  0.00     0.003 A 
HETATM   13  C   UNL     1      30.188  43.645  54.683  1.00  0.00     0.001 A 
BRANCH   6  14
HETATM   14  C   UNL     1      26.058  45.897  54.332  1.00  0.00     0.210 C 
BRANCH  14  15
HETATM   15  O   UNL     1      26.711  47.166  54.279  1.00  0.00    -0.387 OA
BRANCH  15  16
HETATM   16  C   UNL     1      27.134  47.607  55.565  1.00  0.00     0.163 C 
HETATM   17  C   UNL     1      26.339  48.847  55.928  1.00  0.00     0.033 C 
ENDBRANCH  15  16
ENDBRANCH  14  15
ENDBRANCH   6  14
ENDBRANCH   3   5
ENDBRANCH   2   3
ENDBRANCH   1   2
BRANCH   1  18
HETATM   18  C   UNL     1      24.770  47.092  50.573  1.00  0.00     0.249 C 
HETATM   19  N   UNL     1      23.577  47.363  49.944  1.00  0.00    -0.277 N 
HETATM   20  C   UNL     1      23.056  46.795  48.813  1.00  0.00     0.327 C 
HETATM   21  H   UNL     1      23.141  48.199  50.293  1.00  0.00     0.173 HD
HETATM   22  N   UNL     1      22.144  47.531  48.111  1.00  0.00    -0.308 N 
HETATM   23  O   UNL     1      23.393  45.698  48.373  1.00  0.00    -0.247 OA
HETATM   24  H   UNL     1      22.160  47.284  47.128  1.00  0.00     0.170 HD
HETATM   25  O   UNL     1      25.050  47.709  51.606  1.00  0.00    -0.271 OA
BRANCH  22  26
HETATM   26  C   UNL     1      21.412  48.675  48.465  1.00  0.00     0.042 A 
HETATM   27  C   UNL     1      21.850  49.995  48.260  1.00  0.00    -0.035 A 
HETATM   28  C   UNL     1      23.201  50.362  47.706  1.00  0.00     0.050 C 
HETATM   29  C   UNL     1      21.019  51.055  48.676  1.00  0.00     0.015 A 
HETATM   30  C   UNL     1      19.802  50.823  49.327  1.00  0.00    -0.061 A 
HETATM   31  C   UNL     1      18.965  51.964  49.824  1.00  0.00     0.048 C 
HETATM   32  C   UNL     1      19.416  49.507  49.583  1.00  0.00     0.009 A 
HETATM   33  C   UNL     1      20.218  48.445  49.163  1.00  0.00     0.030 A 
ENDBRANCH  22  26
ENDBRANCH   1  18
TORSDOF 8
ENDMDL
MODEL 5
REMARK VINA RESULT:      -9.3      4.295      8.857
REMARK  8 active torsions:
REMARK  status: ('A' for Active; 'I' for Inactive)
REMARK    1  A    between atoms: C_2  and  O_3 
REMARK    2  A    between atoms: O_3  and  C_4 
REMARK    3  A    between atoms: C_4  and  C_5 
REMARK    4  A    between atoms: C_6  and  C_7 
REMARK    5  A    between atoms: C_7  and  O_8 
REMARK    6  A    between atoms: O_8  and  C_9 
REMARK    7  A    between atoms: C_9  and  C_10 
REMARK       I    between atoms: C_10  and  N_11 
REMARK       I    between atoms: N_11  and  C_12 
REMARK       I    between atoms: C_12  and  N_13 
REMARK    8  A    between atoms: N_13  and  C_14 
ROOT
HETATM    1  C   UNL     1      25.641  46.885  52.235  1.00  0.00     0.282 C 
ENDROOT
BRANCH   1   2
HETATM    2  O   UNL     1      26.877  46.822  52.957  1.00  0.00    -0.307 OA
BRANCH   2   3
HETATM    3  C   UNL     1      26.710  46.673  54.307  1.00  0.00     0.318 C 
HETATM    4  O   UNL     1      25.748  47.109  54.931  1.00  0.00    -0.257 OA
BRANCH   3   5
HETATM    5  C   UNL     1      27.804  45.923  54.871  1.00  0.00     0.160 A 
HETATM    6  C   UNL     1      28.510  44.804  54.441  1.00  0.00     0.018 A 
HETATM    7  C   UNL     1      29.518  44.569  55.430  1.00  0.00     0.009 A 
HETATM    8  C   UNL     1      29.352  45.556  56.389  1.00  0.00     0.087 A 
HETATM    9  C   UNL     1      30.566  43.643  55.605  1.00  0.00     0.015 A 
HETATM   10  O   UNL     1      28.327  46.375  56.053  1.00  0.00    -0.303 OA
HETATM   11  C   UNL     1      30.142  45.689  57.529  1.00  0.00     0.038 A 
HETATM   12  C   UNL     1      31.171  44.756  57.687  1.00  0.00     0.003 A 
HETATM   13  C   UNL     1      31.383  43.751  56.740  1.00  0.00     0.001 A 
BRANCH   6  14
HETATM   14  C   UNL     1      28.320  44.061  53.166  1.00  0.00     0.210 C 
BRANCH  14  15
HETATM   15  O   UNL     1      27.363  43.018  53.355  1.00  0.00    -0.387 OA
BRANCH  15  16
HETATM   16  C   UNL     1      27.981  41.758  53.597  1.00  0.00     0.163 C 
HETATM   17  C   UNL     1      29.237  41.675  52.750  1.00  0.00     0.033 C 
ENDBRANCH  15  16
ENDBRANCH  14  15
ENDBRANCH   6  14
ENDBRANCH   3   5
ENDBRANCH   2   3
ENDBRANCH   1   2
BRANCH   1  18
HETATM   18  C   UNL     1      25.734  46.292  50.821  1.00  0.00     0.249 C 
HETATM   19  N   UNL     1      25.409  44.974  50.602  1.00  0.00    -0.277 N 
HETATM   20  C   UNL     1      24.921  44.052  51.488  1.00  0.00     0.327 C 
HETATM   21  H   UNL     1      25.740  44.640  49.713  1.00  0.00     0.173 HD
HETATM   22  N   UNL     1      25.140  42.735  51.200  1.00  0.00    -0.308 N 
HETATM   23  O   UNL     1      24.347  44.339  52.536  1.00  0.00    -0.247 OA
HETATM   24  H   UNL     1      25.178  42.181  52.048  1.00  0.00     0.170 HD
HETATM   25  O   UNL     1      26.146  46.968  49.872  1.00  0.00    -0.271 OA
BRANCH  22  26
HETATM   26  C   UNL     1      25.545  42.104  50.012  1.00  0.00     0.042 A 
HETATM   27  C   UNL     1      24.680  41.767  48.957  1.00  0.00    -0.035 A 
HETATM   28  C   UNL     1      23.188  41.963  48.989  1.00  0.00     0.050 C 
HETATM   29  C   UNL     1      25.217  41.123  47.823  1.00  0.00     0.015 A 
HETATM   30  C   UNL     1      26.570  40.772  47.749  1.00  0.00    -0.061 A 
HETATM   31  C   UNL     1      27.108  40.026  46.565  1.00  0.00     0.048 C 
HETATM   32  C   UNL     1      27.399  41.054  48.836  1.00  0.00     0.009 A 
HETATM   33  C   UNL     1      26.887  41.706  49.959  1.00  0.00     0.030 A 
ENDBRANCH  22  26
ENDBRANCH   1  18
TORSDOF 8
ENDMDL
MODEL 6
REMARK VINA RESULT:      -9.2      1.789      2.752
REMARK  8 active torsions:
REMARK  status: ('A' for Active; 'I' for Inactive)
REMARK    1  A    between atoms: C_2  and  O_3 
REMARK    2  A    between atoms: O_3  and  C_4 
REMARK    3  A    between atoms: C_4  and  C_5 
REMARK    4  A    between atoms: C_6  and  C_7 
REMARK    5  A    between atoms: C_7  and  O_8 
REMARK    6  A    between atoms: O_8  and  C_9 
REMARK    7  A    between atoms: C_9  and  C_10 
REMARK       I    between atoms: C_10  and  N_11 
REMARK       I    between atoms: N_11  and  C_12 
REMARK       I    between atoms: C_12  and  N_13 
REMARK    8  A    between atoms: N_13  and  C_14 
ROOT
HETATM    1  C   UNL     1      25.106  43.911  49.068  1.00  0.00     0.282 C 
ENDROOT
BRANCH   1   2
HETATM    2  O   UNL     1      24.391  44.970  48.419  1.00  0.00    -0.307 OA
BRANCH   2   3
HETATM    3  C   UNL     1      23.196  45.264  49.017  1.00  0.00     0.318 C 
HETATM    4  O   UNL     1      22.465  44.427  49.537  1.00  0.00    -0.257 OA
BRANCH   3   5
HETATM    5  C   UNL     1      22.941  46.682  48.964  1.00  0.00     0.160 A 
HETATM    6  C   UNL     1      23.639  47.792  49.431  1.00  0.00     0.018 A 
HETATM    7  C   UNL     1      22.882  48.935  49.020  1.00  0.00     0.009 A 
HETATM    8  C   UNL     1      21.780  48.442  48.337  1.00  0.00     0.087 A 
HETATM    9  C   UNL     1      23.022  50.333  49.132  1.00  0.00     0.015 A 
HETATM   10  O   UNL     1      21.816  47.088  48.296  1.00  0.00    -0.303 OA
HETATM   11  C   UNL     1      20.789  49.235  47.765  1.00  0.00     0.038 A 
HETATM   12  C   UNL     1      20.943  50.618  47.893  1.00  0.00     0.003 A 
HETATM   13  C   UNL     1      22.043  51.160  48.563  1.00  0.00     0.001 A 
BRANCH   6  14
HETATM   14  C   UNL     1      24.951  47.794  50.129  1.00  0.00     0.210 C 
BRANCH  14  15
HETATM   15  O   UNL     1      24.804  47.228  51.433  1.00  0.00    -0.387 OA
BRANCH  15  16
HETATM   16  C   UNL     1      26.043  47.158  52.131  1.00  0.00     0.163 C 
HETATM   17  C   UNL     1      25.778  47.447  53.597  1.00  0.00     0.033 C 
ENDBRANCH  15  16
ENDBRANCH  14  15
ENDBRANCH   6  14
ENDBRANCH   3   5
ENDBRANCH   2   3
ENDBRANCH   1   2
BRANCH   1  18
HETATM   18  C   UNL     1      26.428  44.370  49.699  1.00  0.00     0.249 C 
HETATM   19  N   UNL     1      26.883  43.781  50.856  1.00  0.00    -0.277 N 
HETATM   20  C   UNL     1      26.345  42.734  51.553  1.00  0.00     0.327 C 
HETATM   21  H   UNL     1      27.607  44.319  51.301  1.00  0.00     0.173 HD
HETATM   22  N   UNL     1      26.656  42.646  52.881  1.00  0.00    -0.308 N 
HETATM   23  O   UNL     1      25.572  41.909  51.073  1.00  0.00    -0.247 OA
HETATM   24  H   UNL     1      25.917  42.181  53.395  1.00  0.00     0.170 HD
HETATM   25  O   UNL     1      27.078  45.303  49.212  1.00  0.00    -0.271 OA
BRANCH  22  26
HETATM   26  C   UNL     1      27.656  43.276  53.639  1.00  0.00     0.042 A 
HETATM   27  C   UNL     1      28.997  42.858  53.693  1.00  0.00    -0.035 A 
HETATM   28  C   UNL     1      29.527  41.627  53.007  1.00  0.00     0.050 C 
HETATM   29  C   UNL     1      29.897  43.575  54.506  1.00  0.00     0.015 A 
HETATM   30  C   UNL     1      29.477  44.654  55.292  1.00  0.00    -0.061 A 
HETATM   31  C   UNL     1      30.435  45.362  56.205  1.00  0.00     0.048 C 
HETATM   32  C   UNL     1      28.128  45.012  55.279  1.00  0.00     0.009 A 
HETATM   33  C   UNL     1      27.227  44.323  54.466  1.00  0.00     0.030 A 
ENDBRANCH  22  26
ENDBRANCH   1  18
TORSDOF 8
ENDMDL
MODEL 7
REMARK VINA RESULT:      -9.1      2.630      9.491
REMARK  8 active torsions:
REMARK  status: ('A' for Active; 'I' for Inactive)
REMARK    1  A    between atoms: C_2  and  O_3 
REMARK    2  A    between atoms: O_3  and  C_4 
REMARK    3  A    between atoms: C_4  and  C_5 
REMARK    4  A    between atoms: C_6  and  C_7 
REMARK    5  A    between atoms: C_7  and  O_8 
REMARK    6  A    between atoms: O_8  and  C_9 
REMARK    7  A    between atoms: C_9  and  C_10 
REMARK       I    between atoms: C_10  and  N_11 
REMARK       I    between atoms: N_11  and  C_12 
REMARK       I    between atoms: C_12  and  N_13 
REMARK    8  A    between atoms: N_13  and  C_14 
ROOT
HETATM    1  C   UNL     1      24.074  48.295  49.103  1.00  0.00     0.282 C 
ENDROOT
BRANCH   1   2
HETATM    2  O   UNL     1      23.892  47.493  50.276  1.00  0.00    -0.307 OA
BRANCH   2   3
HETATM    3  C   UNL     1      24.693  46.384  50.305  1.00  0.00     0.318 C 
HETATM    4  O   UNL     1      24.782  45.579  49.383  1.00  0.00    -0.257 OA
BRANCH   3   5
HETATM    5  C   UNL     1      25.417  46.316  51.549  1.00  0.00     0.160 A 
HETATM    6  C   UNL     1      26.254  45.357  52.110  1.00  0.00     0.018 A 
HETATM    7  C   UNL     1      26.703  45.904  53.354  1.00  0.00     0.009 A 
HETATM    8  C   UNL     1      26.108  47.152  53.463  1.00  0.00     0.087 A 
HETATM    9  C   UNL     1      27.566  45.489  54.388  1.00  0.00     0.015 A 
HETATM   10  O   UNL     1      25.339  47.405  52.376  1.00  0.00    -0.303 OA
HETATM   11  C   UNL     1      26.290  48.022  54.535  1.00  0.00     0.038 A 
HETATM   12  C   UNL     1      27.144  47.587  55.552  1.00  0.00     0.003 A 
HETATM   13  C   UNL     1      27.776  46.343  55.481  1.00  0.00     0.001 A 
BRANCH   6  14
HETATM   14  C   UNL     1      26.674  44.068  51.499  1.00  0.00     0.210 C 
BRANCH  14  15
HETATM   15  O   UNL     1      28.098  43.957  51.538  1.00  0.00    -0.387 OA
BRANCH  15  16
HETATM   16  C   UNL     1      28.527  42.744  52.147  1.00  0.00     0.163 C 
HETATM   17  C   UNL     1      29.861  42.997  52.822  1.00  0.00     0.033 C 
ENDBRANCH  15  16
ENDBRANCH  14  15
ENDBRANCH   6  14
ENDBRANCH   3   5
ENDBRANCH   2   3
ENDBRANCH   1   2
BRANCH   1  18
HETATM   18  C   UNL     1      22.776  48.513  48.310  1.00  0.00     0.249 C 
HETATM   19  N   UNL     1      21.956  49.577  48.606  1.00  0.00    -0.277 N 
HETATM   20  C   UNL     1      22.151  50.583  49.513  1.00  0.00     0.327 C 
HETATM   21  H   UNL     1      21.039  49.477  48.205  1.00  0.00     0.173 HD
HETATM   22  N   UNL     1      21.037  51.218  49.985  1.00  0.00    -0.308 N 
HETATM   23  O   UNL     1      23.249  50.910  49.956  1.00  0.00    -0.247 OA
HETATM   24  H   UNL     1      21.197  51.583  50.917  1.00  0.00     0.170 HD
HETATM   25  O   UNL     1      22.423  47.716  47.434  1.00  0.00    -0.271 OA
BRANCH  22  26
HETATM   26  C   UNL     1      19.713  51.230  49.519  1.00  0.00     0.042 A 
HETATM   27  C   UNL     1      18.715  50.332  49.935  1.00  0.00    -0.035 A 
HETATM   28  C   UNL     1      18.951  49.183  50.879  1.00  0.00     0.050 C 
HETATM   29  C   UNL     1      17.426  50.446  49.375  1.00  0.00     0.015 A 
HETATM   30  C   UNL     1      17.136  51.394  48.388  1.00  0.00    -0.061 A 
HETATM   31  C   UNL     1      15.777  51.455  47.754  1.00  0.00     0.048 C 
HETATM   32  C   UNL     1      18.157  52.232  47.938  1.00  0.00     0.009 A 
HETATM   33  C   UNL     1      19.434  52.143  48.493  1.00  0.00     0.030 A 
ENDBRANCH  22  26
ENDBRANCH   1  18
TORSDOF 8
ENDMDL
MODEL 8
REMARK VINA RESULT:      -8.9      1.659      3.282
REMARK  8 active torsions:
REMARK  status: ('A' for Active; 'I' for Inactive)
REMARK    1  A    between atoms: C_2  and  O_3 
REMARK    2  A    between atoms: O_3  and  C_4 
REMARK    3  A    between atoms: C_4  and  C_5 
REMARK    4  A    between atoms: C_6  and  C_7 
REMARK    5  A    between atoms: C_7  and  O_8 
REMARK    6  A    between atoms: O_8  and  C_9 
REMARK    7  A    between atoms: C_9  and  C_10 
REMARK       I    between atoms: C_10  and  N_11 
REMARK       I    between atoms: N_11  and  C_12 
REMARK       I    between atoms: C_12  and  N_13 
REMARK    8  A    between atoms: N_13  and  C_14 
ROOT
HETATM    1  C   UNL     1      24.311  46.651  50.018  1.00  0.00     0.282 C 
ENDROOT
BRANCH   1   2
HETATM    2  O   UNL     1      24.051  48.051  50.177  1.00  0.00    -0.307 OA
BRANCH   2   3
HETATM    3  C   UNL     1      23.845  48.702  48.992  1.00  0.00     0.318 C 
HETATM    4  O   UNL     1      24.680  49.419  48.449  1.00  0.00    -0.257 OA
BRANCH   3   5
HETATM    5  C   UNL     1      22.532  48.408  48.475  1.00  0.00     0.160 A 
HETATM    6  C   UNL     1      21.266  48.911  48.757  1.00  0.00     0.018 A 
HETATM    7  C   UNL     1      20.367  48.239  47.868  1.00  0.00     0.009 A 
HETATM    8  C   UNL     1      21.147  47.376  47.114  1.00  0.00     0.087 A 
HETATM    9  C   UNL     1      18.984  48.284  47.605  1.00  0.00     0.015 A 
HETATM   10  O   UNL     1      22.450  47.480  47.472  1.00  0.00    -0.303 OA
HETATM   11  C   UNL     1      20.655  46.534  46.119  1.00  0.00     0.038 A 
HETATM   12  C   UNL     1      19.279  46.589  45.880  1.00  0.00     0.003 A 
HETATM   13  C   UNL     1      18.456  47.452  46.607  1.00  0.00     0.001 A 
BRANCH   6  14
HETATM   14  C   UNL     1      20.927  49.995  49.717  1.00  0.00     0.210 C 
BRANCH  14  15
HETATM   15  O   UNL     1      21.142  51.267  49.104  1.00  0.00    -0.387 OA
BRANCH  15  16
HETATM   16  C   UNL     1      19.943  51.816  48.568  1.00  0.00     0.163 C 
HETATM   17  C   UNL     1      18.915  51.889  49.681  1.00  0.00     0.033 C 
ENDBRANCH  15  16
ENDBRANCH  14  15
ENDBRANCH   6  14
ENDBRANCH   3   5
ENDBRANCH   2   3
ENDBRANCH   1   2
BRANCH   1  18
HETATM   18  C   UNL     1      25.773  46.270  50.295  1.00  0.00     0.249 C 
HETATM   19  N   UNL     1      26.068  45.239  51.155  1.00  0.00    -0.277 N 
HETATM   20  C   UNL     1      25.211  44.393  51.805  1.00  0.00     0.327 C 
HETATM   21  H   UNL     1      27.031  45.245  51.446  1.00  0.00     0.173 HD
HETATM   22  N   UNL     1      25.668  43.802  52.949  1.00  0.00    -0.308 N 
HETATM   23  O   UNL     1      24.055  44.174  51.450  1.00  0.00    -0.247 OA
HETATM   24  H   UNL     1      24.901  43.592  53.579  1.00  0.00     0.170 HD
HETATM   25  O   UNL     1      26.704  46.909  49.793  1.00  0.00    -0.271 OA
BRANCH  22  26
HETATM   26  C   UNL     1      26.967  43.675  53.468  1.00  0.00     0.042 A 
HETATM   27  C   UNL     1      27.847  42.624  53.160  1.00  0.00    -0.035 A 
HETATM   28  C   UNL     1      27.488  41.446  52.293  1.00  0.00     0.050 C 
HETATM   29  C   UNL     1      29.121  42.611  53.762  1.00  0.00     0.015 A 
HETATM   30  C   UNL     1      29.506  43.586  54.689  1.00  0.00    -0.061 A 
HETATM   31  C   UNL     1      30.840  43.517  55.372  1.00  0.00     0.048 C 
HETATM   32  C   UNL     1      28.593  44.584  55.034  1.00  0.00     0.009 A 
HETATM   33  C   UNL     1      27.334  44.621  54.435  1.00  0.00     0.030 A 
ENDBRANCH  22  26
ENDBRANCH   1  18
TORSDOF 8
ENDMDL
MODEL 9
REMARK VINA RESULT:      -8.8      1.577      3.353
REMARK  8 active torsions:
REMARK  status: ('A' for Active; 'I' for Inactive)
REMARK    1  A    between atoms: C_2  and  O_3 
REMARK    2  A    between atoms: O_3  and  C_4 
REMARK    3  A    between atoms: C_4  and  C_5 
REMARK    4  A    between atoms: C_6  and  C_7 
REMARK    5  A    between atoms: C_7  and  O_8 
REMARK    6  A    between atoms: O_8  and  C_9 
REMARK    7  A    between atoms: C_9  and  C_10 
REMARK       I    between atoms: C_10  and  N_11 
REMARK       I    between atoms: N_11  and  C_12 
REMARK       I    between atoms: C_12  and  N_13 
REMARK    8  A    between atoms: N_13  and  C_14 
ROOT
HETATM    1  C   UNL     1      25.195  44.468  49.099  1.00  0.00     0.282 C 
ENDROOT
BRANCH   1   2
HETATM    2  O   UNL     1      24.166  45.404  49.443  1.00  0.00    -0.307 OA
BRANCH   2   3
HETATM    3  C   UNL     1      23.094  45.368  48.592  1.00  0.00     0.318 C 
HETATM    4  O   UNL     1      22.734  44.365  47.985  1.00  0.00    -0.257 OA
BRANCH   3   5
HETATM    5  C   UNL     1      22.451  46.657  48.535  1.00  0.00     0.160 A 
HETATM    6  C   UNL     1      21.119  47.056  48.555  1.00  0.00     0.018 A 
HETATM    7  C   UNL     1      21.134  48.487  48.516  1.00  0.00     0.009 A 
HETATM    8  C   UNL     1      22.471  48.856  48.473  1.00  0.00     0.087 A 
HETATM    9  C   UNL     1      20.165  49.509  48.537  1.00  0.00     0.015 A 
HETATM   10  O   UNL     1      23.265  47.758  48.490  1.00  0.00    -0.303 OA
HETATM   11  C   UNL     1      22.924  50.172  48.432  1.00  0.00     0.038 A 
HETATM   12  C   UNL     1      21.946  51.170  48.445  1.00  0.00     0.003 A 
HETATM   13  C   UNL     1      20.588  50.846  48.500  1.00  0.00     0.001 A 
BRANCH   6  14
HETATM   14  C   UNL     1      19.924  46.180  48.687  1.00  0.00     0.210 C 
BRANCH  14  15
HETATM   15  O   UNL     1      18.946  46.550  47.714  1.00  0.00    -0.387 OA
BRANCH  15  16
HETATM   16  C   UNL     1      17.632  46.158  48.097  1.00  0.00     0.163 C 
HETATM   17  C   UNL     1      16.979  47.322  48.817  1.00  0.00     0.033 C 
ENDBRANCH  15  16
ENDBRANCH  14  15
ENDBRANCH   6  14
ENDBRANCH   3   5
ENDBRANCH   2   3
ENDBRANCH   1   2
BRANCH   1  18
HETATM   18  C   UNL     1      26.536  44.764  49.786  1.00  0.00     0.249 C 
HETATM   19  N   UNL     1      26.914  44.051  50.900  1.00  0.00    -0.277 N 
HETATM   20  C   UNL     1      26.275  43.002  51.504  1.00  0.00     0.327 C 
HETATM   21  H   UNL     1      27.670  44.489  51.398  1.00  0.00     0.173 HD
HETATM   22  N   UNL     1      26.547  42.785  52.825  1.00  0.00    -0.308 N 
HETATM   23  O   UNL     1      25.447  42.285  50.947  1.00  0.00    -0.247 OA
HETATM   24  H   UNL     1      25.760  42.347  53.289  1.00  0.00     0.170 HD
HETATM   25  O   UNL     1      27.272  45.672  49.385  1.00  0.00    -0.271 OA
BRANCH  22  26
HETATM   26  C   UNL     1      27.578  43.269  53.647  1.00  0.00     0.042 A 
HETATM   27  C   UNL     1      27.533  44.487  54.346  1.00  0.00    -0.035 A 
HETATM   28  C   UNL     1      26.406  45.480  54.246  1.00  0.00     0.050 C 
HETATM   29  C   UNL     1      28.646  44.859  55.128  1.00  0.00     0.015 A 
HETATM   30  C   UNL     1      29.802  44.072  55.182  1.00  0.00    -0.061 A 
HETATM   31  C   UNL     1      31.002  44.519  55.963  1.00  0.00     0.048 C 
HETATM   32  C   UNL     1      29.854  42.900  54.427  1.00  0.00     0.009 A 
HETATM   33  C   UNL     1      28.755  42.508  53.661  1.00  0.00     0.030 A 
ENDBRANCH  22  26
ENDBRANCH   1  18
TORSDOF 8
ENDMDL
MODEL 10
REMARK VINA RESULT:      -8.7      1.769      3.144
REMARK  8 active torsions:
REMARK  status: ('A' for Active; 'I' for Inactive)
REMARK    1  A    between atoms: C_2  and  O_3 
REMARK    2  A    between atoms: O_3  and  C_4 
REMARK    3  A    between atoms: C_4  and  C_5 
REMARK    4  A    between atoms: C_6  and  C_7 
REMARK    5  A    between atoms: C_7  and  O_8 
REMARK    6  A    between atoms: O_8  and  C_9 
REMARK    7  A    between atoms: C_9  and  C_10 
REMARK       I    between atoms: C_10  and  N_11 
REMARK       I    between atoms: N_11  and  C_12 
REMARK       I    between atoms: C_12  and  N_13 
REMARK    8  A    between atoms: N_13  and  C_14 
ROOT
HETATM    1  C   UNL     1      24.285  47.307  49.717  1.00  0.00     0.282 C 
ENDROOT
BRANCH   1   2
HETATM    2  O   UNL     1      23.710  48.605  49.907  1.00  0.00    -0.307 OA
BRANCH   2   3
HETATM    3  C   UNL     1      23.224  49.157  48.753  1.00  0.00     0.318 C 
HETATM    4  O   UNL     1      23.899  49.348  47.747  1.00  0.00    -0.257 OA
BRANCH   3   5
HETATM    5  C   UNL     1      21.820  49.457  48.889  1.00  0.00     0.160 A 
HETATM    6  C   UNL     1      20.672  48.673  48.829  1.00  0.00     0.018 A 
HETATM    7  C   UNL     1      19.577  49.558  49.092  1.00  0.00     0.009 A 
HETATM    8  C   UNL     1      20.135  50.812  49.290  1.00  0.00     0.087 A 
HETATM    9  C   UNL     1      18.179  49.428  49.207  1.00  0.00     0.015 A 
HETATM   10  O   UNL     1      21.484  50.753  49.174  1.00  0.00    -0.303 OA
HETATM   11  C   UNL     1      19.406  51.962  49.580  1.00  0.00     0.038 A 
HETATM   12  C   UNL     1      18.020  51.813  49.682  1.00  0.00     0.003 A 
HETATM   13  C   UNL     1      17.414  50.567  49.503  1.00  0.00     0.001 A 
BRANCH   6  14
HETATM   14  C   UNL     1      20.602  47.202  48.629  1.00  0.00     0.210 C 
BRANCH  14  15
HETATM   15  O   UNL     1      19.870  46.912  47.437  1.00  0.00    -0.387 OA
BRANCH  15  16
HETATM   16  C   UNL     1      19.187  45.665  47.515  1.00  0.00     0.163 C 
HETATM   17  C   UNL     1      17.779  45.924  48.016  1.00  0.00     0.033 C 
ENDBRANCH  15  16
ENDBRANCH  14  15
ENDBRANCH   6  14
ENDBRANCH   3   5
ENDBRANCH   2   3
ENDBRANCH   1   2
BRANCH   1  18
HETATM   18  C   UNL     1      25.663  47.152  50.378  1.00  0.00     0.249 C 
HETATM   19  N   UNL     1      26.103  45.912  50.778  1.00  0.00    -0.277 N 
HETATM   20  C   UNL     1      25.499  44.695  50.614  1.00  0.00     0.327 C 
HETATM   21  H   UNL     1      26.885  45.966  51.408  1.00  0.00     0.173 HD
HETATM   22  N   UNL     1      25.844  43.705  51.491  1.00  0.00    -0.308 N 
HETATM   23  O   UNL     1      24.642  44.458  49.766  1.00  0.00    -0.247 OA
HETATM   24  H   UNL     1      25.084  43.045  51.608  1.00  0.00     0.170 HD
HETATM   25  O   UNL     1      26.375  48.136  50.608  1.00  0.00    -0.271 OA
BRANCH  22  26
HETATM   26  C   UNL     1      26.919  43.601  52.388  1.00  0.00     0.042 A 
HETATM   27  C   UNL     1      26.840  43.893  53.761  1.00  0.00    -0.035 A 
HETATM   28  C   UNL     1      25.612  44.436  54.442  1.00  0.00     0.050 C 
HETATM   29  C   UNL     1      28.002  43.758  54.548  1.00  0.00     0.015 A 
HETATM   30  C   UNL     1      29.230  43.390  53.988  1.00  0.00    -0.061 A 
HETATM   31  C   UNL     1      30.470  43.319  54.829  1.00  0.00     0.048 C 
HETATM   32  C   UNL     1      29.304  43.171  52.611  1.00  0.00     0.009 A 
HETATM   33  C   UNL     1      28.160  43.284  51.820  1.00  0.00     0.030 A 
ENDBRANCH  22  26
ENDBRANCH   1  18
TORSDOF 8
ENDMDL
