MODEL 1
REMARK VINA RESULT:      -8.1      0.000      0.000
REMARK  7 active torsions:
REMARK  status: ('A' for Active; 'I' for Inactive)
REMARK    1  A    between atoms: C_4  and  C_5 
REMARK    2  A    between atoms: C_5  and  O_6 
REMARK    3  A    between atoms: C_5  and  C_7 
REMARK    4  A    between atoms: C_7  and  N_8 
REMARK       I    between atoms: N_8  and  C_9 
REMARK    5  A    between atoms: N_8  and  C_20 
REMARK    6  A    between atoms: C_9  and  C_10 
REMARK    7  A    between atoms: C_14  and  C_15 
ROOT
HETATM    1  N   UNL     1      26.072  46.561  50.634  1.00  0.00    -0.339 N 
HETATM    2  C   UNL     1      25.842  46.461  52.027  1.00  0.00     0.274 C 
HETATM    3  O   UNL     1      25.393  47.421  52.661  1.00  0.00    -0.266 OA
ENDROOT
BRANCH   1   4
HETATM    4  C   UNL     1      26.456  45.417  49.774  1.00  0.00     0.163 C 
BRANCH   4   5
HETATM    5  C   UNL     1      25.357  44.339  49.603  1.00  0.00     0.169 C 
BRANCH   5   6
HETATM    6  C   UNL     1      25.927  42.946  49.784  1.00  0.00    -0.028 A 
HETATM    7  C   UNL     1      25.253  41.975  50.540  1.00  0.00     0.010 A 
HETATM    8  C   UNL     1      25.774  40.688  50.674  1.00  0.00     0.001 A 
HETATM    9  C   UNL     1      26.974  40.352  50.049  1.00  0.00     0.000 A 
HETATM   10  C   UNL     1      27.652  41.303  49.291  1.00  0.00     0.001 A 
HETATM   11  C   UNL     1      27.132  42.592  49.157  1.00  0.00     0.010 A 
ENDBRANCH   5   6
BRANCH   5  12
HETATM   12  O   UNL     1      24.685  44.415  48.347  1.00  0.00    -0.389 OA
HETATM   13  H   UNL     1      23.958  43.755  48.371  1.00  0.00     0.210 HD
ENDBRANCH   5  12
ENDBRANCH   4   5
ENDBRANCH   1   4
BRANCH   1  14
HETATM   14  C   UNL     1      25.947  47.915  50.046  1.00  0.00     0.087 C 
HETATM   15  C   UNL     1      24.669  48.160  49.225  1.00  0.00     0.025 C 
HETATM   16  C   UNL     1      24.594  49.603  48.730  1.00  0.00     0.002 C 
HETATM   17  C   UNL     1      25.832  49.979  47.921  1.00  0.00     0.000 C 
HETATM   18  C   UNL     1      27.115  49.731  48.708  1.00  0.00     0.002 C 
HETATM   19  C   UNL     1      27.197  48.297  49.231  1.00  0.00     0.025 C 
ENDBRANCH   1  14
BRANCH   2  20
HETATM   20  C   UNL     1      26.105  45.197  52.748  1.00  0.00     0.146 A 
HETATM   21  N   UNL     1      25.153  44.404  53.286  1.00  0.00    -0.169 NA
HETATM   22  N   UNL     1      25.836  43.361  53.796  1.00  0.00    -0.281 N 
HETATM   23  H   UNL     1      25.320  42.623  54.264  1.00  0.00     0.189 HD
HETATM   24  C   UNL     1      27.180  43.440  53.598  1.00  0.00     0.034 A 
HETATM   25  C   UNL     1      27.391  44.600  52.899  1.00  0.00     0.066 A 
BRANCH  24  26
HETATM   26  C   UNL     1      28.247  42.463  54.039  1.00  0.00     0.037 A 
HETATM   27  C   UNL     1      28.372  41.147  53.302  1.00  0.00     0.011 A 
HETATM   28  C   UNL     1      29.417  42.193  53.119  1.00  0.00     0.011 A 
ENDBRANCH  24  26
ENDBRANCH   2  20
TORSDOF 7
ENDMDL
MODEL 2
REMARK VINA RESULT:      -7.7      2.782      5.288
REMARK  7 active torsions:
REMARK  status: ('A' for Active; 'I' for Inactive)
REMARK    1  A    between atoms: C_4  and  C_5 
REMARK    2  A    between atoms: C_5  and  O_6 
REMARK    3  A    between atoms: C_5  and  C_7 
REMARK    4  A    between atoms: C_7  and  N_8 
REMARK       I    between atoms: N_8  and  C_9 
REMARK    5  A    between atoms: N_8  and  C_20 
REMARK    6  A    between atoms: C_9  and  C_10 
REMARK    7  A    between atoms: C_14  and  C_15 
ROOT
HETATM    1  N   UNL     1      27.036  43.514  50.531  1.00  0.00    -0.339 N 
HETATM    2  C   UNL     1      26.497  42.483  49.725  1.00  0.00     0.274 C 
HETATM    3  O   UNL     1      25.705  42.745  48.815  1.00  0.00    -0.266 OA
ENDROOT
BRANCH   1   4
HETATM    4  C   UNL     1      28.108  43.307  51.533  1.00  0.00     0.163 C 
BRANCH   4   5
HETATM    5  C   UNL     1      27.603  42.999  52.965  1.00  0.00     0.169 C 
BRANCH   5   6
HETATM    6  C   UNL     1      28.566  43.532  54.008  1.00  0.00    -0.028 A 
HETATM    7  C   UNL     1      29.731  42.829  54.351  1.00  0.00     0.010 A 
HETATM    8  C   UNL     1      30.623  43.345  55.292  1.00  0.00     0.001 A 
HETATM    9  C   UNL     1      30.365  44.573  55.898  1.00  0.00     0.000 A 
HETATM   10  C   UNL     1      29.216  45.285  55.565  1.00  0.00     0.001 A 
HETATM   11  C   UNL     1      28.322  44.769  54.624  1.00  0.00     0.010 A 
ENDBRANCH   5   6
BRANCH   5  12
HETATM   12  O   UNL     1      27.379  41.609  53.196  1.00  0.00    -0.389 OA
HETATM   13  H   UNL     1      26.539  41.534  53.699  1.00  0.00     0.210 HD
ENDBRANCH   5  12
ENDBRANCH   4   5
ENDBRANCH   1   4
BRANCH   1  14
HETATM   14  C   UNL     1      26.441  44.859  50.357  1.00  0.00     0.087 C 
HETATM   15  C   UNL     1      27.377  45.920  49.752  1.00  0.00     0.025 C 
HETATM   16  C   UNL     1      26.650  47.246  49.538  1.00  0.00     0.002 C 
HETATM   17  C   UNL     1      26.028  47.755  50.835  1.00  0.00     0.000 C 
HETATM   18  C   UNL     1      25.106  46.715  51.463  1.00  0.00     0.002 C 
HETATM   19  C   UNL     1      25.810  45.374  51.665  1.00  0.00     0.025 C 
ENDBRANCH   1  14
BRANCH   2  20
HETATM   20  C   UNL     1      26.895  41.074  49.935  1.00  0.00     0.146 A 
HETATM   21  N   UNL     1      26.112  40.128  50.498  1.00  0.00    -0.169 NA
HETATM   22  N   UNL     1      26.855  39.005  50.446  1.00  0.00    -0.281 N 
HETATM   23  H   UNL     1      26.468  38.147  50.824  1.00  0.00     0.189 HD
HETATM   24  C   UNL     1      28.071  39.183  49.863  1.00  0.00     0.034 A 
HETATM   25  C   UNL     1      28.124  40.503  49.493  1.00  0.00     0.066 A 
BRANCH  24  26
HETATM   26  C   UNL     1      29.161  38.158  49.645  1.00  0.00     0.037 A 
HETATM   27  C   UNL     1      30.239  38.012  50.699  1.00  0.00     0.011 A 
HETATM   28  C   UNL     1      29.213  36.942  50.545  1.00  0.00     0.011 A 
ENDBRANCH  24  26
ENDBRANCH   2  20
TORSDOF 7
ENDMDL
MODEL 3
REMARK VINA RESULT:      -7.6      2.657      7.135
REMARK  7 active torsions:
REMARK  status: ('A' for Active; 'I' for Inactive)
REMARK    1  A    between atoms: C_4  and  C_5 
REMARK    2  A    between atoms: C_5  and  O_6 
REMARK    3  A    between atoms: C_5  and  C_7 
REMARK    4  A    between atoms: C_7  and  N_8 
REMARK       I    between atoms: N_8  and  C_9 
REMARK    5  A    between atoms: N_8  and  C_20 
REMARK    6  A    between atoms: C_9  and  C_10 
REMARK    7  A    between atoms: C_14  and  C_15 
ROOT
HETATM    1  N   UNL     1      27.448  41.237  50.771  1.00  0.00    -0.339 N 
HETATM    2  C   UNL     1      26.165  41.550  50.262  1.00  0.00     0.274 C 
HETATM    3  O   UNL     1      25.524  40.716  49.616  1.00  0.00    -0.266 OA
ENDROOT
BRANCH   1   4
HETATM    4  C   UNL     1      28.214  42.117  51.684  1.00  0.00     0.163 C 
BRANCH   4   5
HETATM    5  C   UNL     1      27.647  42.205  53.123  1.00  0.00     0.169 C 
BRANCH   5   6
HETATM    6  C   UNL     1      28.524  43.076  54.002  1.00  0.00    -0.028 A 
HETATM    7  C   UNL     1      28.075  44.318  54.477  1.00  0.00     0.010 A 
HETATM    8  C   UNL     1      28.881  45.096  55.308  1.00  0.00     0.001 A 
HETATM    9  C   UNL     1      30.144  44.641  55.682  1.00  0.00     0.000 A 
HETATM   10  C   UNL     1      30.602  43.407  55.223  1.00  0.00     0.001 A 
HETATM   11  C   UNL     1      29.797  42.628  54.390  1.00  0.00     0.010 A 
ENDBRANCH   5   6
BRANCH   5  12
HETATM   12  O   UNL     1      27.478  40.930  53.741  1.00  0.00    -0.389 OA
HETATM   13  H   UNL     1      27.966  40.279  53.193  1.00  0.00     0.210 HD
ENDBRANCH   5  12
ENDBRANCH   4   5
ENDBRANCH   1   4
BRANCH   1  14
HETATM   14  C   UNL     1      28.041  39.960  50.309  1.00  0.00     0.087 C 
HETATM   15  C   UNL     1      29.144  39.382  51.215  1.00  0.00     0.025 C 
HETATM   16  C   UNL     1      29.634  38.030  50.699  1.00  0.00     0.002 C 
HETATM   17  C   UNL     1      30.119  38.127  49.256  1.00  0.00     0.000 C 
HETATM   18  C   UNL     1      29.048  38.712  48.340  1.00  0.00     0.002 C 
HETATM   19  C   UNL     1      28.530  40.056  48.852  1.00  0.00     0.025 C 
ENDBRANCH   1  14
BRANCH   2  20
HETATM   20  C   UNL     1      25.552  42.872  50.518  1.00  0.00     0.146 A 
HETATM   21  N   UNL     1      24.530  43.095  51.372  1.00  0.00    -0.169 NA
HETATM   22  N   UNL     1      24.333  44.426  51.316  1.00  0.00    -0.281 N 
HETATM   23  H   UNL     1      23.596  44.833  51.883  1.00  0.00     0.189 HD
HETATM   24  C   UNL     1      25.189  45.069  50.478  1.00  0.00     0.034 A 
HETATM   25  C   UNL     1      26.013  44.102  49.963  1.00  0.00     0.066 A 
BRANCH  24  26
HETATM   26  C   UNL     1      25.252  46.547  50.161  1.00  0.00     0.037 A 
HETATM   27  C   UNL     1      26.058  47.449  51.072  1.00  0.00     0.011 A 
HETATM   28  C   UNL     1      26.565  47.143  49.705  1.00  0.00     0.011 A 
ENDBRANCH  24  26
ENDBRANCH   2  20
TORSDOF 7
ENDMDL
MODEL 4
REMARK VINA RESULT:      -7.4      2.413      5.538
REMARK  7 active torsions:
REMARK  status: ('A' for Active; 'I' for Inactive)
REMARK    1  A    between atoms: C_4  and  C_5 
REMARK    2  A    between atoms: C_5  and  O_6 
REMARK    3  A    between atoms: C_5  and  C_7 
REMARK    4  A    between atoms: C_7  and  N_8 
REMARK       I    between atoms: N_8  and  C_9 
REMARK    5  A    between atoms: N_8  and  C_20 
REMARK    6  A    between atoms: C_9  and  C_10 
REMARK    7  A    between atoms: C_14  and  C_15 
ROOT
HETATM    1  N   UNL     1      26.260  44.493  51.554  1.00  0.00    -0.339 N 
HETATM    2  C   UNL     1      26.646  44.052  52.842  1.00  0.00     0.274 C 
HETATM    3  O   UNL     1      26.441  42.887  53.195  1.00  0.00    -0.266 OA
ENDROOT
BRANCH   1   4
HETATM    4  C   UNL     1      26.609  45.820  50.994  1.00  0.00     0.163 C 
BRANCH   4   5
HETATM    5  C   UNL     1      25.439  46.834  50.958  1.00  0.00     0.169 C 
BRANCH   5   6
HETATM    6  C   UNL     1      25.700  47.932  49.945  1.00  0.00    -0.028 A 
HETATM    7  C   UNL     1      24.645  48.567  49.272  1.00  0.00     0.010 A 
HETATM    8  C   UNL     1      24.897  49.595  48.363  1.00  0.00     0.001 A 
HETATM    9  C   UNL     1      26.206  50.007  48.120  1.00  0.00     0.000 A 
HETATM   10  C   UNL     1      27.264  49.389  48.784  1.00  0.00     0.001 A 
HETATM   11  C   UNL     1      27.013  48.359  49.693  1.00  0.00     0.010 A 
ENDBRANCH   5   6
BRANCH   5  12
HETATM   12  O   UNL     1      25.164  47.422  52.230  1.00  0.00    -0.389 OA
HETATM   13  H   UNL     1      25.552  46.829  52.909  1.00  0.00     0.210 HD
ENDBRANCH   5  12
ENDBRANCH   4   5
ENDBRANCH   1   4
BRANCH   1  14
HETATM   14  C   UNL     1      25.427  43.557  50.763  1.00  0.00     0.087 C 
HETATM   15  C   UNL     1      25.880  43.343  49.307  1.00  0.00     0.025 C 
HETATM   16  C   UNL     1      25.010  42.304  48.602  1.00  0.00     0.002 C 
HETATM   17  C   UNL     1      23.534  42.685  48.656  1.00  0.00     0.000 C 
HETATM   18  C   UNL     1      23.064  42.917  50.089  1.00  0.00     0.002 C 
HETATM   19  C   UNL     1      23.936  43.938  50.818  1.00  0.00     0.025 C 
ENDBRANCH   1  14
BRANCH   2  20
HETATM   20  C   UNL     1      27.330  44.967  53.781  1.00  0.00     0.146 A 
HETATM   21  N   UNL     1      26.826  46.142  54.216  1.00  0.00    -0.169 NA
HETATM   22  N   UNL     1      27.756  46.607  55.073  1.00  0.00    -0.281 N 
HETATM   23  H   UNL     1      27.595  47.498  55.530  1.00  0.00     0.189 HD
HETATM   24  C   UNL     1      28.825  45.778  55.219  1.00  0.00     0.034 A 
HETATM   25  C   UNL     1      28.574  44.692  54.421  1.00  0.00     0.066 A 
BRANCH  24  26
HETATM   26  C   UNL     1      30.051  45.980  56.081  1.00  0.00     0.037 A 
HETATM   27  C   UNL     1      29.934  45.747  57.573  1.00  0.00     0.011 A 
HETATM   28  C   UNL     1      30.693  44.776  56.735  1.00  0.00     0.011 A 
ENDBRANCH  24  26
ENDBRANCH   2  20
TORSDOF 7
ENDMDL
MODEL 5
REMARK VINA RESULT:      -7.4     11.219     13.757
REMARK  7 active torsions:
REMARK  status: ('A' for Active; 'I' for Inactive)
REMARK    1  A    between atoms: C_4  and  C_5 
REMARK    2  A    between atoms: C_5  and  O_6 
REMARK    3  A    between atoms: C_5  and  C_7 
REMARK    4  A    between atoms: C_7  and  N_8 
REMARK       I    between atoms: N_8  and  C_9 
REMARK    5  A    between atoms: N_8  and  C_20 
REMARK    6  A    between atoms: C_9  and  C_10 
REMARK    7  A    between atoms: C_14  and  C_15 
ROOT
HETATM    1  N   UNL     1      33.347  51.222  41.361  1.00  0.00    -0.339 N 
HETATM    2  C   UNL     1      32.628  52.164  40.588  1.00  0.00     0.274 C 
HETATM    3  O   UNL     1      33.221  53.040  39.951  1.00  0.00    -0.266 OA
ENDROOT
BRANCH   1   4
HETATM    4  C   UNL     1      32.730  50.049  42.023  1.00  0.00     0.163 C 
BRANCH   4   5
HETATM    5  C   UNL     1      32.584  48.800  41.119  1.00  0.00     0.169 C 
BRANCH   5   6
HETATM    6  C   UNL     1      31.138  48.350  41.042  1.00  0.00    -0.028 A 
HETATM    7  C   UNL     1      30.723  47.391  40.105  1.00  0.00     0.010 A 
HETATM    8  C   UNL     1      29.395  46.964  40.064  1.00  0.00     0.001 A 
HETATM    9  C   UNL     1      28.466  47.485  40.963  1.00  0.00     0.000 A 
HETATM   10  C   UNL     1      28.864  48.433  41.902  1.00  0.00     0.001 A 
HETATM   11  C   UNL     1      30.192  48.862  41.944  1.00  0.00     0.010 A 
ENDBRANCH   5   6
BRANCH   5  12
HETATM   12  O   UNL     1      33.398  47.704  41.537  1.00  0.00    -0.389 OA
HETATM   13  H   UNL     1      32.853  47.158  42.145  1.00  0.00     0.210 HD
ENDBRANCH   5  12
ENDBRANCH   4   5
ENDBRANCH   1   4
BRANCH   1  14
HETATM   14  C   UNL     1      34.798  51.481  41.524  1.00  0.00     0.087 C 
HETATM   15  C   UNL     1      35.727  50.517  40.765  1.00  0.00     0.025 C 
HETATM   16  C   UNL     1      37.193  50.913  40.930  1.00  0.00     0.002 C 
HETATM   17  C   UNL     1      37.586  50.991  42.402  1.00  0.00     0.000 C 
HETATM   18  C   UNL     1      36.669  51.930  43.180  1.00  0.00     0.002 C 
HETATM   19  C   UNL     1      35.196  51.563  43.009  1.00  0.00     0.025 C 
ENDBRANCH   1  14
BRANCH   2  20
HETATM   20  C   UNL     1      31.153  52.101  40.500  1.00  0.00     0.146 A 
HETATM   21  N   UNL     1      30.304  52.567  41.443  1.00  0.00    -0.169 NA
HETATM   22  N   UNL     1      29.079  52.339  40.931  1.00  0.00    -0.281 N 
HETATM   23  H   UNL     1      28.267  52.608  41.475  1.00  0.00     0.189 HD
HETATM   24  C   UNL     1      29.102  51.763  39.698  1.00  0.00     0.034 A 
HETATM   25  C   UNL     1      30.426  51.618  39.373  1.00  0.00     0.066 A 
BRANCH  24  26
HETATM   26  C   UNL     1      27.927  51.360  38.835  1.00  0.00     0.037 A 
HETATM   27  C   UNL     1      27.852  49.932  38.338  1.00  0.00     0.011 A 
HETATM   28  C   UNL     1      26.907  50.392  39.394  1.00  0.00     0.011 A 
ENDBRANCH  24  26
ENDBRANCH   2  20
TORSDOF 7
ENDMDL
MODEL 6
REMARK VINA RESULT:      -7.3     11.260     12.989
REMARK  7 active torsions:
REMARK  status: ('A' for Active; 'I' for Inactive)
REMARK    1  A    between atoms: C_4  and  C_5 
REMARK    2  A    between atoms: C_5  and  O_6 
REMARK    3  A    between atoms: C_5  and  C_7 
REMARK    4  A    between atoms: C_7  and  N_8 
REMARK       I    between atoms: N_8  and  C_9 
REMARK    5  A    between atoms: N_8  and  C_20 
REMARK    6  A    between atoms: C_9  and  C_10 
REMARK    7  A    between atoms: C_14  and  C_15 
ROOT
HETATM    1  N   UNL     1      31.446  50.987  41.564  1.00  0.00    -0.339 N 
HETATM    2  C   UNL     1      30.538  51.888  40.960  1.00  0.00     0.274 C 
HETATM    3  O   UNL     1      30.889  53.035  40.667  1.00  0.00    -0.266 OA
ENDROOT
BRANCH   1   4
HETATM    4  C   UNL     1      31.158  49.554  41.801  1.00  0.00     0.163 C 
BRANCH   4   5
HETATM    5  C   UNL     1      31.324  48.647  40.557  1.00  0.00     0.169 C 
BRANCH   5   6
HETATM    6  C   UNL     1      30.104  47.769  40.356  1.00  0.00    -0.028 A 
HETATM    7  C   UNL     1      28.975  47.890  41.181  1.00  0.00     0.010 A 
HETATM    8  C   UNL     1      27.848  47.096  40.967  1.00  0.00     0.001 A 
HETATM    9  C   UNL     1      27.831  46.174  39.921  1.00  0.00     0.000 A 
HETATM   10  C   UNL     1      28.942  46.046  39.091  1.00  0.00     0.001 A 
HETATM   11  C   UNL     1      30.071  46.839  39.305  1.00  0.00     0.010 A 
ENDBRANCH   5   6
BRANCH   5  12
HETATM   12  O   UNL     1      32.491  47.827  40.609  1.00  0.00    -0.389 OA
HETATM   13  H   UNL     1      33.227  48.396  40.925  1.00  0.00     0.210 HD
ENDBRANCH   5  12
ENDBRANCH   4   5
ENDBRANCH   1   4
BRANCH   1  14
HETATM   14  C   UNL     1      32.740  51.560  42.005  1.00  0.00     0.087 C 
HETATM   15  C   UNL     1      33.970  51.104  41.199  1.00  0.00     0.025 C 
HETATM   16  C   UNL     1      35.238  51.809  41.676  1.00  0.00     0.002 C 
HETATM   17  C   UNL     1      35.465  51.596  43.170  1.00  0.00     0.000 C 
HETATM   18  C   UNL     1      34.253  52.027  43.990  1.00  0.00     0.002 C 
HETATM   19  C   UNL     1      32.970  51.349  43.513  1.00  0.00     0.025 C 
ENDBRANCH   1  14
BRANCH   2  20
HETATM   20  C   UNL     1      29.157  51.467  40.638  1.00  0.00     0.146 A 
HETATM   21  N   UNL     1      28.123  51.486  41.507  1.00  0.00    -0.169 NA
HETATM   22  N   UNL     1      27.069  51.065  40.781  1.00  0.00    -0.281 N 
HETATM   23  H   UNL     1      26.164  50.992  41.233  1.00  0.00     0.189 HD
HETATM   24  C   UNL     1      27.375  50.790  39.484  1.00  0.00     0.034 A 
HETATM   25  C   UNL     1      28.711  51.064  39.344  1.00  0.00     0.066 A 
BRANCH  24  26
HETATM   26  C   UNL     1      26.455  50.290  38.393  1.00  0.00     0.037 A 
HETATM   27  C   UNL     1      26.677  48.899  37.840  1.00  0.00     0.011 A 
HETATM   28  C   UNL     1      25.493  49.165  38.705  1.00  0.00     0.011 A 
ENDBRANCH  24  26
ENDBRANCH   2  20
TORSDOF 7
ENDMDL
MODEL 7
REMARK VINA RESULT:      -7.3      2.189      5.906
REMARK  7 active torsions:
REMARK  status: ('A' for Active; 'I' for Inactive)
REMARK    1  A    between atoms: C_4  and  C_5 
REMARK    2  A    between atoms: C_5  and  O_6 
REMARK    3  A    between atoms: C_5  and  C_7 
REMARK    4  A    between atoms: C_7  and  N_8 
REMARK       I    between atoms: N_8  and  C_9 
REMARK    5  A    between atoms: N_8  and  C_20 
REMARK    6  A    between atoms: C_9  and  C_10 
REMARK    7  A    between atoms: C_14  and  C_15 
ROOT
HETATM    1  N   UNL     1      25.922  45.259  52.326  1.00  0.00    -0.339 N 
HETATM    2  C   UNL     1      25.014  44.185  52.478  1.00  0.00     0.274 C 
HETATM    3  O   UNL     1      24.689  43.790  53.601  1.00  0.00    -0.266 OA
ENDROOT
BRANCH   1   4
HETATM    4  C   UNL     1      26.242  45.897  51.027  1.00  0.00     0.163 C 
BRANCH   4   5
HETATM    5  C   UNL     1      25.137  46.832  50.477  1.00  0.00     0.169 C 
BRANCH   5   6
HETATM    6  C   UNL     1      25.737  47.983  49.694  1.00  0.00    -0.028 A 
HETATM    7  C   UNL     1      24.928  48.864  48.959  1.00  0.00     0.010 A 
HETATM    8  C   UNL     1      25.490  49.937  48.266  1.00  0.00     0.001 A 
HETATM    9  C   UNL     1      26.867  50.148  48.304  1.00  0.00     0.000 A 
HETATM   10  C   UNL     1      27.682  49.285  49.034  1.00  0.00     0.001 A 
HETATM   11  C   UNL     1      27.121  48.211  49.726  1.00  0.00     0.010 A 
ENDBRANCH   5   6
BRANCH   5  12
HETATM   12  O   UNL     1      24.278  47.349  51.494  1.00  0.00    -0.389 OA
HETATM   13  H   UNL     1      24.788  48.036  51.976  1.00  0.00     0.210 HD
ENDBRANCH   5  12
ENDBRANCH   4   5
ENDBRANCH   1   4
BRANCH   1  14
HETATM   14  C   UNL     1      26.602  45.720  53.559  1.00  0.00     0.087 C 
HETATM   15  C   UNL     1      26.910  47.227  53.616  1.00  0.00     0.025 C 
HETATM   16  C   UNL     1      27.535  47.616  54.954  1.00  0.00     0.002 C 
HETATM   17  C   UNL     1      28.792  46.799  55.240  1.00  0.00     0.000 C 
HETATM   18  C   UNL     1      28.516  45.300  55.175  1.00  0.00     0.002 C 
HETATM   19  C   UNL     1      27.869  44.895  53.851  1.00  0.00     0.025 C 
ENDBRANCH   1  14
BRANCH   2  20
HETATM   20  C   UNL     1      24.409  43.533  51.295  1.00  0.00     0.146 A 
HETATM   21  N   UNL     1      23.240  43.900  50.727  1.00  0.00    -0.169 NA
HETATM   22  N   UNL     1      23.108  43.072  49.672  1.00  0.00    -0.281 N 
HETATM   23  H   UNL     1      22.284  43.158  49.086  1.00  0.00     0.189 HD
HETATM   24  C   UNL     1      24.143  42.201  49.529  1.00  0.00     0.034 A 
HETATM   25  C   UNL     1      25.020  42.487  50.544  1.00  0.00     0.066 A 
BRANCH  24  26
HETATM   26  C   UNL     1      24.325  41.132  48.476  1.00  0.00     0.037 A 
HETATM   27  C   UNL     1      24.670  41.557  47.065  1.00  0.00     0.011 A 
HETATM   28  C   UNL     1      25.705  40.892  47.905  1.00  0.00     0.011 A 
ENDBRANCH  24  26
ENDBRANCH   2  20
TORSDOF 7
ENDMDL
MODEL 8
REMARK VINA RESULT:      -7.3      2.413      6.312
REMARK  7 active torsions:
REMARK  status: ('A' for Active; 'I' for Inactive)
REMARK    1  A    between atoms: C_4  and  C_5 
REMARK    2  A    between atoms: C_5  and  O_6 
REMARK    3  A    between atoms: C_5  and  C_7 
REMARK    4  A    between atoms: C_7  and  N_8 
REMARK       I    between atoms: N_8  and  C_9 
REMARK    5  A    between atoms: N_8  and  C_20 
REMARK    6  A    between atoms: C_9  and  C_10 
REMARK    7  A    between atoms: C_14  and  C_15 
ROOT
HETATM    1  N   UNL     1      27.537  41.284  51.278  1.00  0.00    -0.339 N 
HETATM    2  C   UNL     1      28.362  41.509  52.406  1.00  0.00     0.274 C 
HETATM    3  O   UNL     1      29.343  40.791  52.622  1.00  0.00    -0.266 OA
ENDROOT
BRANCH   1   4
HETATM    4  C   UNL     1      26.442  42.188  50.859  1.00  0.00     0.163 C 
BRANCH   4   5
HETATM    5  C   UNL     1      26.879  43.343  49.925  1.00  0.00     0.169 C 
BRANCH   5   6
HETATM    6  C   UNL     1      26.415  44.683  50.461  1.00  0.00    -0.028 A 
HETATM    7  C   UNL     1      25.687  44.777  51.657  1.00  0.00     0.010 A 
HETATM    8  C   UNL     1      25.291  46.019  52.154  1.00  0.00     0.001 A 
HETATM    9  C   UNL     1      25.622  47.184  51.466  1.00  0.00     0.000 A 
HETATM   10  C   UNL     1      26.350  47.108  50.280  1.00  0.00     0.001 A 
HETATM   11  C   UNL     1      26.745  45.866  49.781  1.00  0.00     0.010 A 
ENDBRANCH   5   6
BRANCH   5  12
HETATM   12  O   UNL     1      26.419  43.187  48.582  1.00  0.00    -0.389 OA
HETATM   13  H   UNL     1      27.174  43.407  47.994  1.00  0.00     0.210 HD
ENDBRANCH   5  12
ENDBRANCH   4   5
ENDBRANCH   1   4
BRANCH   1  14
HETATM   14  C   UNL     1      27.795  40.037  50.519  1.00  0.00     0.087 C 
HETATM   15  C   UNL     1      28.711  40.192  49.292  1.00  0.00     0.025 C 
HETATM   16  C   UNL     1      28.980  38.844  48.626  1.00  0.00     0.002 C 
HETATM   17  C   UNL     1      27.679  38.144  48.242  1.00  0.00     0.000 C 
HETATM   18  C   UNL     1      26.746  37.991  49.439  1.00  0.00     0.002 C 
HETATM   19  C   UNL     1      26.483  39.328  50.132  1.00  0.00     0.025 C 
ENDBRANCH   1  14
BRANCH   2  20
HETATM   20  C   UNL     1      28.085  42.628  53.333  1.00  0.00     0.146 A 
HETATM   21  N   UNL     1      27.133  42.618  54.291  1.00  0.00    -0.169 NA
HETATM   22  N   UNL     1      27.267  43.808  54.908  1.00  0.00    -0.281 N 
HETATM   23  H   UNL     1      26.642  44.032  55.675  1.00  0.00     0.189 HD
HETATM   24  C   UNL     1      28.270  44.575  54.400  1.00  0.00     0.034 A 
HETATM   25  C   UNL     1      28.841  43.835  53.397  1.00  0.00     0.066 A 
BRANCH  24  26
HETATM   26  C   UNL     1      28.696  45.960  54.833  1.00  0.00     0.037 A 
HETATM   27  C   UNL     1      27.673  47.076  54.800  1.00  0.00     0.011 A 
HETATM   28  C   UNL     1      28.127  46.535  56.112  1.00  0.00     0.011 A 
ENDBRANCH  24  26
ENDBRANCH   2  20
TORSDOF 7
ENDMDL
MODEL 9
REMARK VINA RESULT:      -7.3      2.404      5.937
REMARK  7 active torsions:
REMARK  status: ('A' for Active; 'I' for Inactive)
REMARK    1  A    between atoms: C_4  and  C_5 
REMARK    2  A    between atoms: C_5  and  O_6 
REMARK    3  A    between atoms: C_5  and  C_7 
REMARK    4  A    between atoms: C_7  and  N_8 
REMARK       I    between atoms: N_8  and  C_9 
REMARK    5  A    between atoms: N_8  and  C_20 
REMARK    6  A    between atoms: C_9  and  C_10 
REMARK    7  A    between atoms: C_14  and  C_15 
ROOT
HETATM    1  N   UNL     1      28.152  44.512  53.817  1.00  0.00    -0.339 N 
HETATM    2  C   UNL     1      26.992  45.316  53.920  1.00  0.00     0.274 C 
HETATM    3  O   UNL     1      26.783  45.994  54.930  1.00  0.00    -0.266 OA
ENDROOT
BRANCH   1   4
HETATM    4  C   UNL     1      28.558  43.795  52.586  1.00  0.00     0.163 C 
BRANCH   4   5
HETATM    5  C   UNL     1      28.048  42.336  52.489  1.00  0.00     0.169 C 
BRANCH   5   6
HETATM    6  C   UNL     1      27.679  41.982  51.061  1.00  0.00    -0.028 A 
HETATM    7  C   UNL     1      26.903  42.846  50.273  1.00  0.00     0.010 A 
HETATM    8  C   UNL     1      26.594  42.520  48.952  1.00  0.00     0.001 A 
HETATM    9  C   UNL     1      27.063  41.330  48.398  1.00  0.00     0.000 A 
HETATM   10  C   UNL     1      27.839  40.465  49.166  1.00  0.00     0.001 A 
HETATM   11  C   UNL     1      28.147  40.789  50.489  1.00  0.00     0.010 A 
ENDBRANCH   5   6
BRANCH   5  12
HETATM   12  O   UNL     1      26.936  42.070  53.343  1.00  0.00    -0.389 OA
HETATM   13  H   UNL     1      26.955  42.744  54.057  1.00  0.00     0.210 HD
ENDBRANCH   5  12
ENDBRANCH   4   5
ENDBRANCH   1   4
BRANCH   1  14
HETATM   14  C   UNL     1      28.964  44.375  55.049  1.00  0.00     0.087 C 
HETATM   15  C   UNL     1      29.496  45.694  55.636  1.00  0.00     0.025 C 
HETATM   16  C   UNL     1      30.249  45.457  56.944  1.00  0.00     0.002 C 
HETATM   17  C   UNL     1      31.384  44.454  56.758  1.00  0.00     0.000 C 
HETATM   18  C   UNL     1      30.884  43.142  56.163  1.00  0.00     0.002 C 
HETATM   19  C   UNL     1      30.109  43.361  54.865  1.00  0.00     0.025 C 
ENDBRANCH   1  14
BRANCH   2  20
HETATM   20  C   UNL     1      26.020  45.385  52.807  1.00  0.00     0.146 A 
HETATM   21  N   UNL     1      24.904  44.629  52.710  1.00  0.00    -0.169 NA
HETATM   22  N   UNL     1      24.311  45.053  51.577  1.00  0.00    -0.281 N 
HETATM   23  H   UNL     1      23.441  44.617  51.291  1.00  0.00     0.189 HD
HETATM   24  C   UNL     1      24.986  46.055  50.951  1.00  0.00     0.034 A 
HETATM   25  C   UNL     1      26.083  46.317  51.730  1.00  0.00     0.066 A 
BRANCH  24  26
HETATM   26  C   UNL     1      24.625  46.760  49.663  1.00  0.00     0.037 A 
HETATM   27  C   UNL     1      23.684  47.944  49.725  1.00  0.00     0.011 A 
HETATM   28  C   UNL     1      25.128  48.168  49.433  1.00  0.00     0.011 A 
ENDBRANCH  24  26
ENDBRANCH   2  20
TORSDOF 7
ENDMDL
MODEL 10
REMARK VINA RESULT:      -7.2      1.815      2.263
REMARK  7 active torsions:
REMARK  status: ('A' for Active; 'I' for Inactive)
REMARK    1  A    between atoms: C_4  and  C_5 
REMARK    2  A    between atoms: C_5  and  O_6 
REMARK    3  A    between atoms: C_5  and  C_7 
REMARK    4  A    between atoms: C_7  and  N_8 
REMARK       I    between atoms: N_8  and  C_9 
REMARK    5  A    between atoms: N_8  and  C_20 
REMARK    6  A    between atoms: C_9  and  C_10 
REMARK    7  A    between atoms: C_14  and  C_15 
ROOT
HETATM    1  N   UNL     1      25.318  46.352  50.978  1.00  0.00    -0.339 N 
HETATM    2  C   UNL     1      25.540  46.384  52.375  1.00  0.00     0.274 C 
HETATM    3  O   UNL     1      25.321  47.412  53.024  1.00  0.00    -0.266 OA
ENDROOT
BRANCH   1   4
HETATM    4  C   UNL     1      25.402  45.124  50.154  1.00  0.00     0.163 C 
BRANCH   4   5
HETATM    5  C   UNL     1      24.291  44.082  50.431  1.00  0.00     0.169 C 
BRANCH   5   6
HETATM    6  C   UNL     1      23.781  43.472  49.139  1.00  0.00    -0.028 A 
HETATM    7  C   UNL     1      23.399  42.123  49.072  1.00  0.00     0.010 A 
HETATM    8  C   UNL     1      22.905  41.582  47.884  1.00  0.00     0.001 A 
HETATM    9  C   UNL     1      22.778  42.384  46.751  1.00  0.00     0.000 A 
HETATM   10  C   UNL     1      23.147  43.726  46.805  1.00  0.00     0.001 A 
HETATM   11  C   UNL     1      23.644  44.268  47.991  1.00  0.00     0.010 A 
ENDBRANCH   5   6
BRANCH   5  12
HETATM   12  O   UNL     1      23.190  44.614  51.168  1.00  0.00    -0.389 OA
HETATM   13  H   UNL     1      22.653  43.850  51.472  1.00  0.00     0.210 HD
ENDBRANCH   5  12
ENDBRANCH   4   5
ENDBRANCH   1   4
BRANCH   1  14
HETATM   14  C   UNL     1      25.022  47.653  50.332  1.00  0.00     0.087 C 
HETATM   15  C   UNL     1      23.701  47.711  49.546  1.00  0.00     0.025 C 
HETATM   16  C   UNL     1      23.448  49.111  48.988  1.00  0.00     0.002 C 
HETATM   17  C   UNL     1      24.611  49.583  48.121  1.00  0.00     0.000 C 
HETATM   18  C   UNL     1      25.936  49.520  48.874  1.00  0.00     0.002 C 
HETATM   19  C   UNL     1      26.197  48.132  49.458  1.00  0.00     0.025 C 
ENDBRANCH   1  14
BRANCH   2  20
HETATM   20  C   UNL     1      26.009  45.179  53.094  1.00  0.00     0.146 A 
HETATM   21  N   UNL     1      25.207  44.312  53.748  1.00  0.00    -0.169 NA
HETATM   22  N   UNL     1      26.046  43.363  54.207  1.00  0.00    -0.281 N 
HETATM   23  H   UNL     1      25.663  42.593  54.745  1.00  0.00     0.189 HD
HETATM   24  C   UNL     1      27.346  43.573  53.866  1.00  0.00     0.034 A 
HETATM   25  C   UNL     1      27.360  44.724  53.121  1.00  0.00     0.066 A 
BRANCH  24  26
HETATM   26  C   UNL     1      28.551  42.728  54.214  1.00  0.00     0.037 A 
HETATM   27  C   UNL     1      28.790  41.453  53.434  1.00  0.00     0.011 A 
HETATM   28  C   UNL     1      29.685  42.625  53.218  1.00  0.00     0.011 A 
ENDBRANCH  24  26
ENDBRANCH   2  20
TORSDOF 7
ENDMDL
