MODEL 1
REMARK VINA RESULT:      -9.6      0.000      0.000
REMARK  10 active torsions:
REMARK  status: ('A' for Active; 'I' for Inactive)
REMARK    1  A    between atoms: N_2  and  C_4 
REMARK    2  A    between atoms: C_4  and  C_5 
REMARK    3  A    between atoms: N_6  and  C_7 
REMARK    4  A    between atoms: C_11  and  N_12 
REMARK    5  A    between atoms: C_15  and  C_16 
REMARK       I    between atoms: C_16  and  N_17 
REMARK    6  A    between atoms: N_17  and  N_18 
REMARK    7  A    between atoms: C_19  and  C_20 
REMARK    8  A    between atoms: C_22  and  O_23 
REMARK    9  A    between atoms: O_23  and  C_24 
REMARK   10  A    between atoms: C_24  and  C_25 
ROOT
HETATM    1  C   UNL     1      22.582  48.124  48.944  1.00  0.00     0.293 C 
HETATM    2  N   UNL     1      23.481  48.120  49.992  1.00  0.00    -0.242 N 
HETATM    3  O   UNL     1      22.515  47.280  48.048  1.00  0.00    -0.264 OA
HETATM    4  H   UNL     1      23.478  48.865  50.685  1.00  0.00     0.192 HD
ENDROOT
BRANCH   1   5
HETATM    5  C   UNL     1      21.665  49.255  48.928  1.00  0.00     0.170 A 
HETATM    6  C   UNL     1      20.309  49.210  49.232  1.00  0.00     0.096 A 
HETATM    7  N   UNL     1      19.856  50.503  48.974  1.00  0.00    -0.215 N 
HETATM    8  N   UNL     1      20.931  51.278  48.658  1.00  0.00     0.012 NA
HETATM    9  N   UNL     1      22.018  50.527  48.601  1.00  0.00    -0.152 NA
BRANCH   6  10
HETATM   10  C   UNL     1      19.515  48.087  49.790  1.00  0.00     0.295 C 
BRANCH  10  11
HETATM   11  N   UNL     1      18.680  47.354  48.770  1.00  0.00    -0.073 N 
HETATM   12  C   UNL     1      19.039  47.668  47.351  1.00  0.00     0.269 C 
HETATM   13  H   UNL     1      18.857  46.341  48.938  1.00  0.00     0.279 HD
HETATM   14  C   UNL     1      17.209  47.524  49.021  1.00  0.00     0.269 C 
ENDBRANCH  10  11
ENDBRANCH   6  10
BRANCH   7  15
HETATM   15  C   UNL     1      18.534  51.010  48.960  1.00  0.00     0.225 A 
HETATM   16  N   UNL     1      17.847  51.130  50.098  1.00  0.00    -0.081 NA
HETATM   17  O   UNL     1      16.607  51.625  49.690  1.00  0.00    -0.103 OA
HETATM   18  N   UNL     1      16.557  51.776  48.312  1.00  0.00    -0.083 NA
HETATM   19  C   UNL     1      17.748  51.392  47.859  1.00  0.00     0.201 A 
BRANCH  19  20
HETATM   20  N   UNL     1      18.103  51.388  46.564  1.00  0.00    -0.379 N 
HETATM   21  H   UNL     1      17.401  51.236  45.845  1.00  0.00     0.158 HD
HETATM   22  H   UNL     1      19.066  51.320  46.242  1.00  0.00     0.158 HD
ENDBRANCH  19  20
ENDBRANCH   7  15
ENDBRANCH   1   5
BRANCH   2  23
HETATM   23  N   UNL     1      24.338  47.070  50.118  1.00  0.00    -0.184 NA
HETATM   24  C   UNL     1      25.011  46.998  51.222  1.00  0.00     0.150 C 
BRANCH  24  25
HETATM   25  C   UNL     1      25.947  45.881  51.471  1.00  0.00    -0.014 A 
HETATM   26  C   UNL     1      26.464  45.690  52.755  1.00  0.00     0.049 A 
HETATM   27  C   UNL     1      27.326  44.618  53.009  1.00  0.00     0.070 A 
HETATM   28  C   UNL     1      27.686  43.759  51.967  1.00  0.00     0.037 A 
HETATM   29  C   UNL     1      27.174  43.957  50.683  1.00  0.00     0.004 A 
HETATM   30  C   UNL     1      26.303  45.014  50.433  1.00  0.00     0.013 A 
BRANCH  27  31
HETATM   31  O   UNL     1      27.773  44.524  54.300  1.00  0.00    -0.346 OA
BRANCH  31  32
HETATM   32  C   UNL     1      28.718  45.518  54.708  1.00  0.00     0.219 C 
BRANCH  32  33
HETATM   33  C   UNL     1      29.654  44.937  55.735  1.00  0.00     0.026 A 
HETATM   34  C   UNL     1      30.478  43.831  55.480  1.00  0.00     0.045 A 
HETATM   35 CL   UNL     1      30.484  43.033  53.946  1.00  0.00    -0.084 Cl
HETATM   36  C   UNL     1      31.349  43.346  56.463  1.00  0.00     0.024 A 
HETATM   37  C   UNL     1      31.417  43.962  57.713  1.00  0.00     0.005 A 
HETATM   38  C   UNL     1      30.611  45.064  57.978  1.00  0.00     0.043 A 
HETATM   39  C   UNL     1      29.744  45.537  56.996  1.00  0.00     0.126 A 
HETATM   40  F   UNL     1      28.992  46.611  57.279  1.00  0.00    -0.205 F 
ENDBRANCH  32  33
ENDBRANCH  31  32
ENDBRANCH  27  31
ENDBRANCH  24  25
ENDBRANCH   2  23
TORSDOF 10
ENDMDL
MODEL 2
REMARK VINA RESULT:      -9.6      2.258      3.493
REMARK  10 active torsions:
REMARK  status: ('A' for Active; 'I' for Inactive)
REMARK    1  A    between atoms: N_2  and  C_4 
REMARK    2  A    between atoms: C_4  and  C_5 
REMARK    3  A    between atoms: N_6  and  C_7 
REMARK    4  A    between atoms: C_11  and  N_12 
REMARK    5  A    between atoms: C_15  and  C_16 
REMARK       I    between atoms: C_16  and  N_17 
REMARK    6  A    between atoms: N_17  and  N_18 
REMARK    7  A    between atoms: C_19  and  C_20 
REMARK    8  A    between atoms: C_22  and  O_23 
REMARK    9  A    between atoms: O_23  and  C_24 
REMARK   10  A    between atoms: C_24  and  C_25 
ROOT
HETATM    1  C   UNL     1      22.189  44.456  48.904  1.00  0.00     0.293 C 
HETATM    2  N   UNL     1      22.609  44.445  50.219  1.00  0.00    -0.242 N 
HETATM    3  O   UNL     1      22.725  43.856  47.970  1.00  0.00    -0.264 OA
HETATM    4  H   UNL     1      22.116  44.981  50.929  1.00  0.00     0.192 HD
ENDROOT
BRANCH   1   5
HETATM    5  C   UNL     1      21.015  45.277  48.642  1.00  0.00     0.170 A 
HETATM    6  C   UNL     1      21.013  46.648  48.415  1.00  0.00     0.096 A 
HETATM    7  N   UNL     1      19.661  46.979  48.323  1.00  0.00    -0.215 N 
HETATM    8  N   UNL     1      18.934  45.827  48.371  1.00  0.00     0.012 NA
HETATM    9  N   UNL     1      19.742  44.802  48.590  1.00  0.00    -0.152 NA
BRANCH   6  10
HETATM   10  C   UNL     1      22.165  47.564  48.221  1.00  0.00     0.295 C 
BRANCH  10  11
HETATM   11  N   UNL     1      22.656  48.217  49.489  1.00  0.00    -0.073 N 
HETATM   12  C   UNL     1      22.565  49.711  49.479  1.00  0.00     0.269 C 
HETATM   13  H   UNL     1      22.040  47.855  50.247  1.00  0.00     0.279 HD
HETATM   14  C   UNL     1      24.031  47.747  49.866  1.00  0.00     0.269 C 
ENDBRANCH  10  11
ENDBRANCH   6  10
BRANCH   7  15
HETATM   15  C   UNL     1      19.046  48.252  48.248  1.00  0.00     0.225 A 
HETATM   16  N   UNL     1      18.611  48.720  47.077  1.00  0.00    -0.081 NA
HETATM   17  O   UNL     1      18.103  49.984  47.389  1.00  0.00    -0.103 OA
HETATM   18  N   UNL     1      18.260  50.266  48.738  1.00  0.00    -0.083 NA
HETATM   19  C   UNL     1      18.847  49.197  49.270  1.00  0.00     0.201 A 
BRANCH  19  20
HETATM   20  N   UNL     1      19.174  49.076  50.567  1.00  0.00    -0.379 N 
HETATM   21  H   UNL     1      19.407  48.164  50.950  1.00  0.00     0.158 HD
HETATM   22  H   UNL     1      19.006  49.800  51.261  1.00  0.00     0.158 HD
ENDBRANCH  19  20
ENDBRANCH   7  15
ENDBRANCH   1   5
BRANCH   2  23
HETATM   23  N   UNL     1      23.665  43.659  50.565  1.00  0.00    -0.184 NA
HETATM   24  C   UNL     1      24.558  44.190  51.338  1.00  0.00     0.150 C 
BRANCH  24  25
HETATM   25  C   UNL     1      25.729  43.412  51.795  1.00  0.00    -0.014 A 
HETATM   26  C   UNL     1      26.398  43.796  52.960  1.00  0.00     0.049 A 
HETATM   27  C   UNL     1      27.488  43.050  53.419  1.00  0.00     0.070 A 
HETATM   28  C   UNL     1      27.917  41.936  52.692  1.00  0.00     0.037 A 
HETATM   29  C   UNL     1      27.252  41.558  51.524  1.00  0.00     0.004 A 
HETATM   30  C   UNL     1      26.156  42.291  51.075  1.00  0.00     0.013 A 
BRANCH  27  31
HETATM   31  O   UNL     1      28.069  43.514  54.568  1.00  0.00    -0.346 OA
BRANCH  31  32
HETATM   32  C   UNL     1      29.302  44.220  54.403  1.00  0.00     0.219 C 
BRANCH  32  33
HETATM   33  C   UNL     1      29.846  44.614  55.752  1.00  0.00     0.026 A 
HETATM   34  C   UNL     1      29.332  45.682  56.501  1.00  0.00     0.045 A 
HETATM   35 CL   UNL     1      28.018  46.649  55.929  1.00  0.00    -0.084 Cl
HETATM   36  C   UNL     1      29.859  45.990  57.762  1.00  0.00     0.024 A 
HETATM   37  C   UNL     1      30.901  45.231  58.297  1.00  0.00     0.005 A 
HETATM   38  C   UNL     1      31.415  44.164  57.569  1.00  0.00     0.043 A 
HETATM   39  C   UNL     1      30.888  43.868  56.313  1.00  0.00     0.126 A 
HETATM   40  F   UNL     1      31.398  42.823  55.644  1.00  0.00    -0.205 F 
ENDBRANCH  32  33
ENDBRANCH  31  32
ENDBRANCH  27  31
ENDBRANCH  24  25
ENDBRANCH   2  23
TORSDOF 10
ENDMDL
MODEL 3
REMARK VINA RESULT:      -9.5      2.396      3.971
REMARK  10 active torsions:
REMARK  status: ('A' for Active; 'I' for Inactive)
REMARK    1  A    between atoms: N_2  and  C_4 
REMARK    2  A    between atoms: C_4  and  C_5 
REMARK    3  A    between atoms: N_6  and  C_7 
REMARK    4  A    between atoms: C_11  and  N_12 
REMARK    5  A    between atoms: C_15  and  C_16 
REMARK       I    between atoms: C_16  and  N_17 
REMARK    6  A    between atoms: N_17  and  N_18 
REMARK    7  A    between atoms: C_19  and  C_20 
REMARK    8  A    between atoms: C_22  and  O_23 
REMARK    9  A    between atoms: O_23  and  C_24 
REMARK   10  A    between atoms: C_24  and  C_25 
ROOT
HETATM    1  C   UNL     1      24.126  45.359  49.352  1.00  0.00     0.293 C 
HETATM    2  N   UNL     1      23.781  44.504  50.379  1.00  0.00    -0.242 N 
HETATM    3  O   UNL     1      25.206  45.374  48.758  1.00  0.00    -0.264 OA
HETATM    4  H   UNL     1      22.870  44.567  50.827  1.00  0.00     0.192 HD
ENDROOT
BRANCH   1   5
HETATM    5  C   UNL     1      23.098  46.322  48.984  1.00  0.00     0.170 A 
HETATM    6  C   UNL     1      23.123  47.685  49.253  1.00  0.00     0.096 A 
HETATM    7  N   UNL     1      21.888  48.149  48.802  1.00  0.00    -0.215 N 
HETATM    8  N   UNL     1      21.241  47.116  48.192  1.00  0.00     0.012 NA
HETATM    9  N   UNL     1      21.952  46.008  48.322  1.00  0.00    -0.152 NA
BRANCH   6  10
HETATM   10  C   UNL     1      24.229  48.507  49.808  1.00  0.00     0.295 C 
BRANCH  10  11
HETATM   11  N   UNL     1      25.418  48.644  48.889  1.00  0.00    -0.073 N 
HETATM   12  C   UNL     1      26.734  48.381  49.553  1.00  0.00     0.269 C 
HETATM   13  H   UNL     1      25.279  47.931  48.142  1.00  0.00     0.279 HD
HETATM   14  C   UNL     1      25.416  49.956  48.160  1.00  0.00     0.269 C 
ENDBRANCH  10  11
ENDBRANCH   6  10
BRANCH   7  15
HETATM   15  C   UNL     1      21.293  49.424  48.951  1.00  0.00     0.225 A 
HETATM   16  N   UNL     1      21.703  50.449  48.202  1.00  0.00    -0.081 NA
HETATM   17  O   UNL     1      20.923  51.521  48.642  1.00  0.00    -0.103 OA
HETATM   18  N   UNL     1      20.070  51.131  49.665  1.00  0.00    -0.083 NA
HETATM   19  C   UNL     1      20.301  49.835  49.859  1.00  0.00     0.201 A 
BRANCH  19  20
HETATM   20  N   UNL     1      19.671  49.080  50.773  1.00  0.00    -0.379 N 
HETATM   21  H   UNL     1      20.120  48.247  51.143  1.00  0.00     0.158 HD
HETATM   22  H   UNL     1      18.677  49.156  50.982  1.00  0.00     0.158 HD
ENDBRANCH  19  20
ENDBRANCH   7  15
ENDBRANCH   1   5
BRANCH   2  23
HETATM   23  N   UNL     1      24.660  43.533  50.749  1.00  0.00    -0.184 NA
HETATM   24  C   UNL     1      25.695  43.914  51.430  1.00  0.00     0.150 C 
BRANCH  24  25
HETATM   25  C   UNL     1      26.695  42.935  51.905  1.00  0.00    -0.014 A 
HETATM   26  C   UNL     1      27.430  43.208  53.061  1.00  0.00     0.049 A 
HETATM   27  C   UNL     1      28.357  42.276  53.537  1.00  0.00     0.070 A 
HETATM   28  C   UNL     1      28.562  41.085  52.835  1.00  0.00     0.037 A 
HETATM   29  C   UNL     1      27.831  40.817  51.676  1.00  0.00     0.004 A 
HETATM   30  C   UNL     1      26.896  41.738  51.211  1.00  0.00     0.013 A 
BRANCH  27  31
HETATM   31  O   UNL     1      29.021  42.645  54.677  1.00  0.00    -0.346 OA
BRANCH  31  32
HETATM   32  C   UNL     1      29.992  43.684  54.525  1.00  0.00     0.219 C 
BRANCH  32  33
HETATM   33  C   UNL     1      30.166  44.411  55.833  1.00  0.00     0.026 A 
HETATM   34  C   UNL     1      29.406  45.533  56.190  1.00  0.00     0.045 A 
HETATM   35 CL   UNL     1      28.192  46.184  55.145  1.00  0.00    -0.084 Cl
HETATM   36  C   UNL     1      29.591  46.157  57.431  1.00  0.00     0.024 A 
HETATM   37  C   UNL     1      30.533  45.666  58.335  1.00  0.00     0.005 A 
HETATM   38  C   UNL     1      31.290  44.549  57.997  1.00  0.00     0.043 A 
HETATM   39  C   UNL     1      31.102  43.938  56.759  1.00  0.00     0.126 A 
HETATM   40  F   UNL     1      31.838  42.854  56.471  1.00  0.00    -0.205 F 
ENDBRANCH  32  33
ENDBRANCH  31  32
ENDBRANCH  27  31
ENDBRANCH  24  25
ENDBRANCH   2  23
TORSDOF 10
ENDMDL
MODEL 4
REMARK VINA RESULT:      -9.5      1.254      1.567
REMARK  10 active torsions:
REMARK  status: ('A' for Active; 'I' for Inactive)
REMARK    1  A    between atoms: N_2  and  C_4 
REMARK    2  A    between atoms: C_4  and  C_5 
REMARK    3  A    between atoms: N_6  and  C_7 
REMARK    4  A    between atoms: C_11  and  N_12 
REMARK    5  A    between atoms: C_15  and  C_16 
REMARK       I    between atoms: C_16  and  N_17 
REMARK    6  A    between atoms: N_17  and  N_18 
REMARK    7  A    between atoms: C_19  and  C_20 
REMARK    8  A    between atoms: C_22  and  O_23 
REMARK    9  A    between atoms: O_23  and  C_24 
REMARK   10  A    between atoms: C_24  and  C_25 
ROOT
HETATM    1  C   UNL     1      22.610  48.146  48.946  1.00  0.00     0.293 C 
HETATM    2  N   UNL     1      23.476  48.112  50.021  1.00  0.00    -0.242 N 
HETATM    3  O   UNL     1      22.581  47.338  48.016  1.00  0.00    -0.264 OA
HETATM    4  H   UNL     1      23.442  48.829  50.741  1.00  0.00     0.192 HD
ENDROOT
BRANCH   1   5
HETATM    5  C   UNL     1      21.679  49.266  48.945  1.00  0.00     0.170 A 
HETATM    6  C   UNL     1      20.313  49.192  49.192  1.00  0.00     0.096 A 
HETATM    7  N   UNL     1      19.853  50.491  48.976  1.00  0.00    -0.215 N 
HETATM    8  N   UNL     1      20.930  51.292  48.740  1.00  0.00     0.012 NA
HETATM    9  N   UNL     1      22.028  50.556  48.693  1.00  0.00    -0.152 NA
BRANCH   6  10
HETATM   10  C   UNL     1      19.512  48.035  49.665  1.00  0.00     0.295 C 
BRANCH  10  11
HETATM   11  N   UNL     1      18.667  47.390  48.595  1.00  0.00    -0.073 N 
HETATM   12  C   UNL     1      17.199  47.398  48.891  1.00  0.00     0.269 C 
HETATM   13  H   UNL     1      18.831  47.951  47.732  1.00  0.00     0.279 HD
HETATM   14  C   UNL     1      19.155  46.014  48.246  1.00  0.00     0.269 C 
ENDBRANCH  10  11
ENDBRANCH   6  10
BRANCH   7  15
HETATM   15  C   UNL     1      18.527  50.983  48.932  1.00  0.00     0.225 A 
HETATM   16  N   UNL     1      17.807  51.078  50.052  1.00  0.00    -0.081 NA
HETATM   17  O   UNL     1      16.572  51.565  49.616  1.00  0.00    -0.103 OA
HETATM   18  N   UNL     1      16.559  51.734  48.240  1.00  0.00    -0.083 NA
HETATM   19  C   UNL     1      17.767  51.371  47.815  1.00  0.00     0.201 A 
BRANCH  19  20
HETATM   20  N   UNL     1      18.157  51.389  46.530  1.00  0.00    -0.379 N 
HETATM   21  H   UNL     1      17.478  51.239  45.790  1.00  0.00     0.158 HD
HETATM   22  H   UNL     1      19.130  51.336  46.234  1.00  0.00     0.158 HD
ENDBRANCH  19  20
ENDBRANCH   7  15
ENDBRANCH   1   5
BRANCH   2  23
HETATM   23  N   UNL     1      24.342  47.068  50.133  1.00  0.00    -0.184 NA
HETATM   24  C   UNL     1      25.011  46.983  51.238  1.00  0.00     0.150 C 
BRANCH  24  25
HETATM   25  C   UNL     1      25.957  45.870  51.472  1.00  0.00    -0.014 A 
HETATM   26  C   UNL     1      26.452  45.648  52.759  1.00  0.00     0.049 A 
HETATM   27  C   UNL     1      27.323  44.580  52.998  1.00  0.00     0.070 A 
HETATM   28  C   UNL     1      27.713  43.756  51.938  1.00  0.00     0.037 A 
HETATM   29  C   UNL     1      27.222  43.985  50.652  1.00  0.00     0.004 A 
HETATM   30  C   UNL     1      26.342  45.038  50.416  1.00  0.00     0.013 A 
BRANCH  27  31
HETATM   31  O   UNL     1      27.748  44.454  54.294  1.00  0.00    -0.346 OA
BRANCH  31  32
HETATM   32  C   UNL     1      28.617  45.486  54.769  1.00  0.00     0.219 C 
BRANCH  32  33
HETATM   33  C   UNL     1      29.633  44.899  55.714  1.00  0.00     0.026 A 
HETATM   34  C   UNL     1      29.775  45.323  57.043  1.00  0.00     0.045 A 
HETATM   35 CL   UNL     1      28.787  46.574  57.712  1.00  0.00    -0.084 Cl
HETATM   36  C   UNL     1      30.720  44.725  57.888  1.00  0.00     0.024 A 
HETATM   37  C   UNL     1      31.530  43.690  57.420  1.00  0.00     0.005 A 
HETATM   38  C   UNL     1      31.394  43.253  56.107  1.00  0.00     0.043 A 
HETATM   39  C   UNL     1      30.455  43.857  55.273  1.00  0.00     0.126 A 
HETATM   40  F   UNL     1      30.340  43.401  54.016  1.00  0.00    -0.205 F 
ENDBRANCH  32  33
ENDBRANCH  31  32
ENDBRANCH  27  31
ENDBRANCH  24  25
ENDBRANCH   2  23
TORSDOF 10
ENDMDL
MODEL 5
REMARK VINA RESULT:      -9.4      2.252      3.370
REMARK  10 active torsions:
REMARK  status: ('A' for Active; 'I' for Inactive)
REMARK    1  A    between atoms: N_2  and  C_4 
REMARK    2  A    between atoms: C_4  and  C_5 
REMARK    3  A    between atoms: N_6  and  C_7 
REMARK    4  A    between atoms: C_11  and  N_12 
REMARK    5  A    between atoms: C_15  and  C_16 
REMARK       I    between atoms: C_16  and  N_17 
REMARK    6  A    between atoms: N_17  and  N_18 
REMARK    7  A    between atoms: C_19  and  C_20 
REMARK    8  A    between atoms: C_22  and  O_23 
REMARK    9  A    between atoms: O_23  and  C_24 
REMARK   10  A    between atoms: C_24  and  C_25 
ROOT
HETATM    1  C   UNL     1      21.080  44.686  47.906  1.00  0.00     0.293 C 
HETATM    2  N   UNL     1      21.454  44.637  49.234  1.00  0.00    -0.242 N 
HETATM    3  O   UNL     1      21.815  44.469  46.941  1.00  0.00    -0.264 OA
HETATM    4  H   UNL     1      20.786  44.845  49.973  1.00  0.00     0.192 HD
ENDROOT
BRANCH   1   5
HETATM    5  C   UNL     1      19.689  45.048  47.675  1.00  0.00     0.170 A 
HETATM    6  C   UNL     1      19.169  46.337  47.687  1.00  0.00     0.096 A 
HETATM    7  N   UNL     1      17.796  46.156  47.520  1.00  0.00    -0.215 N 
HETATM    8  N   UNL     1      17.563  44.832  47.298  1.00  0.00     0.012 NA
HETATM    9  N   UNL     1      18.695  44.157  47.417  1.00  0.00    -0.152 NA
BRANCH   6  10
HETATM   10  C   UNL     1      19.888  47.634  47.766  1.00  0.00     0.295 C 
BRANCH  10  11
HETATM   11  N   UNL     1      20.368  47.990  49.151  1.00  0.00    -0.073 N 
HETATM   12  C   UNL     1      19.391  48.802  49.943  1.00  0.00     0.269 C 
HETATM   13  H   UNL     1      20.513  47.082  49.640  1.00  0.00     0.279 HD
HETATM   14  C   UNL     1      21.728  48.626  49.128  1.00  0.00     0.269 C 
ENDBRANCH  10  11
ENDBRANCH   6  10
BRANCH   7  15
HETATM   15  C   UNL     1      16.744  47.099  47.604  1.00  0.00     0.225 A 
HETATM   16  N   UNL     1      16.244  47.445  48.792  1.00  0.00    -0.081 NA
HETATM   17  O   UNL     1      15.229  48.352  48.478  1.00  0.00    -0.103 OA
HETATM   18  N   UNL     1      15.118  48.522  47.106  1.00  0.00    -0.083 NA
HETATM   19  C   UNL     1      16.053  47.745  46.564  1.00  0.00     0.201 A 
BRANCH  19  20
HETATM   20  N   UNL     1      16.271  47.627  45.244  1.00  0.00    -0.379 N 
HETATM   21  H   UNL     1      15.840  48.281  44.597  1.00  0.00     0.158 HD
HETATM   22  H   UNL     1      16.673  46.799  44.810  1.00  0.00     0.158 HD
ENDBRANCH  19  20
ENDBRANCH   7  15
ENDBRANCH   1   5
BRANCH   2  23
HETATM   23  N   UNL     1      22.722  44.251  49.545  1.00  0.00    -0.184 NA
HETATM   24  C   UNL     1      23.521  45.172  49.981  1.00  0.00     0.150 C 
BRANCH  24  25
HETATM   25  C   UNL     1      24.910  44.852  50.374  1.00  0.00    -0.014 A 
HETATM   26  C   UNL     1      25.405  45.319  51.594  1.00  0.00     0.049 A 
HETATM   27  C   UNL     1      26.706  44.997  51.990  1.00  0.00     0.070 A 
HETATM   28  C   UNL     1      27.514  44.228  51.147  1.00  0.00     0.037 A 
HETATM   29  C   UNL     1      27.020  43.768  49.926  1.00  0.00     0.004 A 
HETATM   30  C   UNL     1      25.718  44.075  49.538  1.00  0.00     0.013 A 
BRANCH  27  31
HETATM   31  O   UNL     1      27.089  45.506  53.202  1.00  0.00    -0.346 OA
BRANCH  31  32
HETATM   32  C   UNL     1      27.061  44.591  54.301  1.00  0.00     0.219 C 
BRANCH  32  33
HETATM   33  C   UNL     1      28.444  44.457  54.885  1.00  0.00     0.026 A 
HETATM   34  C   UNL     1      29.272  43.352  54.641  1.00  0.00     0.045 A 
HETATM   35 CL   UNL     1      28.767  42.036  53.641  1.00  0.00    -0.084 Cl
HETATM   36  C   UNL     1      30.560  43.289  55.189  1.00  0.00     0.024 A 
HETATM   37  C   UNL     1      31.042  44.331  55.981  1.00  0.00     0.005 A 
HETATM   38  C   UNL     1      30.235  45.437  56.225  1.00  0.00     0.043 A 
HETATM   39  C   UNL     1      28.953  45.489  55.680  1.00  0.00     0.126 A 
HETATM   40  F   UNL     1      28.206  46.576  55.923  1.00  0.00    -0.205 F 
ENDBRANCH  32  33
ENDBRANCH  31  32
ENDBRANCH  27  31
ENDBRANCH  24  25
ENDBRANCH   2  23
TORSDOF 10
ENDMDL
MODEL 6
REMARK VINA RESULT:      -9.1      2.372      3.842
REMARK  10 active torsions:
REMARK  status: ('A' for Active; 'I' for Inactive)
REMARK    1  A    between atoms: N_2  and  C_4 
REMARK    2  A    between atoms: C_4  and  C_5 
REMARK    3  A    between atoms: N_6  and  C_7 
REMARK    4  A    between atoms: C_11  and  N_12 
REMARK    5  A    between atoms: C_15  and  C_16 
REMARK       I    between atoms: C_16  and  N_17 
REMARK    6  A    between atoms: N_17  and  N_18 
REMARK    7  A    between atoms: C_19  and  C_20 
REMARK    8  A    between atoms: C_22  and  O_23 
REMARK    9  A    between atoms: O_23  and  C_24 
REMARK   10  A    between atoms: C_24  and  C_25 
ROOT
HETATM    1  C   UNL     1      22.619  44.735  48.501  1.00  0.00     0.293 C 
HETATM    2  N   UNL     1      23.149  44.637  49.772  1.00  0.00    -0.242 N 
HETATM    3  O   UNL     1      23.173  44.384  47.458  1.00  0.00    -0.264 OA
HETATM    4  H   UNL     1      22.629  44.965  50.582  1.00  0.00     0.192 HD
ENDROOT
BRANCH   1   5
HETATM    5  C   UNL     1      21.291  45.331  48.436  1.00  0.00     0.170 A 
HETATM    6  C   UNL     1      21.009  46.690  48.363  1.00  0.00     0.096 A 
HETATM    7  N   UNL     1      19.618  46.757  48.427  1.00  0.00    -0.215 N 
HETATM    8  N   UNL     1      19.127  45.485  48.411  1.00  0.00     0.012 NA
HETATM    9  N   UNL     1      20.130  44.623  48.445  1.00  0.00    -0.152 NA
BRANCH   6  10
HETATM   10  C   UNL     1      21.944  47.828  48.169  1.00  0.00     0.295 C 
BRANCH  10  11
HETATM   11  N   UNL     1      22.420  48.461  49.452  1.00  0.00    -0.073 N 
HETATM   12  C   UNL     1      22.094  49.918  49.569  1.00  0.00     0.269 C 
HETATM   13  H   UNL     1      21.927  47.952  50.216  1.00  0.00     0.279 HD
HETATM   14  C   UNL     1      23.876  48.196  49.703  1.00  0.00     0.269 C 
ENDBRANCH  10  11
ENDBRANCH   6  10
BRANCH   7  15
HETATM   15  C   UNL     1      18.773  47.886  48.547  1.00  0.00     0.225 A 
HETATM   16  N   UNL     1      18.248  48.452  47.458  1.00  0.00    -0.081 NA
HETATM   17  O   UNL     1      17.513  49.528  47.961  1.00  0.00    -0.103 OA
HETATM   18  N   UNL     1      17.623  49.608  49.341  1.00  0.00    -0.083 NA
HETATM   19  C   UNL     1      18.406  48.594  49.704  1.00  0.00     0.201 A 
BRANCH  19  20
HETATM   20  N   UNL     1      18.759  48.323  50.971  1.00  0.00    -0.379 N 
HETATM   21  H   UNL     1      19.356  48.968  51.482  1.00  0.00     0.158 HD
HETATM   22  H   UNL     1      18.646  47.410  51.407  1.00  0.00     0.158 HD
ENDBRANCH  19  20
ENDBRANCH   7  15
ENDBRANCH   1   5
BRANCH   2  23
HETATM   23  N   UNL     1      24.362  44.040  49.933  1.00  0.00    -0.184 NA
HETATM   24  C   UNL     1      24.365  42.868  50.484  1.00  0.00     0.150 C 
BRANCH  24  25
HETATM   25  C   UNL     1      25.627  42.122  50.678  1.00  0.00    -0.014 A 
HETATM   26  C   UNL     1      26.590  42.617  51.561  1.00  0.00     0.049 A 
HETATM   27  C   UNL     1      27.773  41.904  51.776  1.00  0.00     0.070 A 
HETATM   28  C   UNL     1      27.997  40.711  51.083  1.00  0.00     0.037 A 
HETATM   29  C   UNL     1      27.036  40.222  50.196  1.00  0.00     0.004 A 
HETATM   30  C   UNL     1      25.850  40.923  49.994  1.00  0.00     0.013 A 
BRANCH  27  31
HETATM   31  O   UNL     1      28.647  42.479  52.660  1.00  0.00    -0.346 OA
BRANCH  31  32
HETATM   32  C   UNL     1      28.222  42.513  54.025  1.00  0.00     0.219 C 
BRANCH  32  33
HETATM   33  C   UNL     1      28.379  43.908  54.571  1.00  0.00     0.026 A 
HETATM   34  C   UNL     1      29.542  44.349  55.219  1.00  0.00     0.045 A 
HETATM   35 CL   UNL     1      30.907  43.313  55.449  1.00  0.00    -0.084 Cl
HETATM   36  C   UNL     1      29.645  45.665  55.686  1.00  0.00     0.024 A 
HETATM   37  C   UNL     1      28.592  46.563  55.507  1.00  0.00     0.005 A 
HETATM   38  C   UNL     1      27.435  46.142  54.860  1.00  0.00     0.043 A 
HETATM   39  C   UNL     1      27.340  44.829  54.403  1.00  0.00     0.126 A 
HETATM   40  F   UNL     1      26.216  44.460  53.769  1.00  0.00    -0.205 F 
ENDBRANCH  32  33
ENDBRANCH  31  32
ENDBRANCH  27  31
ENDBRANCH  24  25
ENDBRANCH   2  23
TORSDOF 10
ENDMDL
MODEL 7
REMARK VINA RESULT:      -9.0      2.094      2.928
REMARK  10 active torsions:
REMARK  status: ('A' for Active; 'I' for Inactive)
REMARK    1  A    between atoms: N_2  and  C_4 
REMARK    2  A    between atoms: C_4  and  C_5 
REMARK    3  A    between atoms: N_6  and  C_7 
REMARK    4  A    between atoms: C_11  and  N_12 
REMARK    5  A    between atoms: C_15  and  C_16 
REMARK       I    between atoms: C_16  and  N_17 
REMARK    6  A    between atoms: N_17  and  N_18 
REMARK    7  A    between atoms: C_19  and  C_20 
REMARK    8  A    between atoms: C_22  and  O_23 
REMARK    9  A    between atoms: O_23  and  C_24 
REMARK   10  A    between atoms: C_24  and  C_25 
ROOT
HETATM    1  C   UNL     1      22.094  47.408  48.140  1.00  0.00     0.293 C 
HETATM    2  N   UNL     1      22.248  46.271  48.908  1.00  0.00    -0.242 N 
HETATM    3  O   UNL     1      22.975  48.228  47.880  1.00  0.00    -0.264 OA
HETATM    4  H   UNL     1      21.462  45.650  49.086  1.00  0.00     0.192 HD
ENDROOT
BRANCH   1   5
HETATM    5  C   UNL     1      20.747  47.623  47.628  1.00  0.00     0.170 A 
HETATM    6  C   UNL     1      19.725  48.300  48.282  1.00  0.00     0.096 A 
HETATM    7  N   UNL     1      18.620  48.148  47.445  1.00  0.00    -0.215 N 
HETATM    8  N   UNL     1      19.030  47.520  46.307  1.00  0.00     0.012 NA
HETATM    9  N   UNL     1      20.302  47.177  46.423  1.00  0.00    -0.152 NA
BRANCH   6  10
HETATM   10  C   UNL     1      19.783  49.090  49.538  1.00  0.00     0.295 C 
BRANCH  10  11
HETATM   11  N   UNL     1      20.237  50.516  49.351  1.00  0.00    -0.073 N 
HETATM   12  C   UNL     1      21.599  50.799  49.904  1.00  0.00     0.269 C 
HETATM   13  H   UNL     1      20.263  50.669  48.320  1.00  0.00     0.279 HD
HETATM   14  C   UNL     1      19.219  51.500  49.851  1.00  0.00     0.269 C 
ENDBRANCH  10  11
ENDBRANCH   6  10
BRANCH   7  15
HETATM   15  C   UNL     1      17.266  48.496  47.664  1.00  0.00     0.225 A 
HETATM   16  N   UNL     1      16.409  47.592  48.144  1.00  0.00    -0.081 NA
HETATM   17  O   UNL     1      15.193  48.278  48.197  1.00  0.00    -0.103 OA
HETATM   18  N   UNL     1      15.330  49.576  47.728  1.00  0.00    -0.083 NA
HETATM   19  C   UNL     1      16.612  49.711  47.395  1.00  0.00     0.201 A 
BRANCH  19  20
HETATM   20  N   UNL     1      17.152  50.833  46.893  1.00  0.00    -0.379 N 
HETATM   21  H   UNL     1      16.726  51.734  47.089  1.00  0.00     0.158 HD
HETATM   22  H   UNL     1      17.847  50.842  46.150  1.00  0.00     0.158 HD
ENDBRANCH  19  20
ENDBRANCH   7  15
ENDBRANCH   1   5
BRANCH   2  23
HETATM   23  N   UNL     1      23.487  45.960  49.379  1.00  0.00    -0.184 NA
HETATM   24  C   UNL     1      23.710  44.714  49.651  1.00  0.00     0.150 C 
BRANCH  24  25
HETATM   25  C   UNL     1      25.031  44.267  50.141  1.00  0.00    -0.014 A 
HETATM   26  C   UNL     1      25.579  44.861  51.281  1.00  0.00     0.049 A 
HETATM   27  C   UNL     1      26.814  44.426  51.772  1.00  0.00     0.070 A 
HETATM   28  C   UNL     1      27.506  43.414  51.100  1.00  0.00     0.037 A 
HETATM   29  C   UNL     1      26.960  42.827  49.958  1.00  0.00     0.004 A 
HETATM   30  C   UNL     1      25.723  43.249  49.478  1.00  0.00     0.013 A 
BRANCH  27  31
HETATM   31  O   UNL     1      27.257  45.076  52.893  1.00  0.00    -0.346 OA
BRANCH  31  32
HETATM   32  C   UNL     1      27.204  44.327  54.110  1.00  0.00     0.219 C 
BRANCH  32  33
HETATM   33  C   UNL     1      28.549  44.365  54.788  1.00  0.00     0.026 A 
HETATM   34  C   UNL     1      28.985  45.451  55.560  1.00  0.00     0.045 A 
HETATM   35 CL   UNL     1      28.003  46.855  55.798  1.00  0.00    -0.084 Cl
HETATM   36  C   UNL     1      30.236  45.425  56.190  1.00  0.00     0.024 A 
HETATM   37  C   UNL     1      31.067  44.311  56.065  1.00  0.00     0.005 A 
HETATM   38  C   UNL     1      30.645  43.223  55.308  1.00  0.00     0.043 A 
HETATM   39  C   UNL     1      29.401  43.260  54.681  1.00  0.00     0.126 A 
HETATM   40  F   UNL     1      29.018  42.188  53.971  1.00  0.00    -0.205 F 
ENDBRANCH  32  33
ENDBRANCH  31  32
ENDBRANCH  27  31
ENDBRANCH  24  25
ENDBRANCH   2  23
TORSDOF 10
ENDMDL
MODEL 8
REMARK VINA RESULT:      -8.8      3.341      5.792
REMARK  10 active torsions:
REMARK  status: ('A' for Active; 'I' for Inactive)
REMARK    1  A    between atoms: N_2  and  C_4 
REMARK    2  A    between atoms: C_4  and  C_5 
REMARK    3  A    between atoms: N_6  and  C_7 
REMARK    4  A    between atoms: C_11  and  N_12 
REMARK    5  A    between atoms: C_15  and  C_16 
REMARK       I    between atoms: C_16  and  N_17 
REMARK    6  A    between atoms: N_17  and  N_18 
REMARK    7  A    between atoms: C_19  and  C_20 
REMARK    8  A    between atoms: C_22  and  O_23 
REMARK    9  A    between atoms: O_23  and  C_24 
REMARK   10  A    between atoms: C_24  and  C_25 
ROOT
HETATM    1  C   UNL     1      24.619  45.479  49.717  1.00  0.00     0.293 C 
HETATM    2  N   UNL     1      24.867  45.503  51.075  1.00  0.00    -0.242 N 
HETATM    3  O   UNL     1      25.254  44.839  48.878  1.00  0.00    -0.264 OA
HETATM    4  H   UNL     1      24.300  46.072  51.699  1.00  0.00     0.192 HD
ENDROOT
BRANCH   1   5
HETATM    5  C   UNL     1      23.508  46.315  49.283  1.00  0.00     0.170 A 
HETATM    6  C   UNL     1      23.452  47.702  49.361  1.00  0.00     0.096 A 
HETATM    7  N   UNL     1      22.166  48.020  48.925  1.00  0.00    -0.215 N 
HETATM    8  N   UNL     1      21.564  46.874  48.500  1.00  0.00     0.012 NA
HETATM    9  N   UNL     1      22.356  45.841  48.738  1.00  0.00    -0.152 NA
BRANCH   6  10
HETATM   10  C   UNL     1      24.524  48.660  49.733  1.00  0.00     0.295 C 
BRANCH  10  11
HETATM   11  N   UNL     1      25.674  48.710  48.758  1.00  0.00    -0.073 N 
HETATM   12  C   UNL     1      27.005  48.408  49.371  1.00  0.00     0.269 C 
HETATM   13  H   UNL     1      25.468  47.979  48.044  1.00  0.00     0.279 HD
HETATM   14  C   UNL     1      25.698  49.995  47.983  1.00  0.00     0.269 C 
ENDBRANCH  10  11
ENDBRANCH   6  10
BRANCH   7  15
HETATM   15  C   UNL     1      21.491  49.264  48.933  1.00  0.00     0.225 A 
HETATM   16  N   UNL     1      21.975  50.296  48.238  1.00  0.00    -0.081 NA
HETATM   17  O   UNL     1      21.077  51.331  48.507  1.00  0.00    -0.103 OA
HETATM   18  N   UNL     1      20.080  50.916  49.377  1.00  0.00    -0.083 NA
HETATM   19  C   UNL     1      20.337  49.637  49.644  1.00  0.00     0.201 A 
BRANCH  19  20
HETATM   20  N   UNL     1      19.596  48.867  50.456  1.00  0.00    -0.379 N 
HETATM   21  H   UNL     1      19.236  47.977  50.125  1.00  0.00     0.158 HD
HETATM   22  H   UNL     1      19.183  49.197  51.326  1.00  0.00     0.158 HD
ENDBRANCH  19  20
ENDBRANCH   7  15
ENDBRANCH   1   5
BRANCH   2  23
HETATM   23  N   UNL     1      25.850  44.706  51.577  1.00  0.00    -0.184 NA
HETATM   24  C   UNL     1      26.596  45.217  52.504  1.00  0.00     0.150 C 
BRANCH  24  25
HETATM   25  C   UNL     1      27.674  44.425  53.135  1.00  0.00    -0.014 A 
HETATM   26  C   UNL     1      28.034  43.192  52.585  1.00  0.00     0.049 A 
HETATM   27  C   UNL     1      29.072  42.449  53.155  1.00  0.00     0.070 A 
HETATM   28  C   UNL     1      29.726  42.934  54.290  1.00  0.00     0.037 A 
HETATM   29  C   UNL     1      29.360  44.163  54.842  1.00  0.00     0.004 A 
HETATM   30  C   UNL     1      28.337  44.912  54.265  1.00  0.00     0.013 A 
BRANCH  27  31
HETATM   31  O   UNL     1      29.342  41.257  52.537  1.00  0.00    -0.346 OA
BRANCH  31  32
HETATM   32  C   UNL     1      28.204  40.511  52.095  1.00  0.00     0.219 C 
BRANCH  32  33
HETATM   33  C   UNL     1      28.389  40.108  50.656  1.00  0.00     0.026 A 
HETATM   34  C   UNL     1      29.120  38.977  50.267  1.00  0.00     0.045 A 
HETATM   35 CL   UNL     1      29.881  37.940  51.422  1.00  0.00    -0.084 Cl
HETATM   36  C   UNL     1      29.241  38.633  48.914  1.00  0.00     0.024 A 
HETATM   37  C   UNL     1      28.627  39.409  47.930  1.00  0.00     0.005 A 
HETATM   38  C   UNL     1      27.892  40.530  48.302  1.00  0.00     0.043 A 
HETATM   39  C   UNL     1      27.782  40.867  49.649  1.00  0.00     0.126 A 
HETATM   40  F   UNL     1      27.054  41.946  49.974  1.00  0.00    -0.205 F 
ENDBRANCH  32  33
ENDBRANCH  31  32
ENDBRANCH  27  31
ENDBRANCH  24  25
ENDBRANCH   2  23
TORSDOF 10
ENDMDL
MODEL 9
REMARK VINA RESULT:      -8.4      2.665      3.794
REMARK  10 active torsions:
REMARK  status: ('A' for Active; 'I' for Inactive)
REMARK    1  A    between atoms: N_2  and  C_4 
REMARK    2  A    between atoms: C_4  and  C_5 
REMARK    3  A    between atoms: N_6  and  C_7 
REMARK    4  A    between atoms: C_11  and  N_12 
REMARK    5  A    between atoms: C_15  and  C_16 
REMARK       I    between atoms: C_16  and  N_17 
REMARK    6  A    between atoms: N_17  and  N_18 
REMARK    7  A    between atoms: C_19  and  C_20 
REMARK    8  A    between atoms: C_22  and  O_23 
REMARK    9  A    between atoms: O_23  and  C_24 
REMARK   10  A    between atoms: C_24  and  C_25 
ROOT
HETATM    1  C   UNL     1      24.136  44.952  49.973  1.00  0.00     0.293 C 
HETATM    2  N   UNL     1      25.210  44.523  49.219  1.00  0.00    -0.242 N 
HETATM    3  O   UNL     1      23.769  44.469  51.045  1.00  0.00    -0.264 OA
HETATM    4  H   UNL     1      25.438  44.970  48.334  1.00  0.00     0.192 HD
ENDROOT
BRANCH   1   5
HETATM    5  C   UNL     1      23.392  46.065  49.401  1.00  0.00     0.170 A 
HETATM    6  C   UNL     1      22.176  45.976  48.733  1.00  0.00     0.096 A 
HETATM    7  N   UNL     1      21.929  47.276  48.293  1.00  0.00    -0.215 N 
HETATM    8  N   UNL     1      22.899  48.089  48.796  1.00  0.00     0.012 NA
HETATM    9  N   UNL     1      23.797  47.363  49.441  1.00  0.00    -0.152 NA
BRANCH   6  10
HETATM   10  C   UNL     1      21.278  44.803  48.583  1.00  0.00     0.295 C 
BRANCH  10  11
HETATM   11  N   UNL     1      21.431  44.072  47.272  1.00  0.00    -0.073 N 
HETATM   12  C   UNL     1      20.132  43.721  46.615  1.00  0.00     0.269 C 
HETATM   13  H   UNL     1      21.950  44.723  46.646  1.00  0.00     0.279 HD
HETATM   14  C   UNL     1      22.330  42.876  47.398  1.00  0.00     0.269 C 
ENDBRANCH  10  11
ENDBRANCH   6  10
BRANCH   7  15
HETATM   15  C   UNL     1      20.916  47.759  47.430  1.00  0.00     0.225 A 
HETATM   16  N   UNL     1      20.611  47.096  46.313  1.00  0.00    -0.081 NA
HETATM   17  O   UNL     1      19.611  47.874  45.724  1.00  0.00    -0.103 OA
HETATM   18  N   UNL     1      19.346  49.005  46.482  1.00  0.00    -0.083 NA
HETATM   19  C   UNL     1      20.155  48.936  47.537  1.00  0.00     0.201 A 
BRANCH  19  20
HETATM   20  N   UNL     1      20.204  49.853  48.517  1.00  0.00    -0.379 N 
HETATM   21  H   UNL     1      19.344  50.218  48.916  1.00  0.00     0.158 HD
HETATM   22  H   UNL     1      21.043  50.377  48.759  1.00  0.00     0.158 HD
ENDBRANCH  19  20
ENDBRANCH   7  15
ENDBRANCH   1   5
BRANCH   2  23
HETATM   23  N   UNL     1      25.997  43.525  49.705  1.00  0.00    -0.184 NA
HETATM   24  C   UNL     1      26.625  43.766  50.812  1.00  0.00     0.150 C 
BRANCH  24  25
HETATM   25  C   UNL     1      27.483  42.738  51.440  1.00  0.00    -0.014 A 
HETATM   26  C   UNL     1      28.055  42.990  52.690  1.00  0.00     0.049 A 
HETATM   27  C   UNL     1      28.843  42.014  53.307  1.00  0.00     0.070 A 
HETATM   28  C   UNL     1      29.075  40.799  52.655  1.00  0.00     0.037 A 
HETATM   29  C   UNL     1      28.508  40.553  51.404  1.00  0.00     0.004 A 
HETATM   30  C   UNL     1      27.709  41.519  50.795  1.00  0.00     0.013 A 
BRANCH  27  31
HETATM   31  O   UNL     1      29.354  42.364  54.528  1.00  0.00    -0.346 OA
BRANCH  31  32
HETATM   32  C   UNL     1      30.324  43.415  54.521  1.00  0.00     0.219 C 
BRANCH  32  33
HETATM   33  C   UNL     1      30.124  44.298  55.725  1.00  0.00     0.026 A 
HETATM   34  C   UNL     1      30.873  44.167  56.902  1.00  0.00     0.045 A 
HETATM   35 CL   UNL     1      32.102  42.962  57.073  1.00  0.00    -0.084 Cl
HETATM   36  C   UNL     1      30.664  45.032  57.984  1.00  0.00     0.024 A 
HETATM   37  C   UNL     1      29.709  46.046  57.903  1.00  0.00     0.005 A 
HETATM   38  C   UNL     1      28.963  46.193  56.738  1.00  0.00     0.043 A 
HETATM   39  C   UNL     1      29.175  45.325  55.669  1.00  0.00     0.126 A 
HETATM   40  F   UNL     1      28.450  45.505  54.555  1.00  0.00    -0.205 F 
ENDBRANCH  32  33
ENDBRANCH  31  32
ENDBRANCH  27  31
ENDBRANCH  24  25
ENDBRANCH   2  23
TORSDOF 10
ENDMDL
MODEL 10
REMARK VINA RESULT:      -8.4     13.587     14.584
REMARK  10 active torsions:
REMARK  status: ('A' for Active; 'I' for Inactive)
REMARK    1  A    between atoms: N_2  and  C_4 
REMARK    2  A    between atoms: C_4  and  C_5 
REMARK    3  A    between atoms: N_6  and  C_7 
REMARK    4  A    between atoms: C_11  and  N_12 
REMARK    5  A    between atoms: C_15  and  C_16 
REMARK       I    between atoms: C_16  and  N_17 
REMARK    6  A    between atoms: N_17  and  N_18 
REMARK    7  A    between atoms: C_19  and  C_20 
REMARK    8  A    between atoms: C_22  and  O_23 
REMARK    9  A    between atoms: O_23  and  C_24 
REMARK   10  A    between atoms: C_24  and  C_25 
ROOT
HETATM    1  C   UNL     1      31.362  52.381  41.574  1.00  0.00     0.293 C 
HETATM    2  N   UNL     1      31.921  51.671  42.618  1.00  0.00    -0.242 N 
HETATM    3  O   UNL     1      31.890  53.321  40.976  1.00  0.00    -0.264 OA
HETATM    4  H   UNL     1      31.410  50.915  43.067  1.00  0.00     0.192 HD
ENDROOT
BRANCH   1   5
HETATM    5  C   UNL     1      30.023  51.957  41.192  1.00  0.00     0.170 A 
HETATM    6  C   UNL     1      29.711  51.028  40.206  1.00  0.00     0.096 A 
HETATM    7  N   UNL     1      28.318  51.042  40.147  1.00  0.00    -0.215 N 
HETATM    8  N   UNL     1      27.856  51.852  41.141  1.00  0.00     0.012 NA
HETATM    9  N   UNL     1      28.878  52.426  41.756  1.00  0.00    -0.152 NA
BRANCH   6  10
HETATM   10  C   UNL     1      30.622  50.141  39.438  1.00  0.00     0.295 C 
BRANCH  10  11
HETATM   11  N   UNL     1      30.658  48.716  39.931  1.00  0.00    -0.073 N 
HETATM   12  C   UNL     1      31.917  48.356  40.657  1.00  0.00     0.269 C 
HETATM   13  H   UNL     1      29.860  48.629  40.595  1.00  0.00     0.279 HD
HETATM   14  C   UNL     1      30.348  47.735  38.838  1.00  0.00     0.269 C 
ENDBRANCH  10  11
ENDBRANCH   6  10
BRANCH   7  15
HETATM   15  C   UNL     1      27.447  50.413  39.226  1.00  0.00     0.225 A 
HETATM   16  N   UNL     1      27.470  50.757  37.936  1.00  0.00    -0.081 NA
HETATM   17  O   UNL     1      26.476  49.962  37.360  1.00  0.00    -0.103 OA
HETATM   18  N   UNL     1      25.855  49.169  38.313  1.00  0.00    -0.083 NA
HETATM   19  C   UNL     1      26.452  49.450  39.469  1.00  0.00     0.201 A 
BRANCH  19  20
HETATM   20  N   UNL     1      26.134  48.886  40.645  1.00  0.00    -0.379 N 
HETATM   21  H   UNL     1      26.035  49.463  41.476  1.00  0.00     0.158 HD
HETATM   22  H   UNL     1      26.186  47.885  40.824  1.00  0.00     0.158 HD
ENDBRANCH  19  20
ENDBRANCH   7  15
ENDBRANCH   1   5
BRANCH   2  23
HETATM   23  N   UNL     1      33.194  51.962  43.003  1.00  0.00    -0.184 NA
HETATM   24  C   UNL     1      34.135  51.223  42.507  1.00  0.00     0.150 C 
BRANCH  24  25
HETATM   25  C   UNL     1      35.554  51.474  42.838  1.00  0.00    -0.014 A 
HETATM   26  C   UNL     1      35.871  52.265  43.946  1.00  0.00     0.049 A 
HETATM   27  C   UNL     1      37.210  52.484  44.287  1.00  0.00     0.070 A 
HETATM   28  C   UNL     1      38.223  51.930  43.500  1.00  0.00     0.037 A 
HETATM   29  C   UNL     1      37.903  51.147  42.390  1.00  0.00     0.004 A 
HETATM   30  C   UNL     1      36.570  50.915  42.059  1.00  0.00     0.013 A 
BRANCH  27  31
HETATM   31  O   UNL     1      37.408  53.272  45.389  1.00  0.00    -0.346 OA
BRANCH  31  32
HETATM   32  C   UNL     1      38.306  54.372  45.217  1.00  0.00     0.219 C 
BRANCH  32  33
HETATM   33  C   UNL     1      39.491  54.207  46.132  1.00  0.00     0.026 A 
HETATM   34  C   UNL     1      40.804  54.059  45.662  1.00  0.00     0.045 A 
HETATM   35 CL   UNL     1      41.174  54.050  43.973  1.00  0.00    -0.084 Cl
HETATM   36  C   UNL     1      41.874  53.933  46.557  1.00  0.00     0.024 A 
HETATM   37  C   UNL     1      41.651  53.962  47.934  1.00  0.00     0.005 A 
HETATM   38  C   UNL     1      40.354  54.116  48.415  1.00  0.00     0.043 A 
HETATM   39  C   UNL     1      39.296  54.235  47.517  1.00  0.00     0.126 A 
HETATM   40  F   UNL     1      38.060  54.398  48.014  1.00  0.00    -0.205 F 
ENDBRANCH  32  33
ENDBRANCH  31  32
ENDBRANCH  27  31
ENDBRANCH  24  25
ENDBRANCH   2  23
TORSDOF 10
ENDMDL
