MODEL 1
REMARK VINA RESULT:      -9.6      0.000      0.000
REMARK  7 active torsions:
REMARK  status: ('A' for Active; 'I' for Inactive)
REMARK    1  A    between atoms: C_2  and  C_3 
REMARK    2  A    between atoms: N_21  and  N_23 
REMARK       I    between atoms: N_23  and  C_24 
REMARK    3  A    between atoms: C_24  and  C_25 
REMARK    4  A    between atoms: C_25  and  N_26 
REMARK    5  A    between atoms: C_25  and  C_34 
REMARK       I    between atoms: N_26  and  C_27 
REMARK    6  A    between atoms: C_27  and  O_28 
REMARK    7  A    between atoms: O_28  and  C_29 
ROOT
HETATM    1  C   UNL     1      25.967  47.869  49.839  1.00  0.00    -0.041 C 
HETATM    2  C   UNL     1      25.673  46.584  50.492  1.00  0.00     0.005 C 
HETATM    3  C   UNL     1      24.455  45.963  50.204  1.00  0.00     0.091 C 
HETATM    4  C   UNL     1      24.298  44.587  50.364  1.00  0.00     0.075 C 
HETATM    5  C   UNL     1      25.354  43.859  50.908  1.00  0.00     0.079 C 
HETATM    6  C   UNL     1      26.432  44.516  51.507  1.00  0.00    -0.024 C 
HETATM    7  C   UNL     1      27.453  43.756  52.311  1.00  0.00     0.044 C 
HETATM    8  C   UNL     1      27.177  42.255  52.285  1.00  0.00     0.043 C 
HETATM    9  C   UNL     1      26.614  41.844  50.913  1.00  0.00     0.068 C 
HETATM   10  C   UNL     1      27.602  42.191  49.760  1.00  0.00     0.038 C 
HETATM   11  C   UNL     1      27.133  41.693  48.399  1.00  0.00     0.003 C 
HETATM   12  C   UNL     1      26.904  40.190  48.423  1.00  0.00     0.000 C 
HETATM   13  C   UNL     1      25.919  39.804  49.522  1.00  0.00     0.003 C 
HETATM   14  C   UNL     1      26.355  40.321  50.897  1.00  0.00     0.038 C 
HETATM   15  O   UNL     1      25.324  42.496  50.755  1.00  0.00    -0.340 OA
HETATM   16  C   UNL     1      26.610  45.880  51.253  1.00  0.00     0.024 C 
HETATM   17  O   UNL     1      23.356  46.708  49.721  1.00  0.00    -0.292 OA
HETATM   18  C   UNL     1      23.592  48.006  49.342  1.00  0.00     0.163 C 
HETATM   19  N   UNL     1      22.562  48.705  49.039  1.00  0.00    -0.277 N 
HETATM   20  H   UNL     1      22.716  49.633  48.617  1.00  0.00     0.189 HD
HETATM   21  C   UNL     1      24.957  48.520  49.245  1.00  0.00     0.065 C 
ENDROOT
BRANCH  19  22
HETATM   22  N   UNL     1      21.231  48.409  49.382  1.00  0.00    -0.266 N 
HETATM   23  C   UNL     1      20.408  48.220  48.281  1.00  0.00     0.263 C 
HETATM   24  O   UNL     1      20.926  47.961  47.187  1.00  0.00    -0.269 OA
HETATM   25  H   UNL     1      20.890  48.735  50.285  1.00  0.00     0.190 HD
BRANCH  23  26
HETATM   26  C   UNL     1      18.918  48.593  48.416  1.00  0.00     0.214 C 
BRANCH  26  27
HETATM   27  N   UNL     1      18.156  48.010  47.321  1.00  0.00    -0.319 N 
HETATM   28  C   UNL     1      17.176  47.080  47.475  1.00  0.00     0.362 C 
HETATM   29  O   UNL     1      16.759  46.705  48.562  1.00  0.00    -0.238 OA
HETATM   30  H   UNL     1      18.473  48.150  46.369  1.00  0.00     0.166 HD
BRANCH  28  31
HETATM   31  O   UNL     1      16.758  46.679  46.261  1.00  0.00    -0.294 OA
BRANCH  31  32
HETATM   32  C   UNL     1      17.478  45.671  45.502  1.00  0.00     0.061 C 
HETATM   33  C   UNL     1      18.147  44.651  46.431  1.00  0.00     0.046 C 
HETATM   34  C   UNL     1      16.399  44.950  44.678  1.00  0.00     0.046 C 
HETATM   35  C   UNL     1      18.483  46.317  44.544  1.00  0.00     0.046 C 
ENDBRANCH  31  32
ENDBRANCH  28  31
ENDBRANCH  26  27
BRANCH  26  36
HETATM   36  C   UNL     1      18.624  50.052  48.695  1.00  0.00    -0.026 A 
HETATM   37  C   UNL     1      17.519  50.371  49.507  1.00  0.00     0.010 A 
HETATM   38  C   UNL     1      17.185  51.699  49.774  1.00  0.00     0.001 A 
HETATM   39  C   UNL     1      17.952  52.730  49.240  1.00  0.00     0.000 A 
HETATM   40  C   UNL     1      19.054  52.434  48.445  1.00  0.00     0.001 A 
HETATM   41  C   UNL     1      19.392  51.105  48.175  1.00  0.00     0.010 A 
ENDBRANCH  26  36
ENDBRANCH  23  26
ENDBRANCH  19  22
BRANCH   1  42
HETATM   42  C   UNL     1      27.400  48.314  49.651  1.00  0.00     0.035 C 
HETATM   43  C   UNL     1      27.531  49.637  48.916  1.00  0.00     0.010 C 
ENDBRANCH   1  42
TORSDOF 7
ENDMDL
MODEL 2
REMARK VINA RESULT:      -9.5      6.008     10.508
REMARK  7 active torsions:
REMARK  status: ('A' for Active; 'I' for Inactive)
REMARK    1  A    between atoms: C_2  and  C_3 
REMARK    2  A    between atoms: N_21  and  N_23 
REMARK       I    between atoms: N_23  and  C_24 
REMARK    3  A    between atoms: C_24  and  C_25 
REMARK    4  A    between atoms: C_25  and  N_26 
REMARK    5  A    between atoms: C_25  and  C_34 
REMARK       I    between atoms: N_26  and  C_27 
REMARK    6  A    between atoms: C_27  and  O_28 
REMARK    7  A    between atoms: O_28  and  C_29 
ROOT
HETATM    1  C   UNL     1      26.797  37.979  48.834  1.00  0.00    -0.041 C 
HETATM    2  C   UNL     1      26.488  39.063  47.890  1.00  0.00     0.005 C 
HETATM    3  C   UNL     1      27.278  40.216  47.930  1.00  0.00     0.091 C 
HETATM    4  C   UNL     1      27.389  41.046  46.816  1.00  0.00     0.075 C 
HETATM    5  C   UNL     1      26.618  40.753  45.693  1.00  0.00     0.079 C 
HETATM    6  C   UNL     1      25.587  39.814  45.767  1.00  0.00    -0.024 C 
HETATM    7  C   UNL     1      24.594  39.663  44.645  1.00  0.00     0.044 C 
HETATM    8  C   UNL     1      24.937  40.576  43.472  1.00  0.00     0.043 C 
HETATM    9  C   UNL     1      26.465  40.695  43.321  1.00  0.00     0.068 C 
HETATM   10  C   UNL     1      27.127  39.305  43.084  1.00  0.00     0.038 C 
HETATM   11  C   UNL     1      28.624  39.394  42.814  1.00  0.00     0.003 C 
HETATM   12  C   UNL     1      28.904  40.289  41.618  1.00  0.00     0.000 C 
HETATM   13  C   UNL     1      28.296  41.674  41.816  1.00  0.00     0.003 C 
HETATM   14  C   UNL     1      26.796  41.609  42.121  1.00  0.00     0.038 C 
HETATM   15  O   UNL     1      26.972  41.357  44.512  1.00  0.00    -0.340 OA
HETATM   16  C   UNL     1      25.557  38.937  46.856  1.00  0.00     0.024 C 
HETATM   17  O   UNL     1      28.003  40.559  49.093  1.00  0.00    -0.292 OA
HETATM   18  C   UNL     1      28.078  39.618  50.090  1.00  0.00     0.163 C 
HETATM   19  N   UNL     1      28.620  39.995  51.187  1.00  0.00    -0.277 N 
HETATM   20  H   UNL     1      28.818  39.277  51.899  1.00  0.00     0.189 HD
HETATM   21  C   UNL     1      27.607  38.252  49.866  1.00  0.00     0.065 C 
ENDROOT
BRANCH  19  22
HETATM   22  N   UNL     1      28.820  41.326  51.596  1.00  0.00    -0.266 N 
HETATM   23  C   UNL     1      28.586  41.526  52.949  1.00  0.00     0.263 C 
HETATM   24  O   UNL     1      28.600  40.549  53.708  1.00  0.00    -0.269 OA
HETATM   25  H   UNL     1      28.712  42.058  50.896  1.00  0.00     0.190 HD
BRANCH  23  26
HETATM   26  C   UNL     1      28.070  42.908  53.400  1.00  0.00     0.214 C 
BRANCH  26  27
HETATM   27  N   UNL     1      27.656  43.689  52.242  1.00  0.00    -0.319 N 
HETATM   28  C   UNL     1      26.367  44.000  51.945  1.00  0.00     0.362 C 
HETATM   29  O   UNL     1      25.419  43.742  52.674  1.00  0.00    -0.238 OA
HETATM   30  H   UNL     1      28.326  43.870  51.504  1.00  0.00     0.166 HD
BRANCH  28  31
HETATM   31  O   UNL     1      26.331  44.633  50.758  1.00  0.00    -0.294 OA
BRANCH  31  32
HETATM   32  C   UNL     1      25.890  46.013  50.644  1.00  0.00     0.061 C 
HETATM   33  C   UNL     1      26.079  46.766  51.965  1.00  0.00     0.046 C 
HETATM   34  C   UNL     1      26.813  46.637  49.586  1.00  0.00     0.046 C 
HETATM   35  C   UNL     1      24.444  46.088  50.145  1.00  0.00     0.046 C 
ENDBRANCH  31  32
ENDBRANCH  28  31
ENDBRANCH  26  27
BRANCH  26  36
HETATM   36  C   UNL     1      28.942  43.647  54.392  1.00  0.00    -0.026 A 
HETATM   37  C   UNL     1      28.520  44.912  54.845  1.00  0.00     0.010 A 
HETATM   38  C   UNL     1      29.297  45.650  55.738  1.00  0.00     0.001 A 
HETATM   39  C   UNL     1      30.506  45.135  56.198  1.00  0.00     0.000 A 
HETATM   40  C   UNL     1      30.933  43.882  55.771  1.00  0.00     0.001 A 
HETATM   41  C   UNL     1      30.157  43.140  54.876  1.00  0.00     0.010 A 
ENDBRANCH  26  36
ENDBRANCH  23  26
ENDBRANCH  19  22
BRANCH   1  42
HETATM   42  C   UNL     1      26.396  36.556  48.511  1.00  0.00     0.035 C 
HETATM   43  C   UNL     1      27.077  36.003  47.271  1.00  0.00     0.010 C 
ENDBRANCH   1  42
TORSDOF 7
ENDMDL
MODEL 3
REMARK VINA RESULT:      -9.4      5.283      9.601
REMARK  7 active torsions:
REMARK  status: ('A' for Active; 'I' for Inactive)
REMARK    1  A    between atoms: C_2  and  C_3 
REMARK    2  A    between atoms: N_21  and  N_23 
REMARK       I    between atoms: N_23  and  C_24 
REMARK    3  A    between atoms: C_24  and  C_25 
REMARK    4  A    between atoms: C_25  and  N_26 
REMARK    5  A    between atoms: C_25  and  C_34 
REMARK       I    between atoms: N_26  and  C_27 
REMARK    6  A    between atoms: C_27  and  O_28 
REMARK    7  A    between atoms: O_28  and  C_29 
ROOT
HETATM    1  C   UNL     1      28.637  38.666  50.196  1.00  0.00    -0.041 C 
HETATM    2  C   UNL     1      27.625  39.063  49.206  1.00  0.00     0.005 C 
HETATM    3  C   UNL     1      27.206  40.396  49.192  1.00  0.00     0.091 C 
HETATM    4  C   UNL     1      26.659  40.961  48.041  1.00  0.00     0.075 C 
HETATM    5  C   UNL     1      26.451  40.141  46.935  1.00  0.00     0.079 C 
HETATM    6  C   UNL     1      26.549  38.752  47.054  1.00  0.00    -0.024 C 
HETATM    7  C   UNL     1      26.092  37.844  45.944  1.00  0.00     0.044 C 
HETATM    8  C   UNL     1      25.625  38.642  44.730  1.00  0.00     0.043 C 
HETATM    9  C   UNL     1      26.480  39.912  44.569  1.00  0.00     0.068 C 
HETATM   10  C   UNL     1      27.989  39.568  44.392  1.00  0.00     0.038 C 
HETATM   11  C   UNL     1      28.852  40.792  44.113  1.00  0.00     0.003 C 
HETATM   12  C   UNL     1      28.361  41.529  42.877  1.00  0.00     0.000 C 
HETATM   13  C   UNL     1      26.891  41.911  43.015  1.00  0.00     0.003 C 
HETATM   14  C   UNL     1      26.006  40.699  43.327  1.00  0.00     0.038 C 
HETATM   15  O   UNL     1      26.233  40.756  45.727  1.00  0.00    -0.340 OA
HETATM   16  C   UNL     1      27.184  38.221  48.182  1.00  0.00     0.024 C 
HETATM   17  O   UNL     1      27.346  41.214  50.335  1.00  0.00    -0.292 OA
HETATM   18  C   UNL     1      28.098  40.722  51.373  1.00  0.00     0.163 C 
HETATM   19  N   UNL     1      28.100  41.415  52.451  1.00  0.00    -0.277 N 
HETATM   20  H   UNL     1      28.763  41.149  53.194  1.00  0.00     0.189 HD
HETATM   21  C   UNL     1      28.889  39.503  51.212  1.00  0.00     0.065 C 
ENDROOT
BRANCH  19  22
HETATM   22  N   UNL     1      27.164  42.405  52.799  1.00  0.00    -0.266 N 
HETATM   23  C   UNL     1      27.654  43.696  52.668  1.00  0.00     0.263 C 
HETATM   24  O   UNL     1      28.646  43.888  51.952  1.00  0.00    -0.269 OA
HETATM   25  H   UNL     1      26.427  42.151  53.456  1.00  0.00     0.190 HD
BRANCH  23  26
HETATM   26  C   UNL     1      27.103  44.781  53.615  1.00  0.00     0.214 C 
BRANCH  26  27
HETATM   27  N   UNL     1      26.563  45.891  52.843  1.00  0.00    -0.319 N 
HETATM   28  C   UNL     1      25.338  45.894  52.254  1.00  0.00     0.362 C 
HETATM   29  O   UNL     1      24.514  45.000  52.394  1.00  0.00    -0.238 OA
HETATM   30  H   UNL     1      27.180  46.642  52.559  1.00  0.00     0.166 HD
BRANCH  28  31
HETATM   31  O   UNL     1      25.199  47.021  51.533  1.00  0.00    -0.294 OA
BRANCH  31  32
HETATM   32  C   UNL     1      25.331  47.021  50.086  1.00  0.00     0.061 C 
HETATM   33  C   UNL     1      25.963  45.716  49.588  1.00  0.00     0.046 C 
HETATM   34  C   UNL     1      23.890  47.101  49.558  1.00  0.00     0.046 C 
HETATM   35  C   UNL     1      26.105  48.251  49.604  1.00  0.00     0.046 C 
ENDBRANCH  31  32
ENDBRANCH  28  31
ENDBRANCH  26  27
BRANCH  26  36
HETATM   36  C   UNL     1      28.009  45.180  54.761  1.00  0.00    -0.026 A 
HETATM   37  C   UNL     1      29.231  44.499  54.919  1.00  0.00     0.010 A 
HETATM   38  C   UNL     1      30.092  44.806  55.973  1.00  0.00     0.001 A 
HETATM   39  C   UNL     1      29.750  45.801  56.883  1.00  0.00     0.000 A 
HETATM   40  C   UNL     1      28.552  46.493  56.737  1.00  0.00     0.001 A 
HETATM   41  C   UNL     1      27.687  46.189  55.682  1.00  0.00     0.010 A 
ENDBRANCH  26  36
ENDBRANCH  23  26
ENDBRANCH  19  22
BRANCH   1  42
HETATM   42  C   UNL     1      29.518  37.463  49.939  1.00  0.00     0.035 C 
HETATM   43  C   UNL     1      29.887  36.703  51.202  1.00  0.00     0.010 C 
ENDBRANCH   1  42
TORSDOF 7
ENDMDL
MODEL 4
REMARK VINA RESULT:      -9.4      3.469      9.382
REMARK  7 active torsions:
REMARK  status: ('A' for Active; 'I' for Inactive)
REMARK    1  A    between atoms: C_2  and  C_3 
REMARK    2  A    between atoms: N_21  and  N_23 
REMARK       I    between atoms: N_23  and  C_24 
REMARK    3  A    between atoms: C_24  and  C_25 
REMARK    4  A    between atoms: C_25  and  N_26 
REMARK    5  A    between atoms: C_25  and  C_34 
REMARK       I    between atoms: N_26  and  C_27 
REMARK    6  A    between atoms: C_27  and  O_28 
REMARK    7  A    between atoms: O_28  and  C_29 
ROOT
HETATM    1  C   UNL     1      25.876  46.453  52.069  1.00  0.00    -0.041 C 
HETATM    2  C   UNL     1      25.321  46.870  50.773  1.00  0.00     0.005 C 
HETATM    3  C   UNL     1      24.357  46.052  50.175  1.00  0.00     0.091 C 
HETATM    4  C   UNL     1      23.453  46.571  49.251  1.00  0.00     0.075 C 
HETATM    5  C   UNL     1      23.592  47.902  48.863  1.00  0.00     0.079 C 
HETATM    6  C   UNL     1      24.745  48.619  49.194  1.00  0.00    -0.024 C 
HETATM    7  C   UNL     1      25.022  49.967  48.582  1.00  0.00     0.044 C 
HETATM    8  C   UNL     1      23.874  50.415  47.681  1.00  0.00     0.043 C 
HETATM    9  C   UNL     1      22.529  49.941  48.260  1.00  0.00     0.068 C 
HETATM   10  C   UNL     1      22.292  50.506  49.692  1.00  0.00     0.038 C 
HETATM   11  C   UNL     1      20.919  50.155  50.253  1.00  0.00     0.003 C 
HETATM   12  C   UNL     1      19.816  50.653  49.332  1.00  0.00     0.000 C 
HETATM   13  C   UNL     1      19.992  50.103  47.921  1.00  0.00     0.003 C 
HETATM   14  C   UNL     1      21.378  50.417  47.347  1.00  0.00     0.038 C 
HETATM   15  O   UNL     1      22.526  48.488  48.228  1.00  0.00    -0.340 OA
HETATM   16  C   UNL     1      25.585  48.112  50.191  1.00  0.00     0.024 C 
HETATM   17  O   UNL     1      24.259  44.683  50.509  1.00  0.00    -0.292 OA
HETATM   18  C   UNL     1      24.987  44.243  51.586  1.00  0.00     0.163 C 
HETATM   19  N   UNL     1      24.993  42.978  51.789  1.00  0.00    -0.277 N 
HETATM   20  H   UNL     1      25.411  42.632  52.665  1.00  0.00     0.189 HD
HETATM   21  C   UNL     1      25.663  45.191  52.470  1.00  0.00     0.065 C 
ENDROOT
BRANCH  19  22
HETATM   22  N   UNL     1      24.641  41.989  50.853  1.00  0.00    -0.266 N 
HETATM   23  C   UNL     1      25.731  41.292  50.353  1.00  0.00     0.263 C 
HETATM   24  O   UNL     1      26.794  41.311  50.987  1.00  0.00    -0.269 OA
HETATM   25  H   UNL     1      23.772  42.114  50.335  1.00  0.00     0.190 HD
BRANCH  23  26
HETATM   26  C   UNL     1      25.643  40.742  48.915  1.00  0.00     0.214 C 
BRANCH  26  27
HETATM   27  N   UNL     1      24.254  40.485  48.562  1.00  0.00    -0.319 N 
HETATM   28  C   UNL     1      23.414  41.406  48.021  1.00  0.00     0.362 C 
HETATM   29  O   UNL     1      23.764  42.528  47.680  1.00  0.00    -0.238 OA
HETATM   30  H   UNL     1      23.810  39.637  48.892  1.00  0.00     0.166 HD
BRANCH  28  31
HETATM   31  O   UNL     1      22.183  40.873  47.922  1.00  0.00    -0.294 OA
BRANCH  31  32
HETATM   32  C   UNL     1      21.662  40.392  46.653  1.00  0.00     0.061 C 
HETATM   33  C   UNL     1      22.784  39.835  45.769  1.00  0.00     0.046 C 
HETATM   34  C   UNL     1      20.714  39.242  47.026  1.00  0.00     0.046 C 
HETATM   35  C   UNL     1      20.859  41.483  45.939  1.00  0.00     0.046 C 
ENDBRANCH  31  32
ENDBRANCH  28  31
ENDBRANCH  26  27
BRANCH  26  36
HETATM   36  C   UNL     1      26.608  39.626  48.574  1.00  0.00    -0.026 A 
HETATM   37  C   UNL     1      27.327  39.705  47.366  1.00  0.00     0.010 A 
HETATM   38  C   UNL     1      28.208  38.691  46.989  1.00  0.00     0.001 A 
HETATM   39  C   UNL     1      28.390  37.585  47.813  1.00  0.00     0.000 A 
HETATM   40  C   UNL     1      27.697  37.495  49.016  1.00  0.00     0.001 A 
HETATM   41  C   UNL     1      26.814  38.508  49.398  1.00  0.00     0.010 A 
ENDBRANCH  26  36
ENDBRANCH  23  26
ENDBRANCH  19  22
BRANCH   1  42
HETATM   42  C   UNL     1      26.462  47.482  53.009  1.00  0.00     0.035 C 
HETATM   43  C   UNL     1      26.335  47.104  54.475  1.00  0.00     0.010 C 
ENDBRANCH   1  42
TORSDOF 7
ENDMDL
MODEL 5
REMARK VINA RESULT:      -9.1     11.527     15.104
REMARK  7 active torsions:
REMARK  status: ('A' for Active; 'I' for Inactive)
REMARK    1  A    between atoms: C_2  and  C_3 
REMARK    2  A    between atoms: N_21  and  N_23 
REMARK       I    between atoms: N_23  and  C_24 
REMARK    3  A    between atoms: C_24  and  C_25 
REMARK    4  A    between atoms: C_25  and  N_26 
REMARK    5  A    between atoms: C_25  and  C_34 
REMARK       I    between atoms: N_26  and  C_27 
REMARK    6  A    between atoms: C_27  and  O_28 
REMARK    7  A    between atoms: O_28  and  C_29 
ROOT
HETATM    1  C   UNL     1      36.914  51.221  40.507  1.00  0.00    -0.041 C 
HETATM    2  C   UNL     1      36.695  52.197  41.584  1.00  0.00     0.005 C 
HETATM    3  C   UNL     1      35.875  51.825  42.653  1.00  0.00     0.091 C 
HETATM    4  C   UNL     1      35.995  52.444  43.896  1.00  0.00     0.075 C 
HETATM    5  C   UNL     1      36.886  53.507  44.023  1.00  0.00     0.079 C 
HETATM    6  C   UNL     1      37.450  54.097  42.890  1.00  0.00    -0.024 C 
HETATM    7  C   UNL     1      38.215  55.391  42.988  1.00  0.00     0.044 C 
HETATM    8  C   UNL     1      38.332  55.859  44.436  1.00  0.00     0.043 C 
HETATM    9  C   UNL     1      38.474  54.647  45.375  1.00  0.00     0.068 C 
HETATM   10  C   UNL     1      39.728  53.793  45.022  1.00  0.00     0.038 C 
HETATM   11  C   UNL     1      39.969  52.651  46.002  1.00  0.00     0.003 C 
HETATM   12  C   UNL     1      40.109  53.178  47.421  1.00  0.00     0.000 C 
HETATM   13  C   UNL     1      38.889  54.001  47.822  1.00  0.00     0.003 C 
HETATM   14  C   UNL     1      38.608  55.138  46.834  1.00  0.00     0.038 C 
HETATM   15  O   UNL     1      37.240  53.883  45.295  1.00  0.00    -0.340 OA
HETATM   16  C   UNL     1      37.389  53.407  41.675  1.00  0.00     0.024 C 
HETATM   17  O   UNL     1      34.917  50.797  42.509  1.00  0.00    -0.292 OA
HETATM   18  C   UNL     1      34.973  50.039  41.366  1.00  0.00     0.163 C 
HETATM   19  N   UNL     1      34.016  49.205  41.190  1.00  0.00    -0.277 N 
HETATM   20  H   UNL     1      34.102  48.527  40.419  1.00  0.00     0.189 HD
HETATM   21  C   UNL     1      36.102  50.157  40.445  1.00  0.00     0.065 C 
ENDROOT
BRANCH  19  22
HETATM   22  N   UNL     1      32.768  49.230  41.838  1.00  0.00    -0.266 N 
HETATM   23  C   UNL     1      31.698  49.025  40.979  1.00  0.00     0.263 C 
HETATM   24  O   UNL     1      31.908  48.494  39.880  1.00  0.00    -0.269 OA
HETATM   25  H   UNL     1      32.694  49.760  42.705  1.00  0.00     0.190 HD
BRANCH  23  26
HETATM   26  C   UNL     1      30.352  49.693  41.324  1.00  0.00     0.214 C 
BRANCH  26  27
HETATM   27  N   UNL     1      29.251  48.807  40.975  1.00  0.00    -0.319 N 
HETATM   28  C   UNL     1      27.992  48.908  41.478  1.00  0.00     0.362 C 
HETATM   29  O   UNL     1      27.622  49.820  42.206  1.00  0.00    -0.238 OA
HETATM   30  H   UNL     1      29.446  47.950  40.472  1.00  0.00     0.166 HD
BRANCH  28  31
HETATM   31  O   UNL     1      27.256  47.873  41.034  1.00  0.00    -0.294 OA
BRANCH  31  32
HETATM   32  C   UNL     1      26.287  48.032  39.963  1.00  0.00     0.061 C 
HETATM   33  C   UNL     1      26.368  49.433  39.346  1.00  0.00     0.046 C 
HETATM   34  C   UNL     1      26.700  47.003  38.899  1.00  0.00     0.046 C 
HETATM   35  C   UNL     1      24.873  47.702  40.449  1.00  0.00     0.046 C 
ENDBRANCH  31  32
ENDBRANCH  28  31
ENDBRANCH  26  27
BRANCH  26  36
HETATM   36  C   UNL     1      30.189  51.127  40.865  1.00  0.00    -0.026 A 
HETATM   37  C   UNL     1      30.740  52.152  41.658  1.00  0.00     0.010 A 
HETATM   38  C   UNL     1      30.597  53.492  41.298  1.00  0.00     0.001 A 
HETATM   39  C   UNL     1      29.906  53.831  40.138  1.00  0.00     0.000 A 
HETATM   40  C   UNL     1      29.365  52.831  39.336  1.00  0.00     0.001 A 
HETATM   41  C   UNL     1      29.507  51.488  39.693  1.00  0.00     0.010 A 
ENDBRANCH  26  36
ENDBRANCH  23  26
ENDBRANCH  19  22
BRANCH   1  42
HETATM   42  C   UNL     1      38.156  51.306  39.648  1.00  0.00     0.035 C 
HETATM   43  C   UNL     1      37.954  52.103  38.370  1.00  0.00     0.010 C 
ENDBRANCH   1  42
TORSDOF 7
ENDMDL
MODEL 6
REMARK VINA RESULT:      -9.0      3.436      8.832
REMARK  7 active torsions:
REMARK  status: ('A' for Active; 'I' for Inactive)
REMARK    1  A    between atoms: C_2  and  C_3 
REMARK    2  A    between atoms: N_21  and  N_23 
REMARK       I    between atoms: N_23  and  C_24 
REMARK    3  A    between atoms: C_24  and  C_25 
REMARK    4  A    between atoms: C_25  and  N_26 
REMARK    5  A    between atoms: C_25  and  C_34 
REMARK       I    between atoms: N_26  and  C_27 
REMARK    6  A    between atoms: C_27  and  O_28 
REMARK    7  A    between atoms: O_28  and  C_29 
ROOT
HETATM    1  C   UNL     1      25.039  46.259  51.028  1.00  0.00    -0.041 C 
HETATM    2  C   UNL     1      24.359  46.925  49.907  1.00  0.00     0.005 C 
HETATM    3  C   UNL     1      23.293  46.260  49.295  1.00  0.00     0.091 C 
HETATM    4  C   UNL     1      22.315  46.967  48.598  1.00  0.00     0.075 C 
HETATM    5  C   UNL     1      22.476  48.342  48.442  1.00  0.00     0.079 C 
HETATM    6  C   UNL     1      23.694  48.951  48.751  1.00  0.00    -0.024 C 
HETATM    7  C   UNL     1      23.967  50.380  48.362  1.00  0.00     0.044 C 
HETATM    8  C   UNL     1      22.747  51.020  47.706  1.00  0.00     0.043 C 
HETATM    9  C   UNL     1      21.456  50.487  48.352  1.00  0.00     0.068 C 
HETATM   10  C   UNL     1      21.415  50.784  49.880  1.00  0.00     0.038 C 
HETATM   11  C   UNL     1      20.100  50.375  50.534  1.00  0.00     0.003 C 
HETATM   12  C   UNL     1      18.925  51.066  49.860  1.00  0.00     0.000 C 
HETATM   13  C   UNL     1      18.908  50.782  48.362  1.00  0.00     0.003 C 
HETATM   14  C   UNL     1      20.232  51.156  47.687  1.00  0.00     0.038 C 
HETATM   15  O   UNL     1      21.374  49.065  48.059  1.00  0.00    -0.340 OA
HETATM   16  C   UNL     1      24.617  48.245  49.529  1.00  0.00     0.024 C 
HETATM   17  O   UNL     1      23.164  44.856  49.386  1.00  0.00    -0.292 OA
HETATM   18  C   UNL     1      23.989  44.203  50.269  1.00  0.00     0.163 C 
HETATM   19  N   UNL     1      23.954  42.923  50.238  1.00  0.00    -0.277 N 
HETATM   20  H   UNL     1      24.452  42.409  50.979  1.00  0.00     0.189 HD
HETATM   21  C   UNL     1      24.810  44.952  51.218  1.00  0.00     0.065 C 
ENDROOT
BRANCH  19  22
HETATM   22  N   UNL     1      23.445  42.135  49.190  1.00  0.00    -0.266 N 
HETATM   23  C   UNL     1      24.359  41.923  48.168  1.00  0.00     0.263 C 
HETATM   24  O   UNL     1      25.564  42.090  48.400  1.00  0.00    -0.269 OA
HETATM   25  H   UNL     1      22.436  42.129  49.048  1.00  0.00     0.190 HD
BRANCH  23  26
HETATM   26  C   UNL     1      23.817  41.740  46.736  1.00  0.00     0.214 C 
BRANCH  26  27
HETATM   27  N   UNL     1      24.919  41.538  45.807  1.00  0.00    -0.319 N 
HETATM   28  C   UNL     1      25.448  40.326  45.492  1.00  0.00     0.362 C 
HETATM   29  O   UNL     1      24.987  39.262  45.881  1.00  0.00    -0.238 OA
HETATM   30  H   UNL     1      25.460  42.338  45.501  1.00  0.00     0.166 HD
BRANCH  28  31
HETATM   31  O   UNL     1      26.516  40.507  44.694  1.00  0.00    -0.294 OA
BRANCH  31  32
HETATM   32  C   UNL     1      27.861  40.180  45.137  1.00  0.00     0.061 C 
HETATM   33  C   UNL     1      28.077  38.663  45.180  1.00  0.00     0.046 C 
HETATM   34  C   UNL     1      28.786  40.778  44.065  1.00  0.00     0.046 C 
HETATM   35  C   UNL     1      28.172  40.840  46.483  1.00  0.00     0.046 C 
ENDBRANCH  31  32
ENDBRANCH  28  31
ENDBRANCH  26  27
BRANCH  26  36
HETATM   36  C   UNL     1      22.779  42.748  46.289  1.00  0.00    -0.026 A 
HETATM   37  C   UNL     1      21.434  42.337  46.211  1.00  0.00     0.010 A 
HETATM   38  C   UNL     1      20.441  43.216  45.779  1.00  0.00     0.001 A 
HETATM   39  C   UNL     1      20.771  44.520  45.422  1.00  0.00     0.000 A 
HETATM   40  C   UNL     1      22.093  44.947  45.504  1.00  0.00     0.001 A 
HETATM   41  C   UNL     1      23.091  44.070  45.936  1.00  0.00     0.010 A 
ENDBRANCH  26  36
ENDBRANCH  23  26
ENDBRANCH  19  22
BRANCH   1  42
HETATM   42  C   UNL     1      25.782  47.080  52.059  1.00  0.00     0.035 C 
HETATM   43  C   UNL     1      25.823  46.432  53.432  1.00  0.00     0.010 C 
ENDBRANCH   1  42
TORSDOF 7
ENDMDL
MODEL 7
REMARK VINA RESULT:      -8.9      3.528     10.172
REMARK  7 active torsions:
REMARK  status: ('A' for Active; 'I' for Inactive)
REMARK    1  A    between atoms: C_2  and  C_3 
REMARK    2  A    between atoms: N_21  and  N_23 
REMARK       I    between atoms: N_23  and  C_24 
REMARK    3  A    between atoms: C_24  and  C_25 
REMARK    4  A    between atoms: C_25  and  N_26 
REMARK    5  A    between atoms: C_25  and  C_34 
REMARK       I    between atoms: N_26  and  C_27 
REMARK    6  A    between atoms: C_27  and  O_28 
REMARK    7  A    between atoms: O_28  and  C_29 
ROOT
HETATM    1  C   UNL     1      17.795  51.996  48.924  1.00  0.00    -0.041 C 
HETATM    2  C   UNL     1      17.784  51.472  47.550  1.00  0.00     0.005 C 
HETATM    3  C   UNL     1      18.216  50.159  47.343  1.00  0.00     0.091 C 
HETATM    4  C   UNL     1      17.799  49.437  46.227  1.00  0.00     0.075 C 
HETATM    5  C   UNL     1      17.019  50.085  45.272  1.00  0.00     0.079 C 
HETATM    6  C   UNL     1      16.872  51.474  45.303  1.00  0.00    -0.024 C 
HETATM    7  C   UNL     1      16.243  52.213  44.151  1.00  0.00     0.044 C 
HETATM    8  C   UNL     1      15.755  51.250  43.073  1.00  0.00     0.043 C 
HETATM    9  C   UNL     1      15.226  49.956  43.717  1.00  0.00     0.068 C 
HETATM   10  C   UNL     1      14.052  50.244  44.700  1.00  0.00     0.038 C 
HETATM   11  C   UNL     1      13.424  48.977  45.269  1.00  0.00     0.003 C 
HETATM   12  C   UNL     1      12.929  48.072  44.152  1.00  0.00     0.000 C 
HETATM   13  C   UNL     1      14.053  47.740  43.177  1.00  0.00     0.003 C 
HETATM   14  C   UNL     1      14.721  48.999  42.614  1.00  0.00     0.038 C 
HETATM   15  O   UNL     1      16.348  49.300  44.368  1.00  0.00    -0.340 OA
HETATM   16  C   UNL     1      17.217  52.158  46.473  1.00  0.00     0.024 C 
HETATM   17  O   UNL     1      19.068  49.519  48.272  1.00  0.00    -0.292 OA
HETATM   18  C   UNL     1      19.274  50.148  49.475  1.00  0.00     0.163 C 
HETATM   19  N   UNL     1      20.154  49.625  50.245  1.00  0.00    -0.277 N 
HETATM   20  H   UNL     1      20.230  49.988  51.207  1.00  0.00     0.189 HD
HETATM   21  C   UNL     1      18.481  51.316  49.854  1.00  0.00     0.065 C 
ENDROOT
BRANCH  19  22
HETATM   22  N   UNL     1      21.154  48.714  49.860  1.00  0.00    -0.266 N 
HETATM   23  C   UNL     1      22.364  49.322  49.561  1.00  0.00     0.263 C 
HETATM   24  O   UNL     1      22.581  50.464  49.987  1.00  0.00    -0.269 OA
HETATM   25  H   UNL     1      20.857  47.829  49.453  1.00  0.00     0.190 HD
BRANCH  23  26
HETATM   26  C   UNL     1      23.271  48.654  48.506  1.00  0.00     0.214 C 
BRANCH  26  27
HETATM   27  N   UNL     1      22.856  47.275  48.293  1.00  0.00    -0.319 N 
HETATM   28  C   UNL     1      21.833  46.896  47.483  1.00  0.00     0.362 C 
HETATM   29  O   UNL     1      21.210  47.668  46.767  1.00  0.00    -0.238 OA
HETATM   30  H   UNL     1      23.213  46.552  48.905  1.00  0.00     0.166 HD
BRANCH  28  31
HETATM   31  O   UNL     1      21.649  45.568  47.599  1.00  0.00    -0.294 OA
BRANCH  31  32
HETATM   32  C   UNL     1      21.492  44.716  46.433  1.00  0.00     0.061 C 
HETATM   33  C   UNL     1      22.354  45.210  45.266  1.00  0.00     0.046 C 
HETATM   34  C   UNL     1      22.008  43.338  46.876  1.00  0.00     0.046 C 
HETATM   35  C   UNL     1      20.017  44.589  46.041  1.00  0.00     0.046 C 
ENDBRANCH  31  32
ENDBRANCH  28  31
ENDBRANCH  26  27
BRANCH  26  36
HETATM   36  C   UNL     1      24.760  48.854  48.693  1.00  0.00    -0.026 A 
HETATM   37  C   UNL     1      25.463  47.939  49.500  1.00  0.00     0.010 A 
HETATM   38  C   UNL     1      26.831  48.090  49.730  1.00  0.00     0.001 A 
HETATM   39  C   UNL     1      27.520  49.153  49.154  1.00  0.00     0.000 A 
HETATM   40  C   UNL     1      26.844  50.061  48.345  1.00  0.00     0.001 A 
HETATM   41  C   UNL     1      25.474  49.913  48.112  1.00  0.00     0.010 A 
ENDBRANCH  26  36
ENDBRANCH  23  26
ENDBRANCH  19  22
BRANCH   1  42
HETATM   42  C   UNL     1      16.872  53.131  49.310  1.00  0.00     0.035 C 
HETATM   43  C   UNL     1      15.504  52.666  49.777  1.00  0.00     0.010 C 
ENDBRANCH   1  42
TORSDOF 7
ENDMDL
MODEL 8
REMARK VINA RESULT:      -8.9      3.003     10.313
REMARK  7 active torsions:
REMARK  status: ('A' for Active; 'I' for Inactive)
REMARK    1  A    between atoms: C_2  and  C_3 
REMARK    2  A    between atoms: N_21  and  N_23 
REMARK       I    between atoms: N_23  and  C_24 
REMARK    3  A    between atoms: C_24  and  C_25 
REMARK    4  A    between atoms: C_25  and  N_26 
REMARK    5  A    between atoms: C_25  and  C_34 
REMARK       I    between atoms: N_26  and  C_27 
REMARK    6  A    between atoms: C_27  and  O_28 
REMARK    7  A    between atoms: O_28  and  C_29 
ROOT
HETATM    1  C   UNL     1      21.729  44.914  45.953  1.00  0.00    -0.041 C 
HETATM    2  C   UNL     1      20.944  45.503  47.049  1.00  0.00     0.005 C 
HETATM    3  C   UNL     1      21.609  45.828  48.234  1.00  0.00     0.091 C 
HETATM    4  C   UNL     1      21.097  46.794  49.099  1.00  0.00     0.075 C 
HETATM    5  C   UNL     1      19.859  47.359  48.803  1.00  0.00     0.079 C 
HETATM    6  C   UNL     1      19.043  46.800  47.817  1.00  0.00    -0.024 C 
HETATM    7  C   UNL     1      17.613  47.241  47.652  1.00  0.00     0.044 C 
HETATM    8  C   UNL     1      17.266  48.375  48.612  1.00  0.00     0.043 C 
HETATM    9  C   UNL     1      18.483  49.298  48.804  1.00  0.00     0.068 C 
HETATM   10  C   UNL     1      18.955  49.912  47.454  1.00  0.00     0.038 C 
HETATM   11  C   UNL     1      20.084  50.923  47.618  1.00  0.00     0.003 C 
HETATM   12  C   UNL     1      19.672  52.044  48.558  1.00  0.00     0.000 C 
HETATM   13  C   UNL     1      19.226  51.491  49.908  1.00  0.00     0.003 C 
HETATM   14  C   UNL     1      18.111  50.448  49.766  1.00  0.00     0.038 C 
HETATM   15  O   UNL     1      19.525  48.520  49.456  1.00  0.00    -0.340 OA
HETATM   16  C   UNL     1      19.611  45.900  46.909  1.00  0.00     0.024 C 
HETATM   17  O   UNL     1      22.829  45.204  48.578  1.00  0.00    -0.292 OA
HETATM   18  C   UNL     1      23.439  44.440  47.613  1.00  0.00     0.163 C 
HETATM   19  N   UNL     1      24.468  43.773  47.984  1.00  0.00    -0.277 N 
HETATM   20  H   UNL     1      25.028  43.305  47.257  1.00  0.00     0.189 HD
HETATM   21  C   UNL     1      22.954  44.449  46.234  1.00  0.00     0.065 C 
ENDROOT
BRANCH  19  22
HETATM   22  N   UNL     1      24.820  43.466  49.311  1.00  0.00    -0.266 N 
HETATM   23  C   UNL     1      26.028  44.024  49.702  1.00  0.00     0.263 C 
HETATM   24  O   UNL     1      26.480  44.982  49.059  1.00  0.00    -0.269 OA
HETATM   25  H   UNL     1      24.443  42.611  49.716  1.00  0.00     0.190 HD
BRANCH  23  26
HETATM   26  C   UNL     1      26.870  43.271  50.752  1.00  0.00     0.214 C 
BRANCH  26  27
HETATM   27  N   UNL     1      26.660  41.836  50.624  1.00  0.00    -0.319 N 
HETATM   28  C   UNL     1      27.619  40.896  50.833  1.00  0.00     0.362 C 
HETATM   29  O   UNL     1      28.741  41.151  51.250  1.00  0.00    -0.238 OA
HETATM   30  H   UNL     1      25.814  41.498  50.182  1.00  0.00     0.166 HD
BRANCH  28  31
HETATM   31  O   UNL     1      27.122  39.684  50.526  1.00  0.00    -0.294 OA
BRANCH  31  32
HETATM   32  C   UNL     1      27.756  38.830  49.536  1.00  0.00     0.061 C 
HETATM   33  C   UNL     1      26.801  37.728  49.062  1.00  0.00     0.046 C 
HETATM   34  C   UNL     1      28.063  39.758  48.350  1.00  0.00     0.046 C 
HETATM   35  C   UNL     1      29.072  38.256  50.068  1.00  0.00     0.046 C 
ENDBRANCH  31  32
ENDBRANCH  28  31
ENDBRANCH  26  27
BRANCH  26  36
HETATM   36  C   UNL     1      26.796  43.806  52.166  1.00  0.00    -0.026 A 
HETATM   37  C   UNL     1      27.999  44.045  52.858  1.00  0.00     0.010 A 
HETATM   38  C   UNL     1      27.989  44.511  54.173  1.00  0.00     0.001 A 
HETATM   39  C   UNL     1      26.779  44.751  54.817  1.00  0.00     0.000 A 
HETATM   40  C   UNL     1      25.580  44.532  54.146  1.00  0.00     0.001 A 
HETATM   41  C   UNL     1      25.586  44.065  52.828  1.00  0.00     0.010 A 
ENDBRANCH  26  36
ENDBRANCH  23  26
ENDBRANCH  19  22
BRANCH   1  42
HETATM   42  C   UNL     1      21.253  45.046  44.524  1.00  0.00     0.035 C 
HETATM   43  C   UNL     1      22.381  45.254  43.528  1.00  0.00     0.010 C 
ENDBRANCH   1  42
TORSDOF 7
ENDMDL
MODEL 9
REMARK VINA RESULT:      -8.6      1.921      2.843
REMARK  7 active torsions:
REMARK  status: ('A' for Active; 'I' for Inactive)
REMARK    1  A    between atoms: C_2  and  C_3 
REMARK    2  A    between atoms: N_21  and  N_23 
REMARK       I    between atoms: N_23  and  C_24 
REMARK    3  A    between atoms: C_24  and  C_25 
REMARK    4  A    between atoms: C_25  and  N_26 
REMARK    5  A    between atoms: C_25  and  C_34 
REMARK       I    between atoms: N_26  and  C_27 
REMARK    6  A    between atoms: C_27  and  O_28 
REMARK    7  A    between atoms: O_28  and  C_29 
ROOT
HETATM    1  C   UNL     1      25.697  45.075  50.949  1.00  0.00    -0.041 C 
HETATM    2  C   UNL     1      25.290  43.759  50.435  1.00  0.00     0.005 C 
HETATM    3  C   UNL     1      24.448  43.720  49.320  1.00  0.00     0.091 C 
HETATM    4  C   UNL     1      24.409  42.599  48.493  1.00  0.00     0.075 C 
HETATM    5  C   UNL     1      25.156  41.480  48.856  1.00  0.00     0.079 C 
HETATM    6  C   UNL     1      25.723  41.392  50.130  1.00  0.00    -0.024 C 
HETATM    7  C   UNL     1      26.320  40.101  50.625  1.00  0.00     0.044 C 
HETATM    8  C   UNL     1      26.280  39.021  49.547  1.00  0.00     0.043 C 
HETATM    9  C   UNL     1      26.501  39.649  48.159  1.00  0.00     0.068 C 
HETATM   10  C   UNL     1      27.868  40.390  48.076  1.00  0.00     0.038 C 
HETATM   11  C   UNL     1      28.176  40.924  46.683  1.00  0.00     0.003 C 
HETATM   12  C   UNL     1      28.154  39.802  45.657  1.00  0.00     0.000 C 
HETATM   13  C   UNL     1      26.821  39.063  45.682  1.00  0.00     0.003 C 
HETATM   14  C   UNL     1      26.475  38.542  47.082  1.00  0.00     0.038 C 
HETATM   15  O   UNL     1      25.375  40.529  47.892  1.00  0.00    -0.340 OA
HETATM   16  C   UNL     1      25.828  42.555  50.899  1.00  0.00     0.024 C 
HETATM   17  O   UNL     1      23.632  44.823  48.987  1.00  0.00    -0.292 OA
HETATM   18  C   UNL     1      23.855  45.999  49.661  1.00  0.00     0.163 C 
HETATM   19  N   UNL     1      23.019  46.944  49.446  1.00  0.00    -0.277 N 
HETATM   20  H   UNL     1      23.238  47.878  49.824  1.00  0.00     0.189 HD
HETATM   21  C   UNL     1      25.023  46.154  50.527  1.00  0.00     0.065 C 
ENDROOT
BRANCH  19  22
HETATM   22  N   UNL     1      21.735  46.802  48.889  1.00  0.00    -0.266 N 
HETATM   23  C   UNL     1      21.403  47.820  48.006  1.00  0.00     0.263 C 
HETATM   24  O   UNL     1      22.311  48.502  47.512  1.00  0.00    -0.269 OA
HETATM   25  H   UNL     1      21.043  46.276  49.420  1.00  0.00     0.190 HD
BRANCH  23  26
HETATM   26  C   UNL     1      19.918  48.216  47.880  1.00  0.00     0.214 C 
BRANCH  26  27
HETATM   27  N   UNL     1      19.341  47.617  46.685  1.00  0.00    -0.319 N 
HETATM   28  C   UNL     1      18.999  46.307  46.569  1.00  0.00     0.362 C 
HETATM   29  O   UNL     1      19.048  45.507  47.494  1.00  0.00    -0.238 OA
HETATM   30  H   UNL     1      19.351  48.138  45.817  1.00  0.00     0.166 HD
BRANCH  28  31
HETATM   31  O   UNL     1      18.600  46.066  45.307  1.00  0.00    -0.294 OA
BRANCH  31  32
HETATM   32  C   UNL     1      19.396  45.260  44.397  1.00  0.00     0.061 C 
HETATM   33  C   UNL     1      19.031  43.775  44.509  1.00  0.00     0.046 C 
HETATM   34  C   UNL     1      19.014  45.755  42.993  1.00  0.00     0.046 C 
HETATM   35  C   UNL     1      20.892  45.499  44.617  1.00  0.00     0.046 C 
ENDBRANCH  31  32
ENDBRANCH  28  31
ENDBRANCH  26  27
BRANCH  26  36
HETATM   36  C   UNL     1      19.608  49.685  48.073  1.00  0.00    -0.026 A 
HETATM   37  C   UNL     1      19.955  50.289  49.297  1.00  0.00     0.010 A 
HETATM   38  C   UNL     1      19.668  51.632  49.540  1.00  0.00     0.001 A 
HETATM   39  C   UNL     1      19.034  52.396  48.565  1.00  0.00     0.000 A 
HETATM   40  C   UNL     1      18.693  51.819  47.345  1.00  0.00     0.001 A 
HETATM   41  C   UNL     1      18.980  50.474  47.097  1.00  0.00     0.010 A 
ENDBRANCH  26  36
ENDBRANCH  23  26
ENDBRANCH  19  22
BRANCH   1  42
HETATM   42  C   UNL     1      26.977  45.216  51.744  1.00  0.00     0.035 C 
HETATM   43  C   UNL     1      26.748  45.338  53.241  1.00  0.00     0.010 C 
ENDBRANCH   1  42
TORSDOF 7
ENDMDL
MODEL 10
REMARK VINA RESULT:      -8.6      3.261     11.064
REMARK  7 active torsions:
REMARK  status: ('A' for Active; 'I' for Inactive)
REMARK    1  A    between atoms: C_2  and  C_3 
REMARK    2  A    between atoms: N_21  and  N_23 
REMARK       I    between atoms: N_23  and  C_24 
REMARK    3  A    between atoms: C_24  and  C_25 
REMARK    4  A    between atoms: C_25  and  N_26 
REMARK    5  A    between atoms: C_25  and  C_34 
REMARK       I    between atoms: N_26  and  C_27 
REMARK    6  A    between atoms: C_27  and  O_28 
REMARK    7  A    between atoms: O_28  and  C_29 
ROOT
HETATM    1  C   UNL     1      21.579  44.272  46.160  1.00  0.00    -0.041 C 
HETATM    2  C   UNL     1      20.928  44.991  47.265  1.00  0.00     0.005 C 
HETATM    3  C   UNL     1      21.718  45.390  48.346  1.00  0.00     0.091 C 
HETATM    4  C   UNL     1      21.332  46.452  49.162  1.00  0.00     0.075 C 
HETATM    5  C   UNL     1      20.092  47.046  48.933  1.00  0.00     0.079 C 
HETATM    6  C   UNL     1      19.163  46.439  48.085  1.00  0.00    -0.024 C 
HETATM    7  C   UNL     1      17.741  46.929  48.015  1.00  0.00     0.044 C 
HETATM    8  C   UNL     1      17.534  48.160  48.894  1.00  0.00     0.043 C 
HETATM    9  C   UNL     1      18.797  49.038  48.883  1.00  0.00     0.068 C 
HETATM   10  C   UNL     1      19.157  49.507  47.442  1.00  0.00     0.038 C 
HETATM   11  C   UNL     1      20.333  50.475  47.404  1.00  0.00     0.003 C 
HETATM   12  C   UNL     1      20.059  51.693  48.270  1.00  0.00     0.000 C 
HETATM   13  C   UNL     1      19.727  51.284  49.702  1.00  0.00     0.003 C 
HETATM   14  C   UNL     1      18.566  50.286  49.763  1.00  0.00     0.038 C 
HETATM   15  O   UNL     1      19.868  48.274  49.503  1.00  0.00    -0.340 OA
HETATM   16  C   UNL     1      19.604  45.436  47.215  1.00  0.00     0.024 C 
HETATM   17  O   UNL     1      22.942  44.742  48.629  1.00  0.00    -0.292 OA
HETATM   18  C   UNL     1      23.425  43.868  47.687  1.00  0.00     0.163 C 
HETATM   19  N   UNL     1      24.459  43.190  48.020  1.00  0.00    -0.277 N 
HETATM   20  H   UNL     1      24.927  42.634  47.289  1.00  0.00     0.189 HD
HETATM   21  C   UNL     1      22.807  43.776  46.366  1.00  0.00     0.065 C 
ENDROOT
BRANCH  19  22
HETATM   22  N   UNL     1      24.929  42.987  49.330  1.00  0.00    -0.266 N 
HETATM   23  C   UNL     1      26.257  42.589  49.382  1.00  0.00     0.263 C 
HETATM   24  O   UNL     1      26.982  42.800  48.401  1.00  0.00    -0.269 OA
HETATM   25  H   UNL     1      24.246  42.748  50.047  1.00  0.00     0.190 HD
BRANCH  23  26
HETATM   26  C   UNL     1      26.698  41.683  50.549  1.00  0.00     0.214 C 
BRANCH  26  27
HETATM   27  N   UNL     1      27.521  42.437  51.484  1.00  0.00    -0.319 N 
HETATM   28  C   UNL     1      27.116  43.560  52.133  1.00  0.00     0.362 C 
HETATM   29  O   UNL     1      25.977  44.004  52.077  1.00  0.00    -0.238 OA
HETATM   30  H   UNL     1      28.514  42.242  51.537  1.00  0.00     0.166 HD
BRANCH  28  31
HETATM   31  O   UNL     1      28.151  44.062  52.831  1.00  0.00    -0.294 OA
BRANCH  31  32
HETATM   32  C   UNL     1      28.317  43.790  54.249  1.00  0.00     0.061 C 
HETATM   33  C   UNL     1      28.594  45.078  55.032  1.00  0.00     0.046 C 
HETATM   34  C   UNL     1      26.963  43.221  54.703  1.00  0.00     0.046 C 
HETATM   35  C   UNL     1      29.401  42.734  54.482  1.00  0.00     0.046 C 
ENDBRANCH  31  32
ENDBRANCH  28  31
ENDBRANCH  26  27
BRANCH  26  36
HETATM   36  C   UNL     1      27.249  40.327  50.161  1.00  0.00    -0.026 A 
HETATM   37  C   UNL     1      26.418  39.445  49.443  1.00  0.00     0.010 A 
HETATM   38  C   UNL     1      26.864  38.173  49.084  1.00  0.00     0.001 A 
HETATM   39  C   UNL     1      28.148  37.762  49.429  1.00  0.00     0.000 A 
HETATM   40  C   UNL     1      28.987  38.624  50.128  1.00  0.00     0.001 A 
HETATM   41  C   UNL     1      28.545  39.899  50.490  1.00  0.00     0.010 A 
ENDBRANCH  26  36
ENDBRANCH  23  26
ENDBRANCH  19  22
BRANCH   1  42
HETATM   42  C   UNL     1      20.969  44.297  44.775  1.00  0.00     0.035 C 
HETATM   43  C   UNL     1      21.405  45.493  43.945  1.00  0.00     0.010 C 
ENDBRANCH   1  42
TORSDOF 7
ENDMDL
