MODEL 1
REMARK VINA RESULT:      -8.7      0.000      0.000
REMARK  7 active torsions:
REMARK  status: ('A' for Active; 'I' for Inactive)
REMARK    1  A    between atoms: O_2  and  C_3 
REMARK    2  A    between atoms: N_7  and  C_9 
REMARK    3  A    between atoms: C_9  and  C_10 
REMARK    4  A    between atoms: C_11  and  O_12 
REMARK    5  A    between atoms: C_22  and  N_23 
REMARK       I    between atoms: N_23  and  C_24 
REMARK    6  A    between atoms: C_24  and  C_25 
REMARK    7  A    between atoms: C_25  and  C_26 
ROOT
HETATM    1  C   UNL     1      23.170  47.177  49.411  1.00  0.00     0.161 C 
HETATM    2  C   UNL     1      23.085  48.641  48.820  1.00  0.00     0.019 C 
HETATM    3  C   UNL     1      22.337  49.577  49.800  1.00  0.00     0.045 C 
HETATM    4  C   UNL     1      20.827  49.348  49.797  1.00  0.00     0.236 C 
HETATM    5  N   UNL     1      20.275  49.420  48.400  1.00  0.00    -0.067 N 
HETATM    6  H   UNL     1      19.283  49.133  48.455  1.00  0.00     0.280 HD
HETATM    7  C   UNL     1      20.935  48.430  47.479  1.00  0.00     0.236 C 
HETATM    8  C   UNL     1      22.429  48.702  47.421  1.00  0.00     0.045 C 
HETATM    9  C   UNL     1      24.543  49.040  48.740  1.00  0.00    -0.038 A 
HETATM   10  C   UNL     1      25.370  48.121  49.387  1.00  0.00    -0.026 A 
HETATM   11  C   UNL     1      24.595  47.012  50.037  1.00  0.00     0.148 C 
HETATM   12  C   UNL     1      25.091  50.171  48.139  1.00  0.00     0.009 A 
HETATM   13  C   UNL     1      26.474  50.359  48.180  1.00  0.00     0.001 A 
HETATM   14  C   UNL     1      27.299  49.425  48.818  1.00  0.00     0.001 A 
HETATM   15  C   UNL     1      26.749  48.300  49.429  1.00  0.00     0.010 A 
ENDROOT
BRANCH   1  16
HETATM   16  O   UNL     1      22.929  46.225  48.356  1.00  0.00    -0.387 OA
HETATM   17  C   UNL     1      23.463  44.931  48.633  1.00  0.00     0.202 C 
ENDBRANCH   1  16
BRANCH  11  18
HETATM   18  N   UNL     1      24.644  47.166  51.480  1.00  0.00    -0.350 N 
HETATM   19  C   UNL     1      25.619  46.562  52.244  1.00  0.00     0.223 C 
HETATM   20  O   UNL     1      26.342  45.669  51.806  1.00  0.00    -0.273 OA
HETATM   21  H   UNL     1      24.153  47.958  51.878  1.00  0.00     0.163 HD
BRANCH  19  22
HETATM   22  C   UNL     1      25.716  47.082  53.668  1.00  0.00     0.148 C 
BRANCH  22  23
HETATM   23  C   UNL     1      26.957  46.577  54.336  1.00  0.00    -0.009 A 
HETATM   24  S   UNL     1      27.126  44.915  54.723  1.00  0.00    -0.106 SA
HETATM   25  C   UNL     1      28.640  45.177  55.472  1.00  0.00     0.050 A 
HETATM   26  C   UNL     1      29.017  46.502  55.425  1.00  0.00     0.008 A 
HETATM   27  C   UNL     1      28.047  47.309  54.765  1.00  0.00     0.015 A 
ENDBRANCH  22  23
ENDBRANCH  19  22
ENDBRANCH  11  18
BRANCH   5  28
HETATM   28  C   UNL     1      20.175  50.816  47.819  1.00  0.00     0.276 C 
BRANCH  28  29
HETATM   29  C   UNL     1      18.764  51.333  47.743  1.00  0.00     0.002 A 
HETATM   30  C   UNL     1      18.056  51.303  46.535  1.00  0.00     0.073 A 
HETATM   31  C   UNL     1      16.760  51.807  46.441  1.00  0.00     0.039 A 
HETATM   32  C   UNL     1      16.149  52.342  47.577  1.00  0.00     0.026 A 
HETATM   33  C   UNL     1      16.836  52.369  48.787  1.00  0.00     0.034 A 
HETATM   34 CL   UNL     1      16.078  53.013  50.190  1.00  0.00    -0.084 Cl
HETATM   35  C   UNL     1      18.139  51.874  48.876  1.00  0.00     0.035 A 
BRANCH  30  36
HETATM   36  O   UNL     1      18.664  50.738  45.448  1.00  0.00    -0.360 OA
HETATM   37  H   UNL     1      19.092  51.453  44.935  1.00  0.00     0.217 HD
ENDBRANCH  30  36
ENDBRANCH  28  29
ENDBRANCH   5  28
TORSDOF 7
ENDMDL
MODEL 2
REMARK VINA RESULT:      -8.6      4.786      7.101
REMARK  7 active torsions:
REMARK  status: ('A' for Active; 'I' for Inactive)
REMARK    1  A    between atoms: O_2  and  C_3 
REMARK    2  A    between atoms: N_7  and  C_9 
REMARK    3  A    between atoms: C_9  and  C_10 
REMARK    4  A    between atoms: C_11  and  O_12 
REMARK    5  A    between atoms: C_22  and  N_23 
REMARK       I    between atoms: N_23  and  C_24 
REMARK    6  A    between atoms: C_24  and  C_25 
REMARK    7  A    between atoms: C_25  and  C_26 
ROOT
HETATM    1  C   UNL     1      26.028  44.296  53.270  1.00  0.00     0.161 C 
HETATM    2  C   UNL     1      26.113  43.788  51.776  1.00  0.00     0.019 C 
HETATM    3  C   UNL     1      26.757  44.868  50.873  1.00  0.00     0.045 C 
HETATM    4  C   UNL     1      25.805  46.021  50.564  1.00  0.00     0.236 C 
HETATM    5  N   UNL     1      24.504  45.510  50.008  1.00  0.00    -0.067 N 
HETATM    6  H   UNL     1      23.868  46.323  49.943  1.00  0.00     0.280 HD
HETATM    7  C   UNL     1      23.831  44.541  50.943  1.00  0.00     0.236 C 
HETATM    8  C   UNL     1      24.747  43.354  51.195  1.00  0.00     0.045 C 
HETATM    9  C   UNL     1      27.040  42.597  51.894  1.00  0.00    -0.038 A 
HETATM   10  C   UNL     1      27.629  42.519  53.158  1.00  0.00    -0.026 A 
HETATM   11  C   UNL     1      27.232  43.663  54.045  1.00  0.00     0.148 C 
HETATM   12  C   UNL     1      27.352  41.652  50.920  1.00  0.00     0.009 A 
HETATM   13  C   UNL     1      28.244  40.623  51.232  1.00  0.00     0.001 A 
HETATM   14  C   UNL     1      28.819  40.543  52.505  1.00  0.00     0.001 A 
HETATM   15  C   UNL     1      28.515  41.496  53.476  1.00  0.00     0.010 A 
ENDROOT
BRANCH   1  16
HETATM   16  O   UNL     1      24.759  43.907  53.832  1.00  0.00    -0.387 OA
HETATM   17  C   UNL     1      24.759  43.882  55.259  1.00  0.00     0.202 C 
ENDBRANCH   1  16
BRANCH  11  18
HETATM   18  N   UNL     1      28.366  44.550  54.231  1.00  0.00    -0.350 N 
HETATM   19  C   UNL     1      28.277  45.697  54.991  1.00  0.00     0.223 C 
HETATM   20  O   UNL     1      27.199  46.172  55.344  1.00  0.00    -0.273 OA
HETATM   21  H   UNL     1      29.288  44.166  54.060  1.00  0.00     0.163 HD
BRANCH  19  22
HETATM   22  C   UNL     1      29.614  46.324  55.344  1.00  0.00     0.148 C 
BRANCH  22  23
HETATM   23  C   UNL     1      30.356  45.477  56.330  1.00  0.00    -0.009 A 
HETATM   24  S   UNL     1      30.421  45.918  57.986  1.00  0.00    -0.106 SA
HETATM   25  C   UNL     1      31.440  44.599  58.364  1.00  0.00     0.050 A 
HETATM   26  C   UNL     1      31.723  43.831  57.256  1.00  0.00     0.008 A 
HETATM   27  C   UNL     1      31.093  44.336  56.082  1.00  0.00     0.015 A 
ENDBRANCH  22  23
ENDBRANCH  19  22
ENDBRANCH  11  18
BRANCH   5  28
HETATM   28  C   UNL     1      24.562  45.029  48.573  1.00  0.00     0.276 C 
BRANCH  28  29
HETATM   29  C   UNL     1      23.209  44.893  47.932  1.00  0.00     0.002 A 
HETATM   30  C   UNL     1      22.329  45.981  47.880  1.00  0.00     0.073 A 
HETATM   31  C   UNL     1      21.060  45.861  47.318  1.00  0.00     0.039 A 
HETATM   32  C   UNL     1      20.659  44.635  46.784  1.00  0.00     0.026 A 
HETATM   33  C   UNL     1      21.526  43.546  46.819  1.00  0.00     0.034 A 
HETATM   34 CL   UNL     1      21.040  42.041  46.147  1.00  0.00    -0.084 Cl
HETATM   35  C   UNL     1      22.794  43.665  47.392  1.00  0.00     0.035 A 
BRANCH  30  36
HETATM   36  O   UNL     1      22.762  47.181  48.375  1.00  0.00    -0.360 OA
HETATM   37  H   UNL     1      23.577  47.017  48.892  1.00  0.00     0.217 HD
ENDBRANCH  30  36
ENDBRANCH  28  29
ENDBRANCH   5  28
TORSDOF 7
ENDMDL
MODEL 3
REMARK VINA RESULT:      -8.5      2.579      3.819
REMARK  7 active torsions:
REMARK  status: ('A' for Active; 'I' for Inactive)
REMARK    1  A    between atoms: O_2  and  C_3 
REMARK    2  A    between atoms: N_7  and  C_9 
REMARK    3  A    between atoms: C_9  and  C_10 
REMARK    4  A    between atoms: C_11  and  O_12 
REMARK    5  A    between atoms: C_22  and  N_23 
REMARK       I    between atoms: N_23  and  C_24 
REMARK    6  A    between atoms: C_24  and  C_25 
REMARK    7  A    between atoms: C_25  and  C_26 
ROOT
HETATM    1  C   UNL     1      20.834  46.850  47.352  1.00  0.00     0.161 C 
HETATM    2  C   UNL     1      20.138  48.190  47.819  1.00  0.00     0.019 C 
HETATM    3  C   UNL     1      19.245  47.933  49.057  1.00  0.00     0.045 C 
HETATM    4  C   UNL     1      17.939  47.224  48.704  1.00  0.00     0.236 C 
HETATM    5  N   UNL     1      17.209  47.955  47.611  1.00  0.00    -0.067 N 
HETATM    6  H   UNL     1      16.409  47.360  47.336  1.00  0.00     0.280 HD
HETATM    7  C   UNL     1      18.049  48.105  46.371  1.00  0.00     0.236 C 
HETATM    8  C   UNL     1      19.317  48.876  46.703  1.00  0.00     0.045 C 
HETATM    9  C   UNL     1      21.323  49.048  48.208  1.00  0.00    -0.038 A 
HETATM   10  C   UNL     1      22.511  48.316  48.231  1.00  0.00    -0.026 A 
HETATM   11  C   UNL     1      22.294  46.864  47.918  1.00  0.00     0.148 C 
HETATM   12  C   UNL     1      21.329  50.400  48.542  1.00  0.00     0.009 A 
HETATM   13  C   UNL     1      22.540  51.010  48.881  1.00  0.00     0.001 A 
HETATM   14  C   UNL     1      23.729  50.273  48.887  1.00  0.00     0.001 A 
HETATM   15  C   UNL     1      23.720  48.917  48.564  1.00  0.00     0.010 A 
ENDROOT
BRANCH   1  16
HETATM   16  O   UNL     1      20.813  46.779  45.913  1.00  0.00    -0.387 OA
HETATM   17  C   UNL     1      20.834  45.442  45.415  1.00  0.00     0.202 C 
ENDBRANCH   1  16
BRANCH  11  18
HETATM   18  N   UNL     1      22.485  46.073  49.121  1.00  0.00    -0.350 N 
HETATM   19  C   UNL     1      23.395  45.039  49.176  1.00  0.00     0.223 C 
HETATM   20  O   UNL     1      23.909  44.558  48.169  1.00  0.00    -0.273 OA
HETATM   21  H   UNL     1      22.177  46.481  49.997  1.00  0.00     0.163 HD
BRANCH  19  22
HETATM   22  C   UNL     1      23.697  44.540  50.578  1.00  0.00     0.148 C 
BRANCH  22  23
HETATM   23  C   UNL     1      24.708  45.417  51.250  1.00  0.00    -0.009 A 
HETATM   24  S   UNL     1      25.268  45.052  52.830  1.00  0.00    -0.106 SA
HETATM   25  C   UNL     1      26.234  46.461  52.881  1.00  0.00     0.050 A 
HETATM   26  C   UNL     1      26.140  47.195  51.719  1.00  0.00     0.008 A 
HETATM   27  C   UNL     1      25.262  46.589  50.776  1.00  0.00     0.015 A 
ENDBRANCH  22  23
ENDBRANCH  19  22
ENDBRANCH  11  18
BRANCH   5  28
HETATM   28  C   UNL     1      16.525  49.237  48.040  1.00  0.00     0.276 C 
BRANCH  28  29
HETATM   29  C   UNL     1      15.661  49.843  46.968  1.00  0.00     0.002 A 
HETATM   30  C   UNL     1      14.671  49.084  46.333  1.00  0.00     0.073 A 
HETATM   31  C   UNL     1      13.885  49.622  45.316  1.00  0.00     0.039 A 
HETATM   32  C   UNL     1      14.079  50.949  44.929  1.00  0.00     0.026 A 
HETATM   33  C   UNL     1      15.053  51.720  45.557  1.00  0.00     0.034 A 
HETATM   34 CL   UNL     1      15.282  53.359  45.092  1.00  0.00    -0.084 Cl
HETATM   35  C   UNL     1      15.847  51.175  46.568  1.00  0.00     0.035 A 
BRANCH  30  36
HETATM   36  O   UNL     1      14.475  47.799  46.759  1.00  0.00    -0.360 OA
HETATM   37  H   UNL     1      14.627  47.201  45.999  1.00  0.00     0.217 HD
ENDBRANCH  30  36
ENDBRANCH  28  29
ENDBRANCH   5  28
TORSDOF 7
ENDMDL
MODEL 4
REMARK VINA RESULT:      -8.5      3.493      6.077
REMARK  7 active torsions:
REMARK  status: ('A' for Active; 'I' for Inactive)
REMARK    1  A    between atoms: O_2  and  C_3 
REMARK    2  A    between atoms: N_7  and  C_9 
REMARK    3  A    between atoms: C_9  and  C_10 
REMARK    4  A    between atoms: C_11  and  O_12 
REMARK    5  A    between atoms: C_22  and  N_23 
REMARK       I    between atoms: N_23  and  C_24 
REMARK    6  A    between atoms: C_24  and  C_25 
REMARK    7  A    between atoms: C_25  and  C_26 
ROOT
HETATM    1  C   UNL     1      26.256  44.073  52.514  1.00  0.00     0.161 C 
HETATM    2  C   UNL     1      26.104  44.391  50.973  1.00  0.00     0.019 C 
HETATM    3  C   UNL     1      27.028  45.566  50.570  1.00  0.00     0.045 C 
HETATM    4  C   UNL     1      26.496  46.920  51.035  1.00  0.00     0.236 C 
HETATM    5  N   UNL     1      25.076  47.124  50.582  1.00  0.00    -0.067 N 
HETATM    6  H   UNL     1      24.740  47.991  51.034  1.00  0.00     0.280 HD
HETATM    7  C   UNL     1      24.163  46.031  51.071  1.00  0.00     0.236 C 
HETATM    8  C   UNL     1      24.648  44.689  50.548  1.00  0.00     0.045 C 
HETATM    9  C   UNL     1      26.593  43.110  50.332  1.00  0.00    -0.038 A 
HETATM   10  C   UNL     1      27.177  42.251  51.264  1.00  0.00    -0.026 A 
HETATM   11  C   UNL     1      27.217  42.844  52.642  1.00  0.00     0.148 C 
HETATM   12  C   UNL     1      26.534  42.747  48.988  1.00  0.00     0.009 A 
HETATM   13  C   UNL     1      27.051  41.510  48.596  1.00  0.00     0.001 A 
HETATM   14  C   UNL     1      27.622  40.647  49.538  1.00  0.00     0.001 A 
HETATM   15  C   UNL     1      27.691  41.017  50.881  1.00  0.00     0.010 A 
ENDROOT
BRANCH   1  16
HETATM   16  O   UNL     1      24.955  43.802  53.073  1.00  0.00    -0.387 OA
HETATM   17  C   UNL     1      24.800  44.296  54.403  1.00  0.00     0.202 C 
ENDBRANCH   1  16
BRANCH  11  18
HETATM   18  N   UNL     1      28.587  43.181  52.987  1.00  0.00    -0.350 N 
HETATM   19  C   UNL     1      28.959  43.485  54.279  1.00  0.00     0.223 C 
HETATM   20  O   UNL     1      28.140  43.738  55.159  1.00  0.00    -0.273 OA
HETATM   21  H   UNL     1      29.313  42.890  52.341  1.00  0.00     0.163 HD
BRANCH  19  22
HETATM   22  C   UNL     1      30.459  43.492  54.517  1.00  0.00     0.148 C 
BRANCH  22  23
HETATM   23  C   UNL     1      30.778  43.993  55.891  1.00  0.00    -0.009 A 
HETATM   24  S   UNL     1      30.280  45.558  56.387  1.00  0.00    -0.106 SA
HETATM   25  C   UNL     1      31.050  45.393  57.903  1.00  0.00     0.050 A 
HETATM   26  C   UNL     1      31.671  44.171  58.037  1.00  0.00     0.008 A 
HETATM   27  C   UNL     1      31.509  43.361  56.877  1.00  0.00     0.015 A 
ENDBRANCH  22  23
ENDBRANCH  19  22
ENDBRANCH  11  18
BRANCH   5  28
HETATM   28  C   UNL     1      24.910  47.441  49.110  1.00  0.00     0.276 C 
BRANCH  28  29
HETATM   29  C   UNL     1      23.978  48.592  48.847  1.00  0.00     0.002 A 
HETATM   30  C   UNL     1      24.449  49.777  48.268  1.00  0.00     0.073 A 
HETATM   31  C   UNL     1      23.605  50.863  48.047  1.00  0.00     0.039 A 
HETATM   32  C   UNL     1      22.257  50.766  48.400  1.00  0.00     0.026 A 
HETATM   33  C   UNL     1      21.771  49.591  48.968  1.00  0.00     0.034 A 
HETATM   34 CL   UNL     1      20.109  49.465  49.387  1.00  0.00    -0.084 Cl
HETATM   35  C   UNL     1      22.622  48.508  49.198  1.00  0.00     0.035 A 
BRANCH  30  36
HETATM   36  O   UNL     1      25.765  49.830  47.896  1.00  0.00    -0.360 OA
HETATM   37  H   UNL     1      26.086  50.742  48.050  1.00  0.00     0.217 HD
ENDBRANCH  30  36
ENDBRANCH  28  29
ENDBRANCH   5  28
TORSDOF 7
ENDMDL
MODEL 5
REMARK VINA RESULT:      -8.3      4.690     10.422
REMARK  7 active torsions:
REMARK  status: ('A' for Active; 'I' for Inactive)
REMARK    1  A    between atoms: O_2  and  C_3 
REMARK    2  A    between atoms: N_7  and  C_9 
REMARK    3  A    between atoms: C_9  and  C_10 
REMARK    4  A    between atoms: C_11  and  O_12 
REMARK    5  A    between atoms: C_22  and  N_23 
REMARK       I    between atoms: N_23  and  C_24 
REMARK    6  A    between atoms: C_24  and  C_25 
REMARK    7  A    between atoms: C_25  and  C_26 
ROOT
HETATM    1  C   UNL     1      17.754  48.524  47.979  1.00  0.00     0.161 C 
HETATM    2  C   UNL     1      18.787  49.620  48.458  1.00  0.00     0.019 C 
HETATM    3  C   UNL     1      19.659  50.097  47.271  1.00  0.00     0.045 C 
HETATM    4  C   UNL     1      20.726  49.078  46.876  1.00  0.00     0.236 C 
HETATM    5  N   UNL     1      21.550  48.674  48.068  1.00  0.00    -0.067 N 
HETATM    6  H   UNL     1      22.159  47.897  47.759  1.00  0.00     0.280 HD
HETATM    7  C   UNL     1      20.703  48.109  49.176  1.00  0.00     0.236 C 
HETATM    8  C   UNL     1      19.687  49.149  49.623  1.00  0.00     0.045 C 
HETATM    9  C   UNL     1      17.877  50.742  48.911  1.00  0.00    -0.038 A 
HETATM   10  C   UNL     1      16.548  50.510  48.554  1.00  0.00    -0.026 A 
HETATM   11  C   UNL     1      16.379  49.242  47.769  1.00  0.00     0.148 C 
HETATM   12  C   UNL     1      18.226  51.909  49.586  1.00  0.00     0.009 A 
HETATM   13  C   UNL     1      17.226  52.829  49.911  1.00  0.00     0.001 A 
HETATM   14  C   UNL     1      15.893  52.584  49.563  1.00  0.00     0.001 A 
HETATM   15  C   UNL     1      15.548  51.420  48.878  1.00  0.00     0.010 A 
ENDROOT
BRANCH   1  16
HETATM   16  O   UNL     1      17.675  47.481  48.971  1.00  0.00    -0.387 OA
HETATM   17  C   UNL     1      17.284  46.219  48.431  1.00  0.00     0.202 C 
ENDBRANCH   1  16
BRANCH  11  18
HETATM   18  N   UNL     1      16.068  49.562  46.388  1.00  0.00    -0.350 N 
HETATM   19  C   UNL     1      14.823  49.321  45.846  1.00  0.00     0.223 C 
HETATM   20  O   UNL     1      13.992  48.603  46.398  1.00  0.00    -0.273 OA
HETATM   21  H   UNL     1      16.663  50.239  45.924  1.00  0.00     0.163 HD
BRANCH  19  22
HETATM   22  C   UNL     1      14.573  50.003  44.513  1.00  0.00     0.148 C 
BRANCH  22  23
HETATM   23  C   UNL     1      14.885  51.465  44.596  1.00  0.00    -0.009 A 
HETATM   24  S   UNL     1      16.112  52.154  43.615  1.00  0.00    -0.106 SA
HETATM   25  C   UNL     1      15.907  53.694  44.327  1.00  0.00     0.050 A 
HETATM   26  C   UNL     1      14.921  53.690  45.289  1.00  0.00     0.008 A 
HETATM   27  C   UNL     1      14.328  52.404  45.441  1.00  0.00     0.015 A 
ENDBRANCH  22  23
ENDBRANCH  19  22
ENDBRANCH  11  18
BRANCH   5  28
HETATM   28  C   UNL     1      22.554  49.707  48.535  1.00  0.00     0.276 C 
BRANCH  28  29
HETATM   29  C   UNL     1      23.876  49.115  48.943  1.00  0.00     0.002 A 
HETATM   30  C   UNL     1      25.072  49.587  48.389  1.00  0.00     0.073 A 
HETATM   31  C   UNL     1      26.301  49.028  48.732  1.00  0.00     0.039 A 
HETATM   32  C   UNL     1      26.344  47.983  49.657  1.00  0.00     0.026 A 
HETATM   33  C   UNL     1      25.164  47.510  50.225  1.00  0.00     0.034 A 
HETATM   34 CL   UNL     1      25.217  46.234  51.376  1.00  0.00    -0.084 Cl
HETATM   35  C   UNL     1      23.932  48.064  49.871  1.00  0.00     0.035 A 
BRANCH  30  36
HETATM   36  O   UNL     1      25.004  50.638  47.515  1.00  0.00    -0.360 OA
HETATM   37  H   UNL     1      25.705  50.518  46.843  1.00  0.00     0.217 HD
ENDBRANCH  30  36
ENDBRANCH  28  29
ENDBRANCH   5  28
TORSDOF 7
ENDMDL
MODEL 6
REMARK VINA RESULT:      -8.2      3.702      5.949
REMARK  7 active torsions:
REMARK  status: ('A' for Active; 'I' for Inactive)
REMARK    1  A    between atoms: O_2  and  C_3 
REMARK    2  A    between atoms: N_7  and  C_9 
REMARK    3  A    between atoms: C_9  and  C_10 
REMARK    4  A    between atoms: C_11  and  O_12 
REMARK    5  A    between atoms: C_22  and  N_23 
REMARK       I    between atoms: N_23  and  C_24 
REMARK    6  A    between atoms: C_24  and  C_25 
REMARK    7  A    between atoms: C_25  and  C_26 
ROOT
HETATM    1  C   UNL     1      19.610  49.485  48.338  1.00  0.00     0.161 C 
HETATM    2  C   UNL     1      18.780  49.249  47.014  1.00  0.00     0.019 C 
HETATM    3  C   UNL     1      18.974  50.432  46.035  1.00  0.00     0.045 C 
HETATM    4  C   UNL     1      18.196  51.678  46.456  1.00  0.00     0.236 C 
HETATM    5  N   UNL     1      16.745  51.353  46.684  1.00  0.00    -0.067 N 
HETATM    6  H   UNL     1      16.309  52.201  47.085  1.00  0.00     0.280 HD
HETATM    7  C   UNL     1      16.562  50.274  47.718  1.00  0.00     0.236 C 
HETATM    8  C   UNL     1      17.274  49.009  47.268  1.00  0.00     0.045 C 
HETATM    9  C   UNL     1      19.427  48.002  46.448  1.00  0.00    -0.038 A 
HETATM   10  C   UNL     1      20.594  47.664  47.135  1.00  0.00    -0.026 A 
HETATM   11  C   UNL     1      20.930  48.652  48.214  1.00  0.00     0.148 C 
HETATM   12  C   UNL     1      19.003  47.231  45.369  1.00  0.00     0.009 A 
HETATM   13  C   UNL     1      19.752  46.111  45.000  1.00  0.00     0.001 A 
HETATM   14  C   UNL     1      20.913  45.769  45.701  1.00  0.00     0.001 A 
HETATM   15  C   UNL     1      21.343  46.549  46.774  1.00  0.00     0.010 A 
ENDROOT
BRANCH   1  16
HETATM   16  O   UNL     1      18.820  49.078  49.473  1.00  0.00    -0.387 OA
HETATM   17  C   UNL     1      19.142  49.790  50.667  1.00  0.00     0.202 C 
ENDBRANCH   1  16
BRANCH  11  18
HETATM   18  N   UNL     1      22.097  49.422  47.822  1.00  0.00    -0.350 N 
HETATM   19  C   UNL     1      22.937  49.997  48.752  1.00  0.00     0.223 C 
HETATM   20  O   UNL     1      22.628  50.114  49.936  1.00  0.00    -0.273 OA
HETATM   21  H   UNL     1      22.457  49.273  46.886  1.00  0.00     0.163 HD
BRANCH  19  22
HETATM   22  C   UNL     1      24.262  50.479  48.190  1.00  0.00     0.148 C 
BRANCH  22  23
HETATM   23  C   UNL     1      25.382  49.586  48.627  1.00  0.00    -0.009 A 
HETATM   24  S   UNL     1      25.056  48.105  49.428  1.00  0.00    -0.106 SA
HETATM   25  C   UNL     1      26.721  47.779  49.640  1.00  0.00     0.050 A 
HETATM   26  C   UNL     1      27.513  48.773  49.108  1.00  0.00     0.008 A 
HETATM   27  C   UNL     1      26.740  49.814  48.519  1.00  0.00     0.015 A 
ENDBRANCH  22  23
ENDBRANCH  19  22
ENDBRANCH  11  18
BRANCH   5  28
HETATM   28  C   UNL     1      15.929  51.134  45.426  1.00  0.00     0.276 C 
BRANCH  28  29
HETATM   29  C   UNL     1      16.332  52.031  44.288  1.00  0.00     0.002 A 
HETATM   30  C   UNL     1      16.051  53.402  44.324  1.00  0.00     0.073 A 
HETATM   31  C   UNL     1      16.389  54.240  43.263  1.00  0.00     0.039 A 
HETATM   32  C   UNL     1      17.032  53.705  42.146  1.00  0.00     0.026 A 
HETATM   33  C   UNL     1      17.328  52.345  42.100  1.00  0.00     0.034 A 
HETATM   34 CL   UNL     1      18.135  51.689  40.731  1.00  0.00    -0.084 Cl
HETATM   35  C   UNL     1      16.978  51.506  43.159  1.00  0.00     0.035 A 
BRANCH  30  36
HETATM   36  O   UNL     1      15.455  53.906  45.448  1.00  0.00    -0.360 OA
HETATM   37  H   UNL     1      16.002  53.653  46.219  1.00  0.00     0.217 HD
ENDBRANCH  30  36
ENDBRANCH  28  29
ENDBRANCH   5  28
TORSDOF 7
ENDMDL
MODEL 7
REMARK VINA RESULT:      -8.1     10.987     14.761
REMARK  7 active torsions:
REMARK  status: ('A' for Active; 'I' for Inactive)
REMARK    1  A    between atoms: O_2  and  C_3 
REMARK    2  A    between atoms: N_7  and  C_9 
REMARK    3  A    between atoms: C_9  and  C_10 
REMARK    4  A    between atoms: C_11  and  O_12 
REMARK    5  A    between atoms: C_22  and  N_23 
REMARK       I    between atoms: N_23  and  C_24 
REMARK    6  A    between atoms: C_24  and  C_25 
REMARK    7  A    between atoms: C_25  and  C_26 
ROOT
HETATM    1  C   UNL     1      28.149  50.288  38.915  1.00  0.00     0.161 C 
HETATM    2  C   UNL     1      29.248  49.300  39.476  1.00  0.00     0.019 C 
HETATM    3  C   UNL     1      29.101  49.142  41.009  1.00  0.00     0.045 C 
HETATM    4  C   UNL     1      29.614  50.358  41.779  1.00  0.00     0.236 C 
HETATM    5  N   UNL     1      31.021  50.699  41.369  1.00  0.00    -0.067 N 
HETATM    6  H   UNL     1      31.256  51.595  41.827  1.00  0.00     0.280 HD
HETATM    7  C   UNL     1      31.132  50.957  39.890  1.00  0.00     0.236 C 
HETATM    8  C   UNL     1      30.692  49.722  39.121  1.00  0.00     0.045 C 
HETATM    9  C   UNL     1      28.891  48.000  38.789  1.00  0.00    -0.038 A 
HETATM   10  C   UNL     1      27.664  48.080  38.128  1.00  0.00    -0.026 A 
HETATM   11  C   UNL     1      26.998  49.411  38.318  1.00  0.00     0.148 C 
HETATM   12  C   UNL     1      29.615  46.810  38.775  1.00  0.00     0.009 A 
HETATM   13  C   UNL     1      29.105  45.712  38.079  1.00  0.00     0.001 A 
HETATM   14  C   UNL     1      27.881  45.804  37.406  1.00  0.00     0.001 A 
HETATM   15  C   UNL     1      27.151  46.991  37.431  1.00  0.00     0.010 A 
ENDROOT
BRANCH   1  16
HETATM   16  O   UNL     1      28.745  51.146  37.923  1.00  0.00    -0.387 OA
HETATM   17  C   UNL     1      28.500  52.533  38.158  1.00  0.00     0.202 C 
ENDBRANCH   1  16
BRANCH  11  18
HETATM   18  N   UNL     1      25.843  49.257  39.184  1.00  0.00    -0.350 N 
HETATM   19  C   UNL     1      24.567  49.123  38.680  1.00  0.00     0.223 C 
HETATM   20  O   UNL     1      24.290  49.374  37.509  1.00  0.00    -0.273 OA
HETATM   21  H   UNL     1      26.013  48.941  40.132  1.00  0.00     0.163 HD
BRANCH  19  22
HETATM   22  C   UNL     1      23.536  48.652  39.691  1.00  0.00     0.148 C 
BRANCH  22  23
HETATM   23  C   UNL     1      22.282  49.462  39.589  1.00  0.00    -0.009 A 
HETATM   24  S   UNL     1      20.905  48.841  38.774  1.00  0.00    -0.106 SA
HETATM   25  C   UNL     1      20.030  50.290  39.014  1.00  0.00     0.050 A 
HETATM   26  C   UNL     1      20.765  51.228  39.706  1.00  0.00     0.008 A 
HETATM   27  C   UNL     1      22.063  50.748  40.041  1.00  0.00     0.015 A 
ENDBRANCH  22  23
ENDBRANCH  19  22
ENDBRANCH  11  18
BRANCH   5  28
HETATM   28  C   UNL     1      32.090  49.770  41.906  1.00  0.00     0.276 C 
BRANCH  28  29
HETATM   29  C   UNL     1      33.309  50.491  42.413  1.00  0.00     0.002 A 
HETATM   30  C   UNL     1      33.234  51.320  43.538  1.00  0.00     0.073 A 
HETATM   31  C   UNL     1      34.347  52.019  44.001  1.00  0.00     0.039 A 
HETATM   32  C   UNL     1      35.567  51.881  43.336  1.00  0.00     0.026 A 
HETATM   33  C   UNL     1      35.661  51.052  42.221  1.00  0.00     0.034 A 
HETATM   34 CL   UNL     1      37.167  50.870  41.413  1.00  0.00    -0.084 Cl
HETATM   35  C   UNL     1      34.541  50.362  41.753  1.00  0.00     0.035 A 
BRANCH  30  36
HETATM   36  O   UNL     1      32.035  51.406  44.193  1.00  0.00    -0.360 OA
HETATM   37  H   UNL     1      31.613  52.252  43.941  1.00  0.00     0.217 HD
ENDBRANCH  30  36
ENDBRANCH  28  29
ENDBRANCH   5  28
TORSDOF 7
ENDMDL
MODEL 8
REMARK VINA RESULT:      -8.1      4.823      7.653
REMARK  7 active torsions:
REMARK  status: ('A' for Active; 'I' for Inactive)
REMARK    1  A    between atoms: O_2  and  C_3 
REMARK    2  A    between atoms: N_7  and  C_9 
REMARK    3  A    between atoms: C_9  and  C_10 
REMARK    4  A    between atoms: C_11  and  O_12 
REMARK    5  A    between atoms: C_22  and  N_23 
REMARK       I    between atoms: N_23  and  C_24 
REMARK    6  A    between atoms: C_24  and  C_25 
REMARK    7  A    between atoms: C_25  and  C_26 
ROOT
HETATM    1  C   UNL     1      17.289  49.817  47.976  1.00  0.00     0.161 C 
HETATM    2  C   UNL     1      17.001  51.338  47.655  1.00  0.00     0.019 C 
HETATM    3  C   UNL     1      17.982  52.250  48.430  1.00  0.00     0.045 C 
HETATM    4  C   UNL     1      17.633  52.363  49.913  1.00  0.00     0.236 C 
HETATM    5  N   UNL     1      16.198  52.774  50.098  1.00  0.00    -0.067 N 
HETATM    6  H   UNL     1      15.996  52.707  51.110  1.00  0.00     0.280 HD
HETATM    7  C   UNL     1      15.245  51.819  49.430  1.00  0.00     0.236 C 
HETATM    8  C   UNL     1      15.541  51.760  47.940  1.00  0.00     0.045 C 
HETATM    9  C   UNL     1      17.293  51.412  46.171  1.00  0.00    -0.038 A 
HETATM   10  C   UNL     1      17.893  50.243  45.699  1.00  0.00    -0.026 A 
HETATM   11  C   UNL     1      18.139  49.245  46.792  1.00  0.00     0.148 C 
HETATM   12  C   UNL     1      17.054  52.474  45.302  1.00  0.00     0.009 A 
HETATM   13  C   UNL     1      17.406  52.343  43.957  1.00  0.00     0.001 A 
HETATM   14  C   UNL     1      17.993  51.163  43.488  1.00  0.00     0.001 A 
HETATM   15  C   UNL     1      18.242  50.105  44.360  1.00  0.00     0.010 A 
ENDROOT
BRANCH   1  16
HETATM   16  O   UNL     1      16.037  49.119  48.130  1.00  0.00    -0.387 OA
HETATM   17  C   UNL     1      16.051  47.808  47.566  1.00  0.00     0.202 C 
ENDBRANCH   1  16
BRANCH  11  18
HETATM   18  N   UNL     1      19.563  49.155  47.058  1.00  0.00    -0.350 N 
HETATM   19  C   UNL     1      20.121  48.060  47.682  1.00  0.00     0.223 C 
HETATM   20  O   UNL     1      19.443  47.222  48.273  1.00  0.00    -0.273 OA
HETATM   21  H   UNL     1      20.175  49.751  46.510  1.00  0.00     0.163 HD
BRANCH  19  22
HETATM   22  C   UNL     1      21.634  47.984  47.589  1.00  0.00     0.148 C 
BRANCH  22  23
HETATM   23  C   UNL     1      22.266  49.212  48.166  1.00  0.00    -0.009 A 
HETATM   24  S   UNL     1      21.654  49.914  49.607  1.00  0.00    -0.106 SA
HETATM   25  C   UNL     1      22.774  51.203  49.531  1.00  0.00     0.050 A 
HETATM   26  C   UNL     1      23.604  51.102  48.436  1.00  0.00     0.008 A 
HETATM   27  C   UNL     1      23.313  49.950  47.651  1.00  0.00     0.015 A 
ENDBRANCH  22  23
ENDBRANCH  19  22
ENDBRANCH  11  18
BRANCH   5  28
HETATM   28  C   UNL     1      15.903  54.231  49.805  1.00  0.00     0.276 C 
BRANCH  28  29
HETATM   29  C   UNL     1      14.443  54.512  49.579  1.00  0.00     0.002 A 
HETATM   30  C   UNL     1      13.513  54.345  50.613  1.00  0.00     0.073 A 
HETATM   31  C   UNL     1      12.154  54.571  50.410  1.00  0.00     0.039 A 
HETATM   32  C   UNL     1      11.708  54.986  49.153  1.00  0.00     0.026 A 
HETATM   33  C   UNL     1      12.622  55.166  48.118  1.00  0.00     0.034 A 
HETATM   34 CL   UNL     1      12.076  55.692  46.575  1.00  0.00    -0.084 Cl
HETATM   35  C   UNL     1      13.982  54.928  48.321  1.00  0.00     0.035 A 
BRANCH  30  36
HETATM   36  O   UNL     1      13.982  53.976  51.844  1.00  0.00    -0.360 OA
HETATM   37  H   UNL     1      13.921  53.002  51.912  1.00  0.00     0.217 HD
ENDBRANCH  30  36
ENDBRANCH  28  29
ENDBRANCH   5  28
TORSDOF 7
ENDMDL
MODEL 9
REMARK VINA RESULT:      -8.1     10.713     14.140
REMARK  7 active torsions:
REMARK  status: ('A' for Active; 'I' for Inactive)
REMARK    1  A    between atoms: O_2  and  C_3 
REMARK    2  A    between atoms: N_7  and  C_9 
REMARK    3  A    between atoms: C_9  and  C_10 
REMARK    4  A    between atoms: C_11  and  O_12 
REMARK    5  A    between atoms: C_22  and  N_23 
REMARK       I    between atoms: N_23  and  C_24 
REMARK    6  A    between atoms: C_24  and  C_25 
REMARK    7  A    between atoms: C_25  and  C_26 
ROOT
HETATM    1  C   UNL     1      27.957  50.715  38.967  1.00  0.00     0.161 C 
HETATM    2  C   UNL     1      28.876  49.682  39.734  1.00  0.00     0.019 C 
HETATM    3  C   UNL     1      28.603  49.743  41.257  1.00  0.00     0.045 C 
HETATM    4  C   UNL     1      29.217  50.976  41.916  1.00  0.00     0.236 C 
HETATM    5  N   UNL     1      30.681  51.089  41.589  1.00  0.00    -0.067 N 
HETATM    6  H   UNL     1      31.000  52.002  41.955  1.00  0.00     0.280 HD
HETATM    7  C   UNL     1      30.927  51.138  40.105  1.00  0.00     0.236 C 
HETATM    8  C   UNL     1      30.384  49.876  39.455  1.00  0.00     0.045 C 
HETATM    9  C   UNL     1      28.400  48.356  39.179  1.00  0.00    -0.038 A 
HETATM   10  C   UNL     1      27.243  48.498  38.412  1.00  0.00    -0.026 A 
HETATM   11  C   UNL     1      26.745  49.914  38.384  1.00  0.00     0.148 C 
HETATM   12  C   UNL     1      28.962  47.096  39.369  1.00  0.00     0.009 A 
HETATM   13  C   UNL     1      28.361  45.987  38.769  1.00  0.00     0.001 A 
HETATM   14  C   UNL     1      27.209  46.139  37.989  1.00  0.00     0.001 A 
HETATM   15  C   UNL     1      26.641  47.399  37.809  1.00  0.00     0.010 A 
ENDROOT
BRANCH   1  16
HETATM   16  O   UNL     1      28.727  51.359  37.933  1.00  0.00    -0.387 OA
HETATM   17  C   UNL     1      28.658  52.784  37.985  1.00  0.00     0.202 C 
ENDBRANCH   1  16
BRANCH  11  18
HETATM   18  N   UNL     1      25.522  50.015  39.161  1.00  0.00    -0.350 N 
HETATM   19  C   UNL     1      24.301  49.628  38.651  1.00  0.00     0.223 C 
HETATM   20  O   UNL     1      24.122  49.420  37.453  1.00  0.00    -0.273 OA
HETATM   21  H   UNL     1      25.617  50.075  40.169  1.00  0.00     0.163 HD
BRANCH  19  22
HETATM   22  C   UNL     1      23.200  49.495  39.688  1.00  0.00     0.148 C 
BRANCH  22  23
HETATM   23  C   UNL     1      23.209  48.131  40.303  1.00  0.00    -0.009 A 
HETATM   24  S   UNL     1      21.738  47.336  40.689  1.00  0.00    -0.106 SA
HETATM   25  C   UNL     1      22.563  46.002  41.369  1.00  0.00     0.050 A 
HETATM   26  C   UNL     1      23.931  46.151  41.300  1.00  0.00     0.008 A 
HETATM   27  C   UNL     1      24.303  47.378  40.681  1.00  0.00     0.015 A 
ENDBRANCH  22  23
ENDBRANCH  19  22
ENDBRANCH  11  18
BRANCH   5  28
HETATM   28  C   UNL     1      31.580  50.114  42.322  1.00  0.00     0.276 C 
BRANCH  28  29
HETATM   29  C   UNL     1      32.928  50.687  42.666  1.00  0.00     0.002 A 
HETATM   30  C   UNL     1      33.090  51.517  43.782  1.00  0.00     0.073 A 
HETATM   31  C   UNL     1      34.325  52.080  44.095  1.00  0.00     0.039 A 
HETATM   32  C   UNL     1      35.429  51.802  43.287  1.00  0.00     0.026 A 
HETATM   33  C   UNL     1      35.287  50.970  42.180  1.00  0.00     0.034 A 
HETATM   34 CL   UNL     1      36.650  50.614  41.194  1.00  0.00    -0.084 Cl
HETATM   35  C   UNL     1      34.046  50.416  41.862  1.00  0.00     0.035 A 
BRANCH  30  36
HETATM   36  O   UNL     1      32.000  51.741  44.579  1.00  0.00    -0.360 OA
HETATM   37  H   UNL     1      31.496  52.489  44.198  1.00  0.00     0.217 HD
ENDBRANCH  30  36
ENDBRANCH  28  29
ENDBRANCH   5  28
TORSDOF 7
ENDMDL
MODEL 10
REMARK VINA RESULT:      -8.0      4.802     10.305
REMARK  7 active torsions:
REMARK  status: ('A' for Active; 'I' for Inactive)
REMARK    1  A    between atoms: O_2  and  C_3 
REMARK    2  A    between atoms: N_7  and  C_9 
REMARK    3  A    between atoms: C_9  and  C_10 
REMARK    4  A    between atoms: C_11  and  O_12 
REMARK    5  A    between atoms: C_22  and  N_23 
REMARK       I    between atoms: N_23  and  C_24 
REMARK    6  A    between atoms: C_24  and  C_25 
REMARK    7  A    between atoms: C_25  and  C_26 
ROOT
HETATM    1  C   UNL     1      17.929  49.078  47.066  1.00  0.00     0.161 C 
HETATM    2  C   UNL     1      18.784  49.853  48.146  1.00  0.00     0.019 C 
HETATM    3  C   UNL     1      19.989  50.558  47.477  1.00  0.00     0.045 C 
HETATM    4  C   UNL     1      21.106  49.586  47.101  1.00  0.00     0.236 C 
HETATM    5  N   UNL     1      21.513  48.751  48.284  1.00  0.00    -0.067 N 
HETATM    6  H   UNL     1      22.173  48.036  47.932  1.00  0.00     0.280 HD
HETATM    7  C   UNL     1      20.353  47.984  48.861  1.00  0.00     0.236 C 
HETATM    8  C   UNL     1      19.270  48.954  49.305  1.00  0.00     0.045 C 
HETATM    9  C   UNL     1      17.801  50.887  48.653  1.00  0.00    -0.038 A 
HETATM   10  C   UNL     1      16.643  50.929  47.874  1.00  0.00    -0.026 A 
HETATM   11  C   UNL     1      16.700  49.982  46.711  1.00  0.00     0.148 C 
HETATM   12  C   UNL     1      17.946  51.750  49.735  1.00  0.00     0.009 A 
HETATM   13  C   UNL     1      16.913  52.641  50.037  1.00  0.00     0.001 A 
HETATM   14  C   UNL     1      15.749  52.668  49.260  1.00  0.00     0.001 A 
HETATM   15  C   UNL     1      15.610  51.811  48.170  1.00  0.00     0.010 A 
ENDROOT
BRANCH   1  16
HETATM   16  O   UNL     1      17.526  47.804  47.605  1.00  0.00    -0.387 OA
HETATM   17  C   UNL     1      17.361  46.797  46.606  1.00  0.00     0.202 C 
ENDBRANCH   1  16
BRANCH  11  18
HETATM   18  N   UNL     1      16.839  50.734  45.477  1.00  0.00    -0.350 N 
HETATM   19  C   UNL     1      16.346  50.264  44.278  1.00  0.00     0.223 C 
HETATM   20  O   UNL     1      15.994  49.097  44.122  1.00  0.00    -0.273 OA
HETATM   21  H   UNL     1      17.018  51.729  45.558  1.00  0.00     0.163 HD
BRANCH  19  22
HETATM   22  C   UNL     1      16.286  51.302  43.172  1.00  0.00     0.148 C 
BRANCH  22  23
HETATM   23  C   UNL     1      17.585  51.368  42.432  1.00  0.00    -0.009 A 
HETATM   24  S   UNL     1      17.838  52.549  41.214  1.00  0.00    -0.106 SA
HETATM   25  C   UNL     1      19.389  51.930  40.846  1.00  0.00     0.050 A 
HETATM   26  C   UNL     1      19.714  50.850  41.636  1.00  0.00     0.008 A 
HETATM   27  C   UNL     1      18.675  50.529  42.555  1.00  0.00     0.015 A 
ENDBRANCH  22  23
ENDBRANCH  19  22
ENDBRANCH  11  18
BRANCH   5  28
HETATM   28  C   UNL     1      22.343  49.473  49.326  1.00  0.00     0.276 C 
BRANCH  28  29
HETATM   29  C   UNL     1      23.807  49.132  49.265  1.00  0.00     0.002 A 
HETATM   30  C   UNL     1      24.670  49.831  48.412  1.00  0.00     0.073 A 
HETATM   31  C   UNL     1      26.021  49.506  48.321  1.00  0.00     0.039 A 
HETATM   32  C   UNL     1      26.531  48.470  49.107  1.00  0.00     0.026 A 
HETATM   33  C   UNL     1      25.688  47.772  49.968  1.00  0.00     0.034 A 
HETATM   34 CL   UNL     1      26.318  46.508  50.946  1.00  0.00    -0.084 Cl
HETATM   35  C   UNL     1      24.332  48.093  50.048  1.00  0.00     0.035 A 
BRANCH  30  36
HETATM   36  O   UNL     1      24.151  50.867  47.684  1.00  0.00    -0.360 OA
HETATM   37  H   UNL     1      24.499  51.703  48.057  1.00  0.00     0.217 HD
ENDBRANCH  30  36
ENDBRANCH  28  29
ENDBRANCH   5  28
TORSDOF 7
ENDMDL
