MODEL 1
REMARK VINA RESULT:      -8.3      0.000      0.000
REMARK  5 active torsions:
REMARK  status: ('A' for Active; 'I' for Inactive)
REMARK    1  A    between atoms: C_8  and  N_9 
REMARK       I    between atoms: N_9  and  C_10 
REMARK    2  A    between atoms: C_10  and  C_11 
REMARK    3  A    between atoms: C_11  and  N_12 
REMARK    4  A    between atoms: N_12  and  C_13 
REMARK    5  A    between atoms: C_13  and  C_14 
ROOT
HETATM    1  C   UNL     1      25.757  45.289  52.017  1.00  0.00     0.372 C 
ENDROOT
BRANCH   1   2
HETATM    2  C   UNL     1      25.557  46.754  51.598  1.00  0.00     0.250 C 
HETATM    3  N   UNL     1      25.500  46.896  50.228  1.00  0.00    -0.322 N 
HETATM    4  H   UNL     1      25.698  46.043  49.710  1.00  0.00     0.169 HD
HETATM    5  O   UNL     1      25.421  47.630  52.444  1.00  0.00    -0.271 OA
BRANCH   3   6
HETATM    6  C   UNL     1      25.255  48.044  49.498  1.00  0.00     0.085 A 
HETATM    7  C   UNL     1      26.287  48.846  49.046  1.00  0.00     0.052 A 
HETATM    8  C   UNL     1      27.759  48.752  49.182  1.00  0.00     0.072 C 
HETATM    9  N   UNL     1      25.694  49.874  48.371  1.00  0.00    -0.280 N 
HETATM   10  H   UNL     1      26.139  50.655  47.904  1.00  0.00     0.189 HD
HETATM   11  N   UNL     1      24.361  49.802  48.341  1.00  0.00    -0.177 NA
HETATM   12  C   UNL     1      24.072  48.683  49.023  1.00  0.00     0.079 A 
HETATM   13  C   UNL     1      22.645  48.297  49.154  1.00  0.00     0.075 C 
ENDBRANCH   3   6
ENDBRANCH   1   2
BRANCH   1  14
HETATM   14  N   UNL     1      27.098  45.098  52.619  1.00  0.00     0.101 N 
HETATM   15  H   UNL     1      27.651  45.928  52.383  1.00  0.00     0.317 HD
BRANCH  14  16
HETATM   16  C   UNL     1      27.041  45.001  54.091  1.00  0.00     0.254 C 
HETATM   17  C   UNL     1      25.986  44.004  54.590  1.00  0.00     0.048 C 
BRANCH  16  18
HETATM   18  C   UNL     1      28.400  44.661  54.684  1.00  0.00     0.035 A 
HETATM   19  C   UNL     1      29.094  43.453  54.486  1.00  0.00     0.045 A 
HETATM   20 CL   UNL     1      28.495  42.173  53.491  1.00  0.00    -0.084 Cl
HETATM   21  C   UNL     1      30.332  43.225  55.109  1.00  0.00     0.024 A 
HETATM   22  C   UNL     1      30.897  44.187  55.943  1.00  0.00     0.005 A 
HETATM   23  C   UNL     1      30.224  45.382  56.160  1.00  0.00     0.043 A 
HETATM   24  C   UNL     1      28.997  45.604  55.538  1.00  0.00     0.126 A 
HETATM   25  F   UNL     1      28.375  46.767  55.788  1.00  0.00    -0.205 F 
ENDBRANCH  16  18
ENDBRANCH  14  16
ENDBRANCH   1  14
TORSDOF 5
ENDMDL
MODEL 2
REMARK VINA RESULT:      -8.2      0.996      1.999
REMARK  5 active torsions:
REMARK  status: ('A' for Active; 'I' for Inactive)
REMARK    1  A    between atoms: C_8  and  N_9 
REMARK       I    between atoms: N_9  and  C_10 
REMARK    2  A    between atoms: C_10  and  C_11 
REMARK    3  A    between atoms: C_11  and  N_12 
REMARK    4  A    between atoms: N_12  and  C_13 
REMARK    5  A    between atoms: C_13  and  C_14 
ROOT
HETATM    1  C   UNL     1      25.526  45.525  51.626  1.00  0.00     0.372 C 
ENDROOT
BRANCH   1   2
HETATM    2  C   UNL     1      25.804  46.276  50.316  1.00  0.00     0.250 C 
HETATM    3  N   UNL     1      25.248  47.538  50.315  1.00  0.00    -0.322 N 
HETATM    4  H   UNL     1      24.662  47.738  51.123  1.00  0.00     0.169 HD
HETATM    5  O   UNL     1      26.493  45.766  49.440  1.00  0.00    -0.271 OA
BRANCH   3   6
HETATM    6  C   UNL     1      25.356  48.519  49.347  1.00  0.00     0.085 A 
HETATM    7  C   UNL     1      24.240  49.028  48.708  1.00  0.00     0.052 A 
HETATM    8  C   UNL     1      22.795  48.729  48.830  1.00  0.00     0.072 C 
HETATM    9  N   UNL     1      24.706  49.964  47.830  1.00  0.00    -0.280 N 
HETATM   10  H   UNL     1      24.174  50.541  47.189  1.00  0.00     0.189 HD
HETATM   11  N   UNL     1      26.034  50.110  47.851  1.00  0.00    -0.177 NA
HETATM   12  C   UNL     1      26.450  49.235  48.779  1.00  0.00     0.079 A 
HETATM   13  C   UNL     1      27.905  49.167  49.068  1.00  0.00     0.075 C 
ENDBRANCH   3   6
ENDBRANCH   1   2
BRANCH   1  14
HETATM   14  N   UNL     1      26.791  45.037  52.227  1.00  0.00     0.101 N 
HETATM   15  H   UNL     1      27.532  45.670  51.910  1.00  0.00     0.317 HD
BRANCH  14  16
HETATM   16  C   UNL     1      26.761  45.081  53.701  1.00  0.00     0.254 C 
HETATM   17  C   UNL     1      25.591  44.293  54.306  1.00  0.00     0.048 C 
BRANCH  16  18
HETATM   18  C   UNL     1      28.076  44.605  54.303  1.00  0.00     0.035 A 
HETATM   19  C   UNL     1      28.637  43.327  54.122  1.00  0.00     0.045 A 
HETATM   20 CL   UNL     1      27.906  42.106  53.141  1.00  0.00    -0.084 Cl
HETATM   21  C   UNL     1      29.843  42.976  54.750  1.00  0.00     0.024 A 
HETATM   22  C   UNL     1      30.506  43.883  55.575  1.00  0.00     0.005 A 
HETATM   23  C   UNL     1      29.965  45.145  55.775  1.00  0.00     0.043 A 
HETATM   24  C   UNL     1      28.769  45.490  55.147  1.00  0.00     0.126 A 
HETATM   25  F   UNL     1      28.275  46.715  55.380  1.00  0.00    -0.205 F 
ENDBRANCH  16  18
ENDBRANCH  14  16
ENDBRANCH   1  14
TORSDOF 5
ENDMDL
MODEL 3
REMARK VINA RESULT:      -8.0      1.933      2.226
REMARK  5 active torsions:
REMARK  status: ('A' for Active; 'I' for Inactive)
REMARK    1  A    between atoms: C_8  and  N_9 
REMARK       I    between atoms: N_9  and  C_10 
REMARK    2  A    between atoms: C_10  and  C_11 
REMARK    3  A    between atoms: C_11  and  N_12 
REMARK    4  A    between atoms: N_12  and  C_13 
REMARK    5  A    between atoms: C_13  and  C_14 
ROOT
HETATM    1  C   UNL     1      25.106  45.730  51.657  1.00  0.00     0.372 C 
ENDROOT
BRANCH   1   2
HETATM    2  C   UNL     1      25.111  46.363  50.257  1.00  0.00     0.250 C 
HETATM    3  N   UNL     1      24.976  47.734  50.309  1.00  0.00    -0.322 N 
HETATM    4  H   UNL     1      24.792  48.102  51.241  1.00  0.00     0.169 HD
HETATM    5  O   UNL     1      25.274  45.668  49.261  1.00  0.00    -0.271 OA
BRANCH   3   6
HETATM    6  C   UNL     1      25.015  48.637  49.263  1.00  0.00     0.085 A 
HETATM    7  C   UNL     1      26.209  49.162  48.806  1.00  0.00     0.052 A 
HETATM    8  C   UNL     1      27.615  48.964  49.230  1.00  0.00     0.072 C 
HETATM    9  N   UNL     1      25.882  50.002  47.781  1.00  0.00    -0.280 N 
HETATM   10  H   UNL     1      26.502  50.563  47.209  1.00  0.00     0.189 HD
HETATM   11  N   UNL     1      24.572  50.060  47.528  1.00  0.00    -0.177 NA
HETATM   12  C   UNL     1      24.023  49.225  48.424  1.00  0.00     0.079 A 
HETATM   13  C   UNL     1      22.550  49.041  48.391  1.00  0.00     0.075 C 
ENDBRANCH   3   6
ENDBRANCH   1   2
BRANCH   1  14
HETATM   14  N   UNL     1      26.487  45.609  52.180  1.00  0.00     0.101 N 
HETATM   15  H   UNL     1      26.945  46.512  52.022  1.00  0.00     0.317 HD
BRANCH  14  16
HETATM   16  C   UNL     1      26.513  45.340  53.631  1.00  0.00     0.254 C 
HETATM   17  C   UNL     1      25.293  44.549  54.121  1.00  0.00     0.048 C 
BRANCH  16  18
HETATM   18  C   UNL     1      27.795  44.632  54.048  1.00  0.00     0.035 A 
HETATM   19  C   UNL     1      28.709  45.105  55.006  1.00  0.00     0.045 A 
HETATM   20 CL   UNL     1      28.480  46.577  55.884  1.00  0.00    -0.084 Cl
HETATM   21  C   UNL     1      29.883  44.389  55.295  1.00  0.00     0.024 A 
HETATM   22  C   UNL     1      30.171  43.198  54.632  1.00  0.00     0.005 A 
HETATM   23  C   UNL     1      29.286  42.718  53.676  1.00  0.00     0.043 A 
HETATM   24  C   UNL     1      28.122  43.431  53.394  1.00  0.00     0.126 A 
HETATM   25  F   UNL     1      27.303  42.939  52.453  1.00  0.00    -0.205 F 
ENDBRANCH  16  18
ENDBRANCH  14  16
ENDBRANCH   1  14
TORSDOF 5
ENDMDL
MODEL 4
REMARK VINA RESULT:      -7.8      2.641      3.541
REMARK  5 active torsions:
REMARK  status: ('A' for Active; 'I' for Inactive)
REMARK    1  A    between atoms: C_8  and  N_9 
REMARK       I    between atoms: N_9  and  C_10 
REMARK    2  A    between atoms: C_10  and  C_11 
REMARK    3  A    between atoms: C_11  and  N_12 
REMARK    4  A    between atoms: N_12  and  C_13 
REMARK    5  A    between atoms: C_13  and  C_14 
ROOT
HETATM    1  C   UNL     1      27.327  42.941  51.723  1.00  0.00     0.372 C 
ENDROOT
BRANCH   1   2
HETATM    2  C   UNL     1      26.638  43.741  50.607  1.00  0.00     0.250 C 
HETATM    3  N   UNL     1      25.473  44.336  51.041  1.00  0.00    -0.322 N 
HETATM    4  H   UNL     1      25.196  44.076  51.986  1.00  0.00     0.169 HD
HETATM    5  O   UNL     1      27.154  43.835  49.500  1.00  0.00    -0.271 OA
BRANCH   3   6
HETATM    6  C   UNL     1      24.636  45.186  50.343  1.00  0.00     0.085 A 
HETATM    7  C   UNL     1      23.409  44.762  49.867  1.00  0.00     0.052 A 
HETATM    8  C   UNL     1      22.706  43.459  49.935  1.00  0.00     0.072 C 
HETATM    9  N   UNL     1      22.857  45.841  49.239  1.00  0.00    -0.280 N 
HETATM   10  H   UNL     1      21.961  45.901  48.769  1.00  0.00     0.189 HD
HETATM   11  N   UNL     1      23.621  46.935  49.274  1.00  0.00    -0.177 NA
HETATM   12  C   UNL     1      24.715  46.556  49.952  1.00  0.00     0.079 A 
HETATM   13  C   UNL     1      25.772  47.570  50.191  1.00  0.00     0.075 C 
ENDBRANCH   3   6
ENDBRANCH   1   2
BRANCH   1  14
HETATM   14  N   UNL     1      28.330  43.780  52.423  1.00  0.00     0.101 N 
HETATM   15  H   UNL     1      28.505  44.593  51.825  1.00  0.00     0.317 HD
BRANCH  14  16
HETATM   16  C   UNL     1      27.835  44.273  53.722  1.00  0.00     0.254 C 
HETATM   17  C   UNL     1      26.687  43.429  54.293  1.00  0.00     0.048 C 
BRANCH  16  18
HETATM   18  C   UNL     1      28.957  44.385  54.744  1.00  0.00     0.035 A 
HETATM   19  C   UNL     1      29.262  45.536  55.494  1.00  0.00     0.045 A 
HETATM   20 CL   UNL     1      28.361  47.006  55.374  1.00  0.00    -0.084 Cl
HETATM   21  C   UNL     1      30.344  45.544  56.390  1.00  0.00     0.024 A 
HETATM   22  C   UNL     1      31.144  44.415  56.550  1.00  0.00     0.005 A 
HETATM   23  C   UNL     1      30.866  43.272  55.813  1.00  0.00     0.043 A 
HETATM   24  C   UNL     1      29.791  43.268  54.927  1.00  0.00     0.126 A 
HETATM   25  F   UNL     1      29.568  42.147  54.224  1.00  0.00    -0.205 F 
ENDBRANCH  16  18
ENDBRANCH  14  16
ENDBRANCH   1  14
TORSDOF 5
ENDMDL
MODEL 5
REMARK VINA RESULT:      -7.6      2.209      3.132
REMARK  5 active torsions:
REMARK  status: ('A' for Active; 'I' for Inactive)
REMARK    1  A    between atoms: C_8  and  N_9 
REMARK       I    between atoms: N_9  and  C_10 
REMARK    2  A    between atoms: C_10  and  C_11 
REMARK    3  A    between atoms: C_11  and  N_12 
REMARK    4  A    between atoms: N_12  and  C_13 
REMARK    5  A    between atoms: C_13  and  C_14 
ROOT
HETATM    1  C   UNL     1      26.841  43.938  53.713  1.00  0.00     0.372 C 
ENDROOT
BRANCH   1   2
HETATM    2  C   UNL     1      25.531  44.434  53.083  1.00  0.00     0.250 C 
HETATM    3  N   UNL     1      25.636  44.575  51.716  1.00  0.00    -0.322 N 
HETATM    4  H   UNL     1      26.576  44.432  51.351  1.00  0.00     0.169 HD
HETATM    5  O   UNL     1      24.536  44.612  53.775  1.00  0.00    -0.271 OA
BRANCH   3   6
HETATM    6  C   UNL     1      24.648  44.924  50.814  1.00  0.00     0.085 A 
HETATM    7  C   UNL     1      24.544  46.210  50.318  1.00  0.00     0.052 A 
HETATM    8  C   UNL     1      25.331  47.442  50.561  1.00  0.00     0.072 C 
HETATM    9  N   UNL     1      23.477  46.198  49.467  1.00  0.00    -0.280 N 
HETATM   10  H   UNL     1      23.102  46.966  48.922  1.00  0.00     0.189 HD
HETATM   11  N   UNL     1      22.883  45.007  49.361  1.00  0.00    -0.177 NA
HETATM   12  C   UNL     1      23.590  44.209  50.177  1.00  0.00     0.079 A 
HETATM   13  C   UNL     1      23.194  42.782  50.270  1.00  0.00     0.075 C 
ENDBRANCH   3   6
ENDBRANCH   1   2
BRANCH   1  14
HETATM   14  N   UNL     1      27.152  44.706  54.943  1.00  0.00     0.101 N 
HETATM   15  H   UNL     1      27.306  44.021  55.689  1.00  0.00     0.317 HD
BRANCH  14  16
HETATM   16  C   UNL     1      28.384  45.505  54.804  1.00  0.00     0.254 C 
HETATM   17  C   UNL     1      28.133  47.018  54.856  1.00  0.00     0.048 C 
BRANCH  16  18
HETATM   18  C   UNL     1      29.426  45.115  55.844  1.00  0.00     0.035 A 
HETATM   19  C   UNL     1      30.402  44.115  55.680  1.00  0.00     0.045 A 
HETATM   20 CL   UNL     1      30.574  43.193  54.228  1.00  0.00    -0.084 Cl
HETATM   21  C   UNL     1      31.298  43.809  56.717  1.00  0.00     0.024 A 
HETATM   22  C   UNL     1      31.235  44.483  57.935  1.00  0.00     0.005 A 
HETATM   23  C   UNL     1      30.273  45.466  58.121  1.00  0.00     0.043 A 
HETATM   24  C   UNL     1      29.387  45.768  57.088  1.00  0.00     0.126 A 
HETATM   25  F   UNL     1      28.464  46.715  57.316  1.00  0.00    -0.205 F 
ENDBRANCH  16  18
ENDBRANCH  14  16
ENDBRANCH   1  14
TORSDOF 5
ENDMDL
MODEL 6
REMARK VINA RESULT:      -7.5      3.619      5.312
REMARK  5 active torsions:
REMARK  status: ('A' for Active; 'I' for Inactive)
REMARK    1  A    between atoms: C_8  and  N_9 
REMARK       I    between atoms: N_9  and  C_10 
REMARK    2  A    between atoms: C_10  and  C_11 
REMARK    3  A    between atoms: C_11  and  N_12 
REMARK    4  A    between atoms: N_12  and  C_13 
REMARK    5  A    between atoms: C_13  and  C_14 
ROOT
HETATM    1  C   UNL     1      25.935  44.408  52.217  1.00  0.00     0.372 C 
ENDROOT
BRANCH   1   2
HETATM    2  C   UNL     1      26.298  43.572  50.980  1.00  0.00     0.250 C 
HETATM    3  N   UNL     1      25.862  42.269  51.090  1.00  0.00    -0.322 N 
HETATM    4  H   UNL     1      25.466  42.035  51.998  1.00  0.00     0.169 HD
HETATM    5  O   UNL     1      26.865  44.090  50.025  1.00  0.00    -0.271 OA
BRANCH   3   6
HETATM    6  C   UNL     1      25.941  41.260  50.149  1.00  0.00     0.085 A 
HETATM    7  C   UNL     1      24.948  41.074  49.204  1.00  0.00     0.052 A 
HETATM    8  C   UNL     1      23.674  41.783  48.941  1.00  0.00     0.072 C 
HETATM    9  N   UNL     1      25.345  40.010  48.448  1.00  0.00    -0.280 N 
HETATM   10  H   UNL     1      24.865  39.586  47.662  1.00  0.00     0.189 HD
HETATM   11  N   UNL     1      26.519  39.492  48.818  1.00  0.00    -0.177 NA
HETATM   12  C   UNL     1      26.903  40.248  49.858  1.00  0.00     0.079 A 
HETATM   13  C   UNL     1      28.208  39.943  50.496  1.00  0.00     0.075 C 
ENDBRANCH   3   6
ENDBRANCH   1   2
BRANCH   1  14
HETATM   14  N   UNL     1      27.154  44.984  52.833  1.00  0.00     0.101 N 
HETATM   15  H   UNL     1      27.163  45.981  52.599  1.00  0.00     0.317 HD
BRANCH  14  16
HETATM   16  C   UNL     1      27.144  44.868  54.304  1.00  0.00     0.254 C 
HETATM   17  C   UNL     1      26.157  43.812  54.821  1.00  0.00     0.048 C 
BRANCH  16  18
HETATM   18  C   UNL     1      28.537  44.593  54.855  1.00  0.00     0.035 A 
HETATM   19  C   UNL     1      29.302  43.442  54.592  1.00  0.00     0.045 A 
HETATM   20 CL   UNL     1      28.762  42.166  53.557  1.00  0.00    -0.084 Cl
HETATM   21  C   UNL     1      30.566  43.270  55.179  1.00  0.00     0.024 A 
HETATM   22  C   UNL     1      31.087  44.232  56.042  1.00  0.00     0.005 A 
HETATM   23  C   UNL     1      30.344  45.370  56.322  1.00  0.00     0.043 A 
HETATM   24  C   UNL     1      29.091  45.538  55.736  1.00  0.00     0.126 A 
HETATM   25  F   UNL     1      28.402  46.646  56.046  1.00  0.00    -0.205 F 
ENDBRANCH  16  18
ENDBRANCH  14  16
ENDBRANCH   1  14
TORSDOF 5
ENDMDL
MODEL 7
REMARK VINA RESULT:      -7.4      3.199      4.349
REMARK  5 active torsions:
REMARK  status: ('A' for Active; 'I' for Inactive)
REMARK    1  A    between atoms: C_8  and  N_9 
REMARK       I    between atoms: N_9  and  C_10 
REMARK    2  A    between atoms: C_10  and  C_11 
REMARK    3  A    between atoms: C_11  and  N_12 
REMARK    4  A    between atoms: N_12  and  C_13 
REMARK    5  A    between atoms: C_13  and  C_14 
ROOT
HETATM    1  C   UNL     1      25.979  45.388  52.120  1.00  0.00     0.372 C 
ENDROOT
BRANCH   1   2
HETATM    2  C   UNL     1      25.062  44.433  51.341  1.00  0.00     0.250 C 
HETATM    3  N   UNL     1      25.774  43.591  50.514  1.00  0.00    -0.322 N 
HETATM    4  H   UNL     1      26.771  43.794  50.468  1.00  0.00     0.169 HD
HETATM    5  O   UNL     1      23.850  44.445  51.526  1.00  0.00    -0.271 OA
BRANCH   3   6
HETATM    6  C   UNL     1      25.296  42.560  49.727  1.00  0.00     0.085 A 
HETATM    7  C   UNL     1      25.685  41.250  49.939  1.00  0.00     0.052 A 
HETATM    8  C   UNL     1      26.604  40.626  50.920  1.00  0.00     0.072 C 
HETATM    9  N   UNL     1      25.031  40.508  49.000  1.00  0.00    -0.280 N 
HETATM   10  H   UNL     1      25.074  39.506  48.851  1.00  0.00     0.189 HD
HETATM   11  N   UNL     1      24.240  41.226  48.198  1.00  0.00    -0.177 NA
HETATM   12  C   UNL     1      24.386  42.488  48.632  1.00  0.00     0.079 A 
HETATM   13  C   UNL     1      23.605  43.552  47.952  1.00  0.00     0.075 C 
ENDBRANCH   3   6
ENDBRANCH   1   2
BRANCH   1  14
HETATM   14  N   UNL     1      27.116  44.647  52.717  1.00  0.00     0.101 N 
HETATM   15  H   UNL     1      27.972  45.100  52.385  1.00  0.00     0.317 HD
BRANCH  14  16
HETATM   16  C   UNL     1      27.113  44.715  54.191  1.00  0.00     0.254 C 
HETATM   17  C   UNL     1      26.117  43.743  54.839  1.00  0.00     0.048 C 
BRANCH  16  18
HETATM   18  C   UNL     1      28.505  44.493  54.766  1.00  0.00     0.035 A 
HETATM   19  C   UNL     1      29.276  43.328  54.599  1.00  0.00     0.045 A 
HETATM   20 CL   UNL     1      28.746  41.970  53.671  1.00  0.00    -0.084 Cl
HETATM   21  C   UNL     1      30.540  43.211  55.201  1.00  0.00     0.024 A 
HETATM   22  C   UNL     1      31.054  44.243  55.983  1.00  0.00     0.005 A 
HETATM   23  C   UNL     1      30.305  45.397  56.168  1.00  0.00     0.043 A 
HETATM   24  C   UNL     1      29.053  45.509  55.567  1.00  0.00     0.126 A 
HETATM   25  F   UNL     1      28.357  46.636  55.785  1.00  0.00    -0.205 F 
ENDBRANCH  16  18
ENDBRANCH  14  16
ENDBRANCH   1  14
TORSDOF 5
ENDMDL
MODEL 8
REMARK VINA RESULT:      -7.4     12.243     14.202
REMARK  5 active torsions:
REMARK  status: ('A' for Active; 'I' for Inactive)
REMARK    1  A    between atoms: C_8  and  N_9 
REMARK       I    between atoms: N_9  and  C_10 
REMARK    2  A    between atoms: C_10  and  C_11 
REMARK    3  A    between atoms: C_11  and  N_12 
REMARK    4  A    between atoms: N_12  and  C_13 
REMARK    5  A    between atoms: C_13  and  C_14 
ROOT
HETATM    1  C   UNL     1      28.499  52.082  41.388  1.00  0.00     0.372 C 
ENDROOT
BRANCH   1   2
HETATM    2  C   UNL     1      29.955  52.568  41.332  1.00  0.00     0.250 C 
HETATM    3  N   UNL     1      30.821  51.674  41.925  1.00  0.00    -0.322 N 
HETATM    4  H   UNL     1      30.363  50.894  42.391  1.00  0.00     0.169 HD
HETATM    5  O   UNL     1      30.240  53.616  40.764  1.00  0.00    -0.271 OA
BRANCH   3   6
HETATM    6  C   UNL     1      32.200  51.740  41.995  1.00  0.00     0.085 A 
HETATM    7  C   UNL     1      32.860  51.796  43.209  1.00  0.00     0.052 A 
HETATM    8  C   UNL     1      32.376  51.810  44.610  1.00  0.00     0.072 C 
HETATM    9  N   UNL     1      34.190  51.849  42.911  1.00  0.00    -0.280 N 
HETATM   10  H   UNL     1      34.974  51.900  43.551  1.00  0.00     0.189 HD
HETATM   11  N   UNL     1      34.452  51.823  41.601  1.00  0.00    -0.177 NA
HETATM   12  C   UNL     1      33.243  51.751  41.022  1.00  0.00     0.079 A 
HETATM   13  C   UNL     1      33.185  51.681  39.541  1.00  0.00     0.075 C 
ENDBRANCH   3   6
ENDBRANCH   1   2
BRANCH   1  14
HETATM   14  N   UNL     1      27.921  52.011  40.024  1.00  0.00     0.101 N 
HETATM   15  H   UNL     1      28.655  52.308  39.375  1.00  0.00     0.317 HD
BRANCH  14  16
HETATM   16  C   UNL     1      27.524  50.638  39.658  1.00  0.00     0.254 C 
HETATM   17  C   UNL     1      26.758  50.564  38.330  1.00  0.00     0.048 C 
BRANCH  16  18
HETATM   18  C   UNL     1      28.722  49.699  39.620  1.00  0.00     0.035 A 
HETATM   19  C   UNL     1      29.878  49.888  38.841  1.00  0.00     0.045 A 
HETATM   20 CL   UNL     1      30.113  51.262  37.819  1.00  0.00    -0.084 Cl
HETATM   21  C   UNL     1      30.915  48.941  38.854  1.00  0.00     0.024 A 
HETATM   22  C   UNL     1      30.819  47.790  39.632  1.00  0.00     0.005 A 
HETATM   23  C   UNL     1      29.682  47.579  40.401  1.00  0.00     0.043 A 
HETATM   24  C   UNL     1      28.657  48.523  40.387  1.00  0.00     0.126 A 
HETATM   25  F   UNL     1      27.570  48.272  41.133  1.00  0.00    -0.205 F 
ENDBRANCH  16  18
ENDBRANCH  14  16
ENDBRANCH   1  14
TORSDOF 5
ENDMDL
MODEL 9
REMARK VINA RESULT:      -7.3      6.102     10.355
REMARK  5 active torsions:
REMARK  status: ('A' for Active; 'I' for Inactive)
REMARK    1  A    between atoms: C_8  and  N_9 
REMARK       I    between atoms: N_9  and  C_10 
REMARK    2  A    between atoms: C_10  and  C_11 
REMARK    3  A    between atoms: C_11  and  N_12 
REMARK    4  A    between atoms: N_12  and  C_13 
REMARK    5  A    between atoms: C_13  and  C_14 
ROOT
HETATM    1  C   UNL     1      20.064  47.320  48.588  1.00  0.00     0.372 C 
ENDROOT
BRANCH   1   2
HETATM    2  C   UNL     1      21.531  47.568  48.206  1.00  0.00     0.250 C 
HETATM    3  N   UNL     1      22.257  48.091  49.255  1.00  0.00    -0.322 N 
HETATM    4  H   UNL     1      21.700  48.326  50.074  1.00  0.00     0.169 HD
HETATM    5  O   UNL     1      21.945  47.262  47.094  1.00  0.00    -0.271 OA
BRANCH   3   6
HETATM    6  C   UNL     1      23.611  48.367  49.304  1.00  0.00     0.085 A 
HETATM    7  C   UNL     1      24.145  49.472  48.668  1.00  0.00     0.052 A 
HETATM    8  C   UNL     1      23.537  50.547  47.851  1.00  0.00     0.072 C 
HETATM    9  N   UNL     1      25.486  49.438  48.922  1.00  0.00    -0.280 N 
HETATM   10  H   UNL     1      26.199  50.089  48.614  1.00  0.00     0.189 HD
HETATM   11  N   UNL     1      25.867  48.404  49.677  1.00  0.00    -0.177 NA
HETATM   12  C   UNL     1      24.729  47.738  49.927  1.00  0.00     0.079 A 
HETATM   13  C   UNL     1      24.806  46.526  50.780  1.00  0.00     0.075 C 
ENDBRANCH   3   6
ENDBRANCH   1   2
BRANCH   1  14
HETATM   14  N   UNL     1      19.229  48.495  48.241  1.00  0.00     0.101 N 
HETATM   15  H   UNL     1      18.770  48.280  47.351  1.00  0.00     0.317 HD
BRANCH  14  16
HETATM   16  C   UNL     1      18.175  48.746  49.242  1.00  0.00     0.254 C 
HETATM   17  C   UNL     1      18.585  48.343  50.666  1.00  0.00     0.048 C 
BRANCH  16  18
HETATM   18  C   UNL     1      17.718  50.198  49.224  1.00  0.00     0.035 A 
HETATM   19  C   UNL     1      18.500  51.301  49.612  1.00  0.00     0.045 A 
HETATM   20 CL   UNL     1      20.137  51.155  50.147  1.00  0.00    -0.084 Cl
HETATM   21  C   UNL     1      17.970  52.601  49.589  1.00  0.00     0.024 A 
HETATM   22  C   UNL     1      16.655  52.827  49.189  1.00  0.00     0.005 A 
HETATM   23  C   UNL     1      15.863  51.751  48.811  1.00  0.00     0.043 A 
HETATM   24  C   UNL     1      16.394  50.463  48.833  1.00  0.00     0.126 A 
HETATM   25  F   UNL     1      15.589  49.451  48.474  1.00  0.00    -0.205 F 
ENDBRANCH  16  18
ENDBRANCH  14  16
ENDBRANCH   1  14
TORSDOF 5
ENDMDL
MODEL 10
REMARK VINA RESULT:      -7.2      5.922     10.159
REMARK  5 active torsions:
REMARK  status: ('A' for Active; 'I' for Inactive)
REMARK    1  A    between atoms: C_8  and  N_9 
REMARK       I    between atoms: N_9  and  C_10 
REMARK    2  A    between atoms: C_10  and  C_11 
REMARK    3  A    between atoms: C_11  and  N_12 
REMARK    4  A    between atoms: N_12  and  C_13 
REMARK    5  A    between atoms: C_13  and  C_14 
ROOT
HETATM    1  C   UNL     1      20.549  47.324  48.768  1.00  0.00     0.372 C 
ENDROOT
BRANCH   1   2
HETATM    2  C   UNL     1      22.021  47.520  48.373  1.00  0.00     0.250 C 
HETATM    3  N   UNL     1      22.803  47.876  49.451  1.00  0.00    -0.322 N 
HETATM    4  H   UNL     1      22.281  48.053  50.307  1.00  0.00     0.169 HD
HETATM    5  O   UNL     1      22.388  47.315  47.222  1.00  0.00    -0.271 OA
BRANCH   3   6
HETATM    6  C   UNL     1      24.173  48.060  49.489  1.00  0.00     0.085 A 
HETATM    7  C   UNL     1      24.996  47.203  50.197  1.00  0.00     0.052 A 
HETATM    8  C   UNL     1      24.719  46.003  51.020  1.00  0.00     0.072 C 
HETATM    9  N   UNL     1      26.266  47.672  50.018  1.00  0.00    -0.280 N 
HETATM   10  H   UNL     1      27.130  47.297  50.391  1.00  0.00     0.189 HD
HETATM   11  N   UNL     1      26.337  48.759  49.245  1.00  0.00    -0.177 NA
HETATM   12  C   UNL     1      25.062  49.010  48.906  1.00  0.00     0.079 A 
HETATM   13  C   UNL     1      24.795  50.164  48.012  1.00  0.00     0.075 C 
ENDBRANCH   3   6
ENDBRANCH   1   2
BRANCH   1  14
HETATM   14  N   UNL     1      20.115  48.386  49.706  1.00  0.00     0.101 N 
HETATM   15  H   UNL     1      20.125  49.267  49.182  1.00  0.00     0.317 HD
BRANCH  14  16
HETATM   16  C   UNL     1      18.741  48.170  50.196  1.00  0.00     0.254 C 
HETATM   17  C   UNL     1      18.549  48.585  51.662  1.00  0.00     0.048 C 
BRANCH  16  18
HETATM   18  C   UNL     1      17.714  48.872  49.318  1.00  0.00     0.035 A 
HETATM   19  C   UNL     1      17.631  50.262  49.118  1.00  0.00     0.045 A 
HETATM   20 CL   UNL     1      18.730  51.386  49.838  1.00  0.00    -0.084 Cl
HETATM   21  C   UNL     1      16.622  50.813  48.311  1.00  0.00     0.024 A 
HETATM   22  C   UNL     1      15.676  49.995  47.697  1.00  0.00     0.005 A 
HETATM   23  C   UNL     1      15.735  48.621  47.889  1.00  0.00     0.043 A 
HETATM   24  C   UNL     1      16.739  48.079  48.689  1.00  0.00     0.126 A 
HETATM   25  F   UNL     1      16.749  46.748  48.858  1.00  0.00    -0.205 F 
ENDBRANCH  16  18
ENDBRANCH  14  16
ENDBRANCH   1  14
TORSDOF 5
ENDMDL
