MODEL 1
REMARK VINA RESULT:      -8.2      0.000      0.000
REMARK  6 active torsions:
REMARK  status: ('A' for Active; 'I' for Inactive)
REMARK    1  A    between atoms: C_2  and  N_3 
REMARK    2  A    between atoms: C_2  and  C_16 
REMARK    3  A    between atoms: N_3  and  C_6 
REMARK    4  A    between atoms: C_16  and  C_17 
REMARK       I    between atoms: C_17  and  N_18 
REMARK    5  A    between atoms: N_18  and  C_19 
REMARK    6  A    between atoms: C_22  and  O_23 
ROOT
HETATM    1  C   UNL     1      24.808  43.304  51.185  1.00  0.00     0.040 C 
HETATM    2  C   UNL     1      25.019  44.625  51.919  1.00  0.00     0.191 C 
ENDROOT
BRANCH   2   3
HETATM    3  N   UNL     1      25.766  44.397  53.229  1.00  0.00    -0.063 N 
HETATM    4  H   UNL     1      25.090  44.423  54.000  1.00  0.00     0.278 HD
HETATM    5  H   UNL     1      26.124  43.432  53.213  1.00  0.00     0.278 HD
BRANCH   3   6
HETATM    6  C   UNL     1      26.955  45.276  53.621  1.00  0.00     0.221 C 
HETATM    7  C   UNL     1      28.223  44.509  53.937  1.00  0.00    -0.011 A 
HETATM    8  C   UNL     1      29.027  44.816  55.050  1.00  0.00     0.009 A 
HETATM    9  C   UNL     1      28.659  43.486  53.065  1.00  0.00     0.011 A 
HETATM   10  C   UNL     1      30.165  44.044  55.327  1.00  0.00     0.019 A 
HETATM   11  S   UNL     1      28.698  46.166  56.166  1.00  0.00    -0.129 SA
HETATM   12  C   UNL     1      30.545  43.002  54.486  1.00  0.00     0.001 A 
HETATM   13  C   UNL     1      29.800  42.733  53.345  1.00  0.00     0.001 A 
HETATM   14  C   UNL     1      27.623  47.185  55.129  1.00  0.00     0.082 C 
HETATM   15  C   UNL     1      26.478  46.319  54.639  1.00  0.00     0.048 C 
ENDBRANCH   3   6
ENDBRANCH   2   3
BRANCH   2  16
HETATM   16  C   UNL     1      25.859  45.601  51.075  1.00  0.00     0.135 C 
BRANCH  16  17
HETATM   17  C   UNL     1      25.080  46.877  50.818  1.00  0.00     0.224 C 
HETATM   18  N   UNL     1      24.613  46.966  49.522  1.00  0.00    -0.327 N 
HETATM   19  H   UNL     1      24.939  46.286  48.846  1.00  0.00     0.169 HD
HETATM   20  O   UNL     1      24.943  47.700  51.714  1.00  0.00    -0.273 OA
BRANCH  18  21
HETATM   21  C   UNL     1      23.722  47.934  49.010  1.00  0.00     0.034 A 
HETATM   22  C   UNL     1      24.092  49.235  48.673  1.00  0.00     0.032 A 
HETATM   23  C   UNL     1      23.134  50.142  48.208  1.00  0.00     0.039 A 
HETATM   24  C   UNL     1      21.799  49.766  48.063  1.00  0.00     0.068 A 
HETATM   25  C   UNL     1      21.422  48.468  48.399  1.00  0.00     0.039 A 
HETATM   26  C   UNL     1      22.378  47.560  48.872  1.00  0.00     0.032 A 
BRANCH  24  27
HETATM   27  O   UNL     1      20.972  50.751  47.601  1.00  0.00    -0.356 OA
HETATM   28  C   UNL     1      20.343  51.576  48.573  1.00  0.00     0.210 C 
ENDBRANCH  24  27
ENDBRANCH  18  21
ENDBRANCH  16  17
ENDBRANCH   2  16
TORSDOF 6
ENDMDL
MODEL 2
REMARK VINA RESULT:      -7.9      2.833      8.146
REMARK  6 active torsions:
REMARK  status: ('A' for Active; 'I' for Inactive)
REMARK    1  A    between atoms: C_2  and  N_3 
REMARK    2  A    between atoms: C_2  and  C_16 
REMARK    3  A    between atoms: N_3  and  C_6 
REMARK    4  A    between atoms: C_16  and  C_17 
REMARK       I    between atoms: C_17  and  N_18 
REMARK    5  A    between atoms: N_18  and  C_19 
REMARK    6  A    between atoms: C_22  and  O_23 
ROOT
HETATM    1  C   UNL     1      23.609  44.652  48.176  1.00  0.00     0.040 C 
HETATM    2  C   UNL     1      24.577  44.979  49.310  1.00  0.00     0.191 C 
ENDROOT
BRANCH   2   3
HETATM    3  N   UNL     1      24.033  46.120  50.166  1.00  0.00    -0.063 N 
HETATM    4  H   UNL     1      23.044  46.259  49.934  1.00  0.00     0.278 HD
HETATM    5  H   UNL     1      24.041  45.800  51.143  1.00  0.00     0.278 HD
BRANCH   3   6
HETATM    6  C   UNL     1      24.709  47.491  50.170  1.00  0.00     0.221 C 
HETATM    7  C   UNL     1      23.973  48.555  49.381  1.00  0.00    -0.011 A 
HETATM    8  C   UNL     1      24.638  49.441  48.513  1.00  0.00     0.009 A 
HETATM    9  C   UNL     1      22.579  48.715  49.551  1.00  0.00     0.011 A 
HETATM   10  C   UNL     1      23.905  50.375  47.768  1.00  0.00     0.019 A 
HETATM   11  S   UNL     1      26.407  49.468  48.295  1.00  0.00    -0.129 SA
HETATM   12  C   UNL     1      22.524  50.476  47.907  1.00  0.00     0.001 A 
HETATM   13  C   UNL     1      21.862  49.656  48.812  1.00  0.00     0.001 A 
HETATM   14  C   UNL     1      26.932  48.631  49.808  1.00  0.00     0.082 C 
HETATM   15  C   UNL     1      26.206  47.301  49.890  1.00  0.00     0.048 C 
ENDBRANCH   3   6
ENDBRANCH   2   3
BRANCH   2  16
HETATM   16  C   UNL     1      24.778  43.765  50.236  1.00  0.00     0.135 C 
BRANCH  16  17
HETATM   17  C   UNL     1      25.129  44.227  51.637  1.00  0.00     0.224 C 
HETATM   18  N   UNL     1      26.490  44.316  51.845  1.00  0.00    -0.327 N 
HETATM   19  H   UNL     1      27.110  43.942  51.137  1.00  0.00     0.169 HD
HETATM   20  O   UNL     1      24.238  44.455  52.446  1.00  0.00    -0.273 OA
BRANCH  18  21
HETATM   21  C   UNL     1      27.139  44.868  52.971  1.00  0.00     0.034 A 
HETATM   22  C   UNL     1      26.867  46.137  53.482  1.00  0.00     0.032 A 
HETATM   23  C   UNL     1      27.585  46.622  54.581  1.00  0.00     0.039 A 
HETATM   24  C   UNL     1      28.575  45.851  55.190  1.00  0.00     0.068 A 
HETATM   25  C   UNL     1      28.852  44.585  54.682  1.00  0.00     0.039 A 
HETATM   26  C   UNL     1      28.140  44.099  53.578  1.00  0.00     0.032 A 
BRANCH  24  27
HETATM   27  O   UNL     1      29.197  46.449  56.249  1.00  0.00    -0.356 OA
HETATM   28  C   UNL     1      28.796  46.037  57.550  1.00  0.00     0.210 C 
ENDBRANCH  24  27
ENDBRANCH  18  21
ENDBRANCH  16  17
ENDBRANCH   2  16
TORSDOF 6
ENDMDL
MODEL 3
REMARK VINA RESULT:      -7.6      3.521      9.936
REMARK  6 active torsions:
REMARK  status: ('A' for Active; 'I' for Inactive)
REMARK    1  A    between atoms: C_2  and  N_3 
REMARK    2  A    between atoms: C_2  and  C_16 
REMARK    3  A    between atoms: N_3  and  C_6 
REMARK    4  A    between atoms: C_16  and  C_17 
REMARK       I    between atoms: C_17  and  N_18 
REMARK    5  A    between atoms: N_18  and  C_19 
REMARK    6  A    between atoms: C_22  and  O_23 
ROOT
HETATM    1  C   UNL     1      23.463  50.018  47.903  1.00  0.00     0.040 C 
HETATM    2  C   UNL     1      23.307  49.365  49.274  1.00  0.00     0.191 C 
ENDROOT
BRANCH   2   3
HETATM    3  N   UNL     1      21.837  49.320  49.681  1.00  0.00    -0.063 N 
HETATM    4  H   UNL     1      21.728  48.632  50.434  1.00  0.00     0.278 HD
HETATM    5  H   UNL     1      21.610  50.229  50.108  1.00  0.00     0.278 HD
BRANCH   3   6
HETATM    6  C   UNL     1      20.741  49.059  48.647  1.00  0.00     0.221 C 
HETATM    7  C   UNL     1      19.682  50.140  48.571  1.00  0.00    -0.011 A 
HETATM    8  C   UNL     1      18.309  49.841  48.495  1.00  0.00     0.009 A 
HETATM    9  C   UNL     1      20.069  51.498  48.517  1.00  0.00     0.011 A 
HETATM   10  C   UNL     1      17.366  50.878  48.477  1.00  0.00     0.019 A 
HETATM   11  S   UNL     1      17.663  48.183  48.407  1.00  0.00    -0.129 SA
HETATM   12  C   UNL     1      17.767  52.211  48.483  1.00  0.00     0.001 A 
HETATM   13  C   UNL     1      19.120  52.522  48.487  1.00  0.00     0.001 A 
HETATM   14  C   UNL     1      19.130  47.294  47.837  1.00  0.00     0.082 C 
HETATM   15  C   UNL     1      20.271  47.606  48.787  1.00  0.00     0.048 C 
ENDBRANCH   3   6
ENDBRANCH   2   3
BRANCH   2  16
HETATM   16  C   UNL     1      23.825  47.915  49.261  1.00  0.00     0.135 C 
BRANCH  16  17
HETATM   17  C   UNL     1      24.971  47.759  50.241  1.00  0.00     0.224 C 
HETATM   18  N   UNL     1      24.622  47.032  51.361  1.00  0.00    -0.327 N 
HETATM   19  H   UNL     1      23.645  46.805  51.500  1.00  0.00     0.169 HD
HETATM   20  O   UNL     1      26.057  48.275  50.000  1.00  0.00    -0.273 OA
BRANCH  18  21
HETATM   21  C   UNL     1      25.491  46.569  52.373  1.00  0.00     0.034 A 
HETATM   22  C   UNL     1      25.759  47.266  53.550  1.00  0.00     0.032 A 
HETATM   23  C   UNL     1      26.665  46.750  54.483  1.00  0.00     0.039 A 
HETATM   24  C   UNL     1      27.308  45.533  54.263  1.00  0.00     0.068 A 
HETATM   25  C   UNL     1      27.046  44.833  53.088  1.00  0.00     0.039 A 
HETATM   26  C   UNL     1      26.145  45.350  52.149  1.00  0.00     0.032 A 
BRANCH  24  27
HETATM   27  O   UNL     1      28.167  45.150  55.255  1.00  0.00    -0.356 OA
HETATM   28  C   UNL     1      28.531  46.137  56.211  1.00  0.00     0.210 C 
ENDBRANCH  24  27
ENDBRANCH  18  21
ENDBRANCH  16  17
ENDBRANCH   2  16
TORSDOF 6
ENDMDL
MODEL 4
REMARK VINA RESULT:      -7.6      3.539      6.693
REMARK  6 active torsions:
REMARK  status: ('A' for Active; 'I' for Inactive)
REMARK    1  A    between atoms: C_2  and  N_3 
REMARK    2  A    between atoms: C_2  and  C_16 
REMARK    3  A    between atoms: N_3  and  C_6 
REMARK    4  A    between atoms: C_16  and  C_17 
REMARK       I    between atoms: C_17  and  N_18 
REMARK    5  A    between atoms: N_18  and  C_19 
REMARK    6  A    between atoms: C_22  and  O_23 
ROOT
HETATM    1  C   UNL     1      25.129  46.971  51.414  1.00  0.00     0.040 C 
HETATM    2  C   UNL     1      25.485  45.492  51.541  1.00  0.00     0.191 C 
ENDROOT
BRANCH   2   3
HETATM    3  N   UNL     1      25.894  45.160  52.973  1.00  0.00    -0.063 N 
HETATM    4  H   UNL     1      25.091  45.329  53.589  1.00  0.00     0.278 HD
HETATM    5  H   UNL     1      26.061  44.146  53.016  1.00  0.00     0.278 HD
BRANCH   3   6
HETATM    6  C   UNL     1      27.120  45.813  53.613  1.00  0.00     0.221 C 
HETATM    7  C   UNL     1      28.267  44.860  53.883  1.00  0.00    -0.011 A 
HETATM    8  C   UNL     1      28.982  44.872  55.095  1.00  0.00     0.009 A 
HETATM    9  C   UNL     1      28.682  43.960  52.876  1.00  0.00     0.011 A 
HETATM   10  C   UNL     1      30.003  43.937  55.315  1.00  0.00     0.019 A 
HETATM   11  S   UNL     1      28.681  46.038  56.409  1.00  0.00    -0.129 SA
HETATM   12  C   UNL     1      30.358  43.019  54.330  1.00  0.00     0.001 A 
HETATM   13  C   UNL     1      29.708  43.041  53.104  1.00  0.00     0.001 A 
HETATM   14  C   UNL     1      27.824  47.340  55.494  1.00  0.00     0.082 C 
HETATM   15  C   UNL     1      26.651  46.712  54.764  1.00  0.00     0.048 C 
ENDBRANCH   3   6
ENDBRANCH   2   3
BRANCH   2  16
HETATM   16  C   UNL     1      24.282  44.599  51.186  1.00  0.00     0.135 C 
BRANCH  16  17
HETATM   17  C   UNL     1      24.755  43.213  50.793  1.00  0.00     0.224 C 
HETATM   18  N   UNL     1      26.033  43.213  50.272  1.00  0.00    -0.327 N 
HETATM   19  H   UNL     1      26.468  44.104  50.065  1.00  0.00     0.169 HD
HETATM   20  O   UNL     1      24.011  42.250  50.935  1.00  0.00    -0.273 OA
BRANCH  18  21
HETATM   21  C   UNL     1      26.822  42.081  49.969  1.00  0.00     0.034 A 
HETATM   22  C   UNL     1      27.368  41.232  50.931  1.00  0.00     0.032 A 
HETATM   23  C   UNL     1      28.171  40.154  50.544  1.00  0.00     0.039 A 
HETATM   24  C   UNL     1      28.435  39.901  49.197  1.00  0.00     0.068 A 
HETATM   25  C   UNL     1      27.894  40.748  48.233  1.00  0.00     0.039 A 
HETATM   26  C   UNL     1      27.095  41.832  48.618  1.00  0.00     0.032 A 
BRANCH  24  27
HETATM   27  O   UNL     1      29.234  38.818  48.963  1.00  0.00    -0.356 OA
HETATM   28  C   UNL     1      29.251  37.800  49.956  1.00  0.00     0.210 C 
ENDBRANCH  24  27
ENDBRANCH  18  21
ENDBRANCH  16  17
ENDBRANCH   2  16
TORSDOF 6
ENDMDL
MODEL 5
REMARK VINA RESULT:      -7.6      2.413      4.196
REMARK  6 active torsions:
REMARK  status: ('A' for Active; 'I' for Inactive)
REMARK    1  A    between atoms: C_2  and  N_3 
REMARK    2  A    between atoms: C_2  and  C_16 
REMARK    3  A    between atoms: N_3  and  C_6 
REMARK    4  A    between atoms: C_16  and  C_17 
REMARK       I    between atoms: C_17  and  N_18 
REMARK    5  A    between atoms: N_18  and  C_19 
REMARK    6  A    between atoms: C_22  and  O_23 
ROOT
HETATM    1  C   UNL     1      27.702  48.488  49.158  1.00  0.00     0.040 C 
HETATM    2  C   UNL     1      26.192  48.272  49.100  1.00  0.00     0.191 C 
ENDROOT
BRANCH   2   3
HETATM    3  N   UNL     1      25.656  47.858  50.467  1.00  0.00    -0.063 N 
HETATM    4  H   UNL     1      26.229  48.305  51.191  1.00  0.00     0.278 HD
HETATM    5  H   UNL     1      24.720  48.272  50.567  1.00  0.00     0.278 HD
BRANCH   3   6
HETATM    6  C   UNL     1      25.502  46.382  50.838  1.00  0.00     0.221 C 
HETATM    7  C   UNL     1      26.209  45.981  52.117  1.00  0.00    -0.011 A 
HETATM    8  C   UNL     1      26.970  44.801  52.215  1.00  0.00     0.009 A 
HETATM    9  C   UNL     1      26.067  46.777  53.276  1.00  0.00     0.011 A 
HETATM   10  C   UNL     1      27.645  44.500  53.406  1.00  0.00     0.019 A 
HETATM   11  S   UNL     1      27.131  43.617  50.893  1.00  0.00    -0.129 SA
HETATM   12  C   UNL     1      27.539  45.329  54.519  1.00  0.00     0.001 A 
HETATM   13  C   UNL     1      26.736  46.460  54.459  1.00  0.00     0.001 A 
HETATM   14  C   UNL     1      25.688  44.049  49.894  1.00  0.00     0.082 C 
HETATM   15  C   UNL     1      25.754  45.533  49.585  1.00  0.00     0.048 C 
ENDBRANCH   3   6
ENDBRANCH   2   3
BRANCH   2  16
HETATM   16  C   UNL     1      25.461  49.564  48.691  1.00  0.00     0.135 C 
BRANCH  16  17
HETATM   17  C   UNL     1      23.960  49.366  48.772  1.00  0.00     0.224 C 
HETATM   18  N   UNL     1      23.278  50.540  49.019  1.00  0.00    -0.327 N 
HETATM   19  H   UNL     1      23.814  51.364  49.263  1.00  0.00     0.169 HD
HETATM   20  O   UNL     1      23.484  48.244  48.642  1.00  0.00    -0.273 OA
BRANCH  18  21
HETATM   21  C   UNL     1      21.879  50.728  48.986  1.00  0.00     0.034 A 
HETATM   22  C   UNL     1      21.099  50.975  50.114  1.00  0.00     0.032 A 
HETATM   23  C   UNL     1      19.711  51.111  49.996  1.00  0.00     0.039 A 
HETATM   24  C   UNL     1      19.083  51.010  48.754  1.00  0.00     0.068 A 
HETATM   25  C   UNL     1      19.857  50.760  47.624  1.00  0.00     0.039 A 
HETATM   26  C   UNL     1      21.246  50.618  47.741  1.00  0.00     0.032 A 
BRANCH  24  27
HETATM   27  O   UNL     1      17.726  51.161  48.784  1.00  0.00    -0.356 OA
HETATM   28  C   UNL     1      17.189  51.981  49.815  1.00  0.00     0.210 C 
ENDBRANCH  24  27
ENDBRANCH  18  21
ENDBRANCH  16  17
ENDBRANCH   2  16
TORSDOF 6
ENDMDL
MODEL 6
REMARK VINA RESULT:      -7.4      4.270      8.536
REMARK  6 active torsions:
REMARK  status: ('A' for Active; 'I' for Inactive)
REMARK    1  A    between atoms: C_2  and  N_3 
REMARK    2  A    between atoms: C_2  and  C_16 
REMARK    3  A    between atoms: N_3  and  C_6 
REMARK    4  A    between atoms: C_16  and  C_17 
REMARK       I    between atoms: C_17  and  N_18 
REMARK    5  A    between atoms: N_18  and  C_19 
REMARK    6  A    between atoms: C_22  and  O_23 
ROOT
HETATM    1  C   UNL     1      26.029  40.669  50.591  1.00  0.00     0.040 C 
HETATM    2  C   UNL     1      26.510  42.107  50.762  1.00  0.00     0.191 C 
ENDROOT
BRANCH   2   3
HETATM    3  N   UNL     1      25.912  42.726  52.022  1.00  0.00    -0.063 N 
HETATM    4  H   UNL     1      25.310  42.030  52.473  1.00  0.00     0.278 HD
HETATM    5  H   UNL     1      26.686  42.885  52.682  1.00  0.00     0.278 HD
BRANCH   3   6
HETATM    6  C   UNL     1      25.139  44.044  51.961  1.00  0.00     0.221 C 
HETATM    7  C   UNL     1      24.265  44.201  50.732  1.00  0.00    -0.011 A 
HETATM    8  C   UNL     1      24.216  45.398  49.995  1.00  0.00     0.009 A 
HETATM    9  C   UNL     1      23.423  43.139  50.331  1.00  0.00     0.011 A 
HETATM   10  C   UNL     1      23.430  45.476  48.837  1.00  0.00     0.019 A 
HETATM   11  S   UNL     1      25.104  46.875  50.448  1.00  0.00    -0.129 SA
HETATM   12  C   UNL     1      22.652  44.397  48.426  1.00  0.00     0.001 A 
HETATM   13  C   UNL     1      22.636  43.233  49.183  1.00  0.00     0.001 A 
HETATM   14  C   UNL     1      25.413  46.541  52.198  1.00  0.00     0.082 C 
HETATM   15  C   UNL     1      26.096  45.191  52.308  1.00  0.00     0.048 C 
ENDBRANCH   3   6
ENDBRANCH   2   3
BRANCH   2  16
HETATM   16  C   UNL     1      28.042  42.167  50.903  1.00  0.00     0.135 C 
BRANCH  16  17
HETATM   17  C   UNL     1      28.434  42.198  52.367  1.00  0.00     0.224 C 
HETATM   18  N   UNL     1      29.261  43.258  52.677  1.00  0.00    -0.327 N 
HETATM   19  H   UNL     1      29.641  43.809  51.917  1.00  0.00     0.169 HD
HETATM   20  O   UNL     1      28.033  41.323  53.126  1.00  0.00    -0.273 OA
BRANCH  18  21
HETATM   21  C   UNL     1      29.665  43.665  53.967  1.00  0.00     0.034 A 
HETATM   22  C   UNL     1      30.705  43.073  54.682  1.00  0.00     0.032 A 
HETATM   23  C   UNL     1      31.015  43.514  55.973  1.00  0.00     0.039 A 
HETATM   24  C   UNL     1      30.301  44.555  56.566  1.00  0.00     0.068 A 
HETATM   25  C   UNL     1      29.259  45.149  55.858  1.00  0.00     0.039 A 
HETATM   26  C   UNL     1      28.943  44.705  54.568  1.00  0.00     0.032 A 
BRANCH  24  27
HETATM   27  O   UNL     1      30.707  44.883  57.828  1.00  0.00    -0.356 OA
HETATM   28  C   UNL     1      30.532  46.235  58.234  1.00  0.00     0.210 C 
ENDBRANCH  24  27
ENDBRANCH  18  21
ENDBRANCH  16  17
ENDBRANCH   2  16
TORSDOF 6
ENDMDL
MODEL 7
REMARK VINA RESULT:      -7.3      3.213      9.232
REMARK  6 active torsions:
REMARK  status: ('A' for Active; 'I' for Inactive)
REMARK    1  A    between atoms: C_2  and  N_3 
REMARK    2  A    between atoms: C_2  and  C_16 
REMARK    3  A    between atoms: N_3  and  C_6 
REMARK    4  A    between atoms: C_16  and  C_17 
REMARK       I    between atoms: C_17  and  N_18 
REMARK    5  A    between atoms: N_18  and  C_19 
REMARK    6  A    between atoms: C_22  and  O_23 
ROOT
HETATM    1  C   UNL     1      24.601  44.452  48.787  1.00  0.00     0.040 C 
HETATM    2  C   UNL     1      24.744  45.451  49.933  1.00  0.00     0.191 C 
ENDROOT
BRANCH   2   3
HETATM    3  N   UNL     1      23.568  46.423  49.946  1.00  0.00    -0.063 N 
HETATM    4  H   UNL     1      22.830  46.034  50.542  1.00  0.00     0.278 HD
HETATM    5  H   UNL     1      23.883  47.277  50.425  1.00  0.00     0.278 HD
BRANCH   3   6
HETATM    6  C   UNL     1      22.919  46.890  48.643  1.00  0.00     0.221 C 
HETATM    7  C   UNL     1      22.903  48.394  48.455  1.00  0.00    -0.011 A 
HETATM    8  C   UNL     1      21.764  49.080  47.994  1.00  0.00     0.009 A 
HETATM    9  C   UNL     1      24.078  49.142  48.692  1.00  0.00     0.011 A 
HETATM   10  C   UNL     1      21.785  50.477  47.884  1.00  0.00     0.019 A 
HETATM   11  S   UNL     1      20.251  48.272  47.512  1.00  0.00    -0.129 SA
HETATM   12  C   UNL     1      22.936  51.202  48.180  1.00  0.00     0.001 A 
HETATM   13  C   UNL     1      24.089  50.532  48.569  1.00  0.00     0.001 A 
HETATM   14  C   UNL     1      20.861  46.597  47.212  1.00  0.00     0.082 C 
HETATM   15  C   UNL     1      21.598  46.132  48.453  1.00  0.00     0.048 C 
ENDBRANCH   3   6
ENDBRANCH   2   3
BRANCH   2  16
HETATM   16  C   UNL     1      24.763  44.733  51.295  1.00  0.00     0.135 C 
BRANCH  16  17
HETATM   17  C   UNL     1      25.831  45.334  52.189  1.00  0.00     0.224 C 
HETATM   18  N   UNL     1      26.262  44.461  53.167  1.00  0.00    -0.327 N 
HETATM   19  H   UNL     1      25.752  43.595  53.297  1.00  0.00     0.169 HD
HETATM   20  O   UNL     1      26.202  46.487  52.008  1.00  0.00    -0.273 OA
BRANCH  18  21
HETATM   21  C   UNL     1      27.352  44.646  54.045  1.00  0.00     0.034 A 
HETATM   22  C   UNL     1      27.432  45.674  54.983  1.00  0.00     0.032 A 
HETATM   23  C   UNL     1      28.569  45.808  55.787  1.00  0.00     0.039 A 
HETATM   24  C   UNL     1      29.637  44.917  55.676  1.00  0.00     0.068 A 
HETATM   25  C   UNL     1      29.564  43.890  54.739  1.00  0.00     0.039 A 
HETATM   26  C   UNL     1      28.430  43.758  53.927  1.00  0.00     0.032 A 
BRANCH  24  27
HETATM   27  O   UNL     1      30.681  45.166  56.520  1.00  0.00    -0.356 OA
HETATM   28  C   UNL     1      30.398  45.913  57.697  1.00  0.00     0.210 C 
ENDBRANCH  24  27
ENDBRANCH  18  21
ENDBRANCH  16  17
ENDBRANCH   2  16
TORSDOF 6
ENDMDL
MODEL 8
REMARK VINA RESULT:      -7.2      2.878      4.209
REMARK  6 active torsions:
REMARK  status: ('A' for Active; 'I' for Inactive)
REMARK    1  A    between atoms: C_2  and  N_3 
REMARK    2  A    between atoms: C_2  and  C_16 
REMARK    3  A    between atoms: N_3  and  C_6 
REMARK    4  A    between atoms: C_16  and  C_17 
REMARK       I    between atoms: C_17  and  N_18 
REMARK    5  A    between atoms: N_18  and  C_19 
REMARK    6  A    between atoms: C_22  and  O_23 
ROOT
HETATM    1  C   UNL     1      27.704  40.921  52.924  1.00  0.00     0.040 C 
HETATM    2  C   UNL     1      27.844  42.431  53.103  1.00  0.00     0.191 C 
ENDROOT
BRANCH   2   3
HETATM    3  N   UNL     1      28.865  42.749  54.191  1.00  0.00    -0.063 N 
HETATM    4  H   UNL     1      28.589  42.262  55.050  1.00  0.00     0.278 HD
HETATM    5  H   UNL     1      29.757  42.320  53.910  1.00  0.00     0.278 HD
BRANCH   3   6
HETATM    6  C   UNL     1      29.197  44.195  54.560  1.00  0.00     0.221 C 
HETATM    7  C   UNL     1      30.024  44.346  55.821  1.00  0.00    -0.011 A 
HETATM    8  C   UNL     1      29.729  45.312  56.801  1.00  0.00     0.009 A 
HETATM    9  C   UNL     1      31.167  43.536  56.010  1.00  0.00     0.011 A 
HETATM   10  C   UNL     1      30.496  45.378  57.973  1.00  0.00     0.019 A 
HETATM   11  S   UNL     1      28.414  46.504  56.649  1.00  0.00    -0.129 SA
HETATM   12  C   UNL     1      31.583  44.530  58.166  1.00  0.00     0.001 A 
HETATM   13  C   UNL     1      31.929  43.619  57.177  1.00  0.00     0.001 A 
HETATM   14  C   UNL     1      28.158  46.476  54.859  1.00  0.00     0.082 C 
HETATM   15  C   UNL     1      27.920  45.038  54.438  1.00  0.00     0.048 C 
ENDBRANCH   3   6
ENDBRANCH   2   3
BRANCH   2  16
HETATM   16  C   UNL     1      28.332  43.101  51.805  1.00  0.00     0.135 C 
BRANCH  16  17
HETATM   17  C   UNL     1      27.209  43.151  50.787  1.00  0.00     0.224 C 
HETATM   18  N   UNL     1      26.007  43.549  51.336  1.00  0.00    -0.327 N 
HETATM   19  H   UNL     1      25.941  43.625  52.343  1.00  0.00     0.169 HD
HETATM   20  O   UNL     1      27.425  42.834  49.623  1.00  0.00    -0.273 OA
BRANCH  18  21
HETATM   21  C   UNL     1      24.820  43.857  50.636  1.00  0.00     0.034 A 
HETATM   22  C   UNL     1      23.785  42.949  50.419  1.00  0.00     0.032 A 
HETATM   23  C   UNL     1      22.658  43.328  49.680  1.00  0.00     0.039 A 
HETATM   24  C   UNL     1      22.542  44.615  49.157  1.00  0.00     0.068 A 
HETATM   25  C   UNL     1      23.573  45.526  49.369  1.00  0.00     0.039 A 
HETATM   26  C   UNL     1      24.705  45.148  50.103  1.00  0.00     0.032 A 
BRANCH  24  27
HETATM   27  O   UNL     1      21.392  44.848  48.457  1.00  0.00    -0.356 OA
HETATM   28  C   UNL     1      20.934  46.193  48.394  1.00  0.00     0.210 C 
ENDBRANCH  24  27
ENDBRANCH  18  21
ENDBRANCH  16  17
ENDBRANCH   2  16
TORSDOF 6
ENDMDL
MODEL 9
REMARK VINA RESULT:      -7.1      3.388      8.675
REMARK  6 active torsions:
REMARK  status: ('A' for Active; 'I' for Inactive)
REMARK    1  A    between atoms: C_2  and  N_3 
REMARK    2  A    between atoms: C_2  and  C_16 
REMARK    3  A    between atoms: N_3  and  C_6 
REMARK    4  A    between atoms: C_16  and  C_17 
REMARK       I    between atoms: C_17  and  N_18 
REMARK    5  A    between atoms: N_18  and  C_19 
REMARK    6  A    between atoms: C_22  and  O_23 
ROOT
HETATM    1  C   UNL     1      21.931  44.204  47.647  1.00  0.00     0.040 C 
HETATM    2  C   UNL     1      22.829  45.119  48.475  1.00  0.00     0.191 C 
ENDROOT
BRANCH   2   3
HETATM    3  N   UNL     1      22.003  46.201  49.164  1.00  0.00    -0.063 N 
HETATM    4  H   UNL     1      21.361  45.750  49.824  1.00  0.00     0.278 HD
HETATM    5  H   UNL     1      22.647  46.754  49.744  1.00  0.00     0.278 HD
BRANCH   3   6
HETATM    6  C   UNL     1      21.199  47.215  48.348  1.00  0.00     0.221 C 
HETATM    7  C   UNL     1      21.760  48.623  48.373  1.00  0.00    -0.011 A 
HETATM    8  C   UNL     1      20.941  49.754  48.550  1.00  0.00     0.009 A 
HETATM    9  C   UNL     1      23.141  48.832  48.159  1.00  0.00     0.011 A 
HETATM   10  C   UNL     1      21.514  51.031  48.615  1.00  0.00     0.019 A 
HETATM   11  S   UNL     1      19.166  49.676  48.690  1.00  0.00    -0.129 SA
HETATM   12  C   UNL     1      22.886  51.209  48.460  1.00  0.00     0.001 A 
HETATM   13  C   UNL     1      23.699  50.110  48.215  1.00  0.00     0.001 A 
HETATM   14  C   UNL     1      18.855  48.057  47.948  1.00  0.00     0.082 C 
HETATM   15  C   UNL     1      19.710  47.033  48.669  1.00  0.00     0.048 C 
ENDBRANCH   3   6
ENDBRANCH   2   3
BRANCH   2  16
HETATM   16  C   UNL     1      23.562  44.329  49.576  1.00  0.00     0.135 C 
BRANCH  16  17
HETATM   17  C   UNL     1      24.531  45.233  50.312  1.00  0.00     0.224 C 
HETATM   18  N   UNL     1      24.645  44.917  51.651  1.00  0.00    -0.327 N 
HETATM   19  H   UNL     1      23.996  44.245  52.042  1.00  0.00     0.169 HD
HETATM   20  O   UNL     1      25.097  46.140  49.713  1.00  0.00    -0.273 OA
BRANCH  18  21
HETATM   21  C   UNL     1      25.577  45.449  52.568  1.00  0.00     0.034 A 
HETATM   22  C   UNL     1      26.598  44.707  53.161  1.00  0.00     0.032 A 
HETATM   23  C   UNL     1      27.455  45.305  54.091  1.00  0.00     0.039 A 
HETATM   24  C   UNL     1      27.315  46.649  54.437  1.00  0.00     0.068 A 
HETATM   25  C   UNL     1      26.295  47.394  53.850  1.00  0.00     0.039 A 
HETATM   26  C   UNL     1      25.432  46.796  52.923  1.00  0.00     0.032 A 
BRANCH  24  27
HETATM   27  O   UNL     1      28.218  47.102  55.356  1.00  0.00    -0.356 OA
HETATM   28  C   UNL     1      28.729  46.152  56.283  1.00  0.00     0.210 C 
ENDBRANCH  24  27
ENDBRANCH  18  21
ENDBRANCH  16  17
ENDBRANCH   2  16
TORSDOF 6
ENDMDL
MODEL 10
REMARK VINA RESULT:      -7.0      1.569      2.391
REMARK  6 active torsions:
REMARK  status: ('A' for Active; 'I' for Inactive)
REMARK    1  A    between atoms: C_2  and  N_3 
REMARK    2  A    between atoms: C_2  and  C_16 
REMARK    3  A    between atoms: N_3  and  C_6 
REMARK    4  A    between atoms: C_16  and  C_17 
REMARK       I    between atoms: C_17  and  N_18 
REMARK    5  A    between atoms: N_18  and  C_19 
REMARK    6  A    between atoms: C_22  and  O_23 
ROOT
HETATM    1  C   UNL     1      24.962  45.237  53.460  1.00  0.00     0.040 C 
HETATM    2  C   UNL     1      25.696  45.990  52.354  1.00  0.00     0.191 C 
ENDROOT
BRANCH   2   3
HETATM    3  N   UNL     1      27.149  45.530  52.264  1.00  0.00    -0.063 N 
HETATM    4  H   UNL     1      27.402  45.442  51.275  1.00  0.00     0.278 HD
HETATM    5  H   UNL     1      27.734  46.293  52.629  1.00  0.00     0.278 HD
BRANCH   3   6
HETATM    6  C   UNL     1      27.618  44.264  52.982  1.00  0.00     0.221 C 
HETATM    7  C   UNL     1      28.545  44.516  54.155  1.00  0.00    -0.011 A 
HETATM    8  C   UNL     1      29.711  43.757  54.366  1.00  0.00     0.009 A 
HETATM    9  C   UNL     1      28.215  45.506  55.108  1.00  0.00     0.011 A 
HETATM   10  C   UNL     1      30.561  44.062  55.438  1.00  0.00     0.019 A 
HETATM   11  S   UNL     1      30.194  42.382  53.341  1.00  0.00    -0.129 SA
HETATM   12  C   UNL     1      30.247  45.081  56.333  1.00  0.00     0.001 A 
HETATM   13  C   UNL     1      29.065  45.793  56.178  1.00  0.00     0.001 A 
HETATM   14  C   UNL     1      28.608  41.979  52.573  1.00  0.00     0.082 C 
HETATM   15  C   UNL     1      28.060  43.239  51.929  1.00  0.00     0.048 C 
ENDBRANCH   3   6
ENDBRANCH   2   3
BRANCH   2  16
HETATM   16  C   UNL     1      25.047  45.733  50.982  1.00  0.00     0.135 C 
BRANCH  16  17
HETATM   17  C   UNL     1      24.610  47.043  50.355  1.00  0.00     0.224 C 
HETATM   18  N   UNL     1      23.452  46.920  49.613  1.00  0.00    -0.327 N 
HETATM   19  H   UNL     1      23.094  45.991  49.433  1.00  0.00     0.169 HD
HETATM   20  O   UNL     1      25.282  48.054  50.520  1.00  0.00    -0.273 OA
BRANCH  18  21
HETATM   21  C   UNL     1      22.697  47.970  49.046  1.00  0.00     0.034 A 
HETATM   22  C   UNL     1      23.232  49.201  48.670  1.00  0.00     0.032 A 
HETATM   23  C   UNL     1      22.403  50.201  48.151  1.00  0.00     0.039 A 
HETATM   24  C   UNL     1      21.034  49.988  47.992  1.00  0.00     0.068 A 
HETATM   25  C   UNL     1      20.493  48.762  48.368  1.00  0.00     0.039 A 
HETATM   26  C   UNL     1      21.320  47.761  48.894  1.00  0.00     0.032 A 
BRANCH  24  27
HETATM   27  O   UNL     1      20.345  51.049  47.476  1.00  0.00    -0.356 OA
HETATM   28  C   UNL     1      19.598  51.842  48.390  1.00  0.00     0.210 C 
ENDBRANCH  24  27
ENDBRANCH  18  21
ENDBRANCH  16  17
ENDBRANCH   2  16
TORSDOF 6
ENDMDL
