MODEL 1
REMARK VINA RESULT:      -9.1      0.000      0.000
REMARK  6 active torsions:
REMARK  status: ('A' for Active; 'I' for Inactive)
REMARK    1  A    between atoms: C_3  and  N_4 
REMARK       I    between atoms: N_4  and  C_5 
REMARK    2  A    between atoms: C_5  and  C_6 
REMARK    3  A    between atoms: C_14  and  N_15 
REMARK       I    between atoms: N_15  and  C_16 
REMARK       I    between atoms: C_16  and  N_17 
REMARK    4  A    between atoms: N_17  and  C_18 
REMARK    5  A    between atoms: C_18  and  C_19 
REMARK    6  A    between atoms: C_19  and  N_20 
ROOT
HETATM    1  N   UNL     1      25.902  44.787  49.992  1.00  0.00    -0.309 N 
HETATM    2  C   UNL     1      26.593  44.377  51.083  1.00  0.00     0.321 C 
HETATM    3  N   UNL     1      26.007  44.518  52.298  1.00  0.00    -0.337 N 
HETATM    4  O   UNL     1      27.679  43.810  50.958  1.00  0.00    -0.247 OA
HETATM    5  H   UNL     1      26.267  44.397  49.130  1.00  0.00     0.170 HD
HETATM    6  H   UNL     1      25.026  44.778  52.287  1.00  0.00     0.164 HD
ENDROOT
BRANCH   1   7
HETATM    7  C   UNL     1      24.956  45.819  49.823  1.00  0.00     0.036 A 
HETATM    8  C   UNL     1      25.157  47.137  50.220  1.00  0.00     0.032 A 
HETATM    9  C   UNL     1      24.198  48.119  49.933  1.00  0.00     0.032 A 
HETATM   10  C   UNL     1      23.026  47.808  49.236  1.00  0.00     0.041 A 
HETATM   11  C   UNL     1      22.813  46.475  48.833  1.00  0.00    -0.033 A 
HETATM   12  C   UNL     1      21.588  46.051  48.064  1.00  0.00     0.050 C 
HETATM   13  C   UNL     1      23.788  45.501  49.124  1.00  0.00     0.038 A 
BRANCH  10  14
HETATM   14  N   UNL     1      22.062  48.781  48.897  1.00  0.00    -0.321 N 
HETATM   15  C   UNL     1      22.145  49.805  47.969  1.00  0.00     0.279 C 
HETATM   16  O   UNL     1      23.125  50.063  47.279  1.00  0.00    -0.265 OA
HETATM   17  H   UNL     1      21.157  48.723  49.352  1.00  0.00     0.169 HD
BRANCH  15  18
HETATM   18  C   UNL     1      20.908  50.563  47.876  1.00  0.00     0.142 A 
HETATM   19  O   UNL     1      19.958  50.185  46.959  1.00  0.00    -0.317 OA
HETATM   20  C   UNL     1      18.920  51.052  47.079  1.00  0.00     0.143 A 
HETATM   21  C   UNL     1      19.183  51.988  48.051  1.00  0.00     0.027 A 
HETATM   22  C   UNL     1      20.462  51.673  48.567  1.00  0.00     0.045 A 
ENDBRANCH  15  18
ENDBRANCH  10  14
ENDBRANCH   1   7
BRANCH   3  23
HETATM   23  C   UNL     1      26.663  44.367  53.601  1.00  0.00     0.108 C 
HETATM   24  C   UNL     1      25.659  43.887  54.645  1.00  0.00     0.034 C 
BRANCH  23  25
HETATM   25  C   UNL     1      27.549  45.565  54.063  1.00  0.00     0.259 C 
BRANCH  25  26
HETATM   26  N   UNL     1      28.867  45.192  54.715  1.00  0.00    -0.069 N 
HETATM   27  H   UNL     1      29.595  45.720  54.187  1.00  0.00     0.280 HD
HETATM   28  C   UNL     1      29.000  45.597  56.159  1.00  0.00     0.239 C 
HETATM   29  C   UNL     1      30.445  45.383  56.614  1.00  0.00     0.007 C 
HETATM   30  C   UNL     1      30.854  43.918  56.428  1.00  0.00     0.007 C 
HETATM   31  C   UNL     1      30.623  45.816  58.067  1.00  0.00     0.011 C 
HETATM   32  C   UNL     1      30.633  43.467  54.989  1.00  0.00     0.028 C 
HETATM   33  C   UNL     1      29.212  43.736  54.512  1.00  0.00     0.235 C 
ENDBRANCH  25  26
ENDBRANCH  23  25
ENDBRANCH   3  23
TORSDOF 6
ENDMDL
MODEL 2
REMARK VINA RESULT:      -8.9      1.313      2.216
REMARK  6 active torsions:
REMARK  status: ('A' for Active; 'I' for Inactive)
REMARK    1  A    between atoms: C_3  and  N_4 
REMARK       I    between atoms: N_4  and  C_5 
REMARK    2  A    between atoms: C_5  and  C_6 
REMARK    3  A    between atoms: C_14  and  N_15 
REMARK       I    between atoms: N_15  and  C_16 
REMARK       I    between atoms: C_16  and  N_17 
REMARK    4  A    between atoms: N_17  and  C_18 
REMARK    5  A    between atoms: C_18  and  C_19 
REMARK    6  A    between atoms: C_19  and  N_20 
ROOT
HETATM    1  N   UNL     1      26.321  43.211  50.203  1.00  0.00    -0.309 N 
HETATM    2  C   UNL     1      27.020  42.944  51.332  1.00  0.00     0.321 C 
HETATM    3  N   UNL     1      26.495  43.345  52.515  1.00  0.00    -0.337 N 
HETATM    4  O   UNL     1      28.054  42.276  51.283  1.00  0.00    -0.247 OA
HETATM    5  H   UNL     1      26.621  42.646  49.415  1.00  0.00     0.170 HD
HETATM    6  H   UNL     1      25.537  43.678  52.483  1.00  0.00     0.164 HD
ENDROOT
BRANCH   1   7
HETATM    7  C   UNL     1      25.451  44.271  49.875  1.00  0.00     0.036 A 
HETATM    8  C   UNL     1      24.085  44.124  49.656  1.00  0.00     0.032 A 
HETATM    9  C   UNL     1      23.278  45.246  49.423  1.00  0.00     0.032 A 
HETATM   10  C   UNL     1      23.815  46.538  49.414  1.00  0.00     0.041 A 
HETATM   11  C   UNL     1      25.197  46.697  49.633  1.00  0.00    -0.033 A 
HETATM   12  C   UNL     1      25.859  48.050  49.659  1.00  0.00     0.050 C 
HETATM   13  C   UNL     1      25.994  45.560  49.872  1.00  0.00     0.038 A 
BRANCH  10  14
HETATM   14  N   UNL     1      23.022  47.689  49.223  1.00  0.00    -0.321 N 
HETATM   15  C   UNL     1      22.279  48.063  48.116  1.00  0.00     0.279 C 
HETATM   16  O   UNL     1      22.210  47.440  47.062  1.00  0.00    -0.265 OA
HETATM   17  H   UNL     1      22.931  48.331  50.003  1.00  0.00     0.169 HD
BRANCH  15  18
HETATM   18  C   UNL     1      21.550  49.301  48.336  1.00  0.00     0.142 A 
HETATM   19  O   UNL     1      20.197  49.333  48.098  1.00  0.00    -0.317 OA
HETATM   20  C   UNL     1      19.773  50.593  48.377  1.00  0.00     0.143 A 
HETATM   21  C   UNL     1      20.826  51.378  48.783  1.00  0.00     0.027 A 
HETATM   22  C   UNL     1      21.971  50.546  48.759  1.00  0.00     0.045 A 
ENDBRANCH  15  18
ENDBRANCH  10  14
ENDBRANCH   1   7
BRANCH   3  23
HETATM   23  C   UNL     1      27.187  43.372  53.809  1.00  0.00     0.108 C 
HETATM   24  C   UNL     1      26.183  43.564  54.942  1.00  0.00     0.034 C 
BRANCH  23  25
HETATM   25  C   UNL     1      28.439  44.299  53.894  1.00  0.00     0.259 C 
BRANCH  25  26
HETATM   26  N   UNL     1      29.027  44.479  55.279  1.00  0.00    -0.069 N 
HETATM   27  H   UNL     1      28.393  43.954  55.920  1.00  0.00     0.280 HD
HETATM   28  C   UNL     1      30.405  43.900  55.467  1.00  0.00     0.239 C 
HETATM   29  C   UNL     1      30.771  43.935  56.952  1.00  0.00     0.007 C 
HETATM   30  C   UNL     1      30.716  45.371  57.483  1.00  0.00     0.007 C 
HETATM   31  C   UNL     1      32.151  43.323  57.181  1.00  0.00     0.011 C 
HETATM   32  C   UNL     1      29.355  46.002  57.214  1.00  0.00     0.028 C 
HETATM   33  C   UNL     1      28.960  45.913  55.746  1.00  0.00     0.235 C 
ENDBRANCH  25  26
ENDBRANCH  23  25
ENDBRANCH   3  23
TORSDOF 6
ENDMDL
MODEL 3
REMARK VINA RESULT:      -8.7      2.288     10.608
REMARK  6 active torsions:
REMARK  status: ('A' for Active; 'I' for Inactive)
REMARK    1  A    between atoms: C_3  and  N_4 
REMARK       I    between atoms: N_4  and  C_5 
REMARK    2  A    between atoms: C_5  and  C_6 
REMARK    3  A    between atoms: C_14  and  N_15 
REMARK       I    between atoms: N_15  and  C_16 
REMARK       I    between atoms: C_16  and  N_17 
REMARK    4  A    between atoms: N_17  and  C_18 
REMARK    5  A    between atoms: C_18  and  C_19 
REMARK    6  A    between atoms: C_19  and  N_20 
ROOT
HETATM    1  N   UNL     1      24.626  45.092  50.363  1.00  0.00    -0.309 N 
HETATM    2  C   UNL     1      24.037  46.091  49.662  1.00  0.00     0.321 C 
HETATM    3  N   UNL     1      24.740  47.234  49.471  1.00  0.00    -0.337 N 
HETATM    4  O   UNL     1      22.935  45.921  49.140  1.00  0.00    -0.247 OA
HETATM    5  H   UNL     1      24.173  44.195  50.220  1.00  0.00     0.170 HD
HETATM    6  H   UNL     1      25.720  47.199  49.734  1.00  0.00     0.164 HD
ENDROOT
BRANCH   1   7
HETATM    7  C   UNL     1      25.568  45.120  51.411  1.00  0.00     0.036 A 
HETATM    8  C   UNL     1      25.400  45.830  52.596  1.00  0.00     0.032 A 
HETATM    9  C   UNL     1      26.348  45.731  53.624  1.00  0.00     0.032 A 
HETATM   10  C   UNL     1      27.477  44.915  53.496  1.00  0.00     0.041 A 
HETATM   11  C   UNL     1      27.657  44.194  52.299  1.00  0.00    -0.033 A 
HETATM   12  C   UNL     1      28.832  43.278  52.079  1.00  0.00     0.050 C 
HETATM   13  C   UNL     1      26.692  44.300  51.277  1.00  0.00     0.038 A 
BRANCH  10  14
HETATM   14  N   UNL     1      28.427  44.764  54.528  1.00  0.00    -0.321 N 
HETATM   15  C   UNL     1      29.092  45.740  55.251  1.00  0.00     0.279 C 
HETATM   16  O   UNL     1      28.981  46.949  55.084  1.00  0.00    -0.265 OA
HETATM   17  H   UNL     1      28.642  43.821  54.832  1.00  0.00     0.169 HD
BRANCH  15  18
HETATM   18  C   UNL     1      29.954  45.173  56.274  1.00  0.00     0.142 A 
HETATM   19  O   UNL     1      29.994  45.758  57.517  1.00  0.00    -0.317 OA
HETATM   20  C   UNL     1      30.869  45.040  58.268  1.00  0.00     0.143 A 
HETATM   21  C   UNL     1      31.401  44.007  57.534  1.00  0.00     0.027 A 
HETATM   22  C   UNL     1      30.811  44.089  56.250  1.00  0.00     0.045 A 
ENDBRANCH  15  18
ENDBRANCH  10  14
ENDBRANCH   1   7
BRANCH   3  23
HETATM   23  C   UNL     1      24.212  48.504  48.961  1.00  0.00     0.108 C 
HETATM   24  C   UNL     1      25.356  49.431  48.563  1.00  0.00     0.034 C 
BRANCH  23  25
HETATM   25  C   UNL     1      23.106  49.181  49.830  1.00  0.00     0.259 C 
BRANCH  25  26
HETATM   26  N   UNL     1      21.775  49.403  49.139  1.00  0.00    -0.069 N 
HETATM   27  H   UNL     1      21.072  48.904  49.727  1.00  0.00     0.280 HD
HETATM   28  C   UNL     1      21.330  50.840  49.061  1.00  0.00     0.239 C 
HETATM   29  C   UNL     1      19.882  50.895  48.569  1.00  0.00     0.007 C 
HETATM   30  C   UNL     1      19.756  50.220  47.200  1.00  0.00     0.007 C 
HETATM   31  C   UNL     1      19.388  52.339  48.510  1.00  0.00     0.011 C 
HETATM   32  C   UNL     1      20.292  48.793  47.242  1.00  0.00     0.028 C 
HETATM   33  C   UNL     1      21.712  48.728  47.790  1.00  0.00     0.235 C 
ENDBRANCH  25  26
ENDBRANCH  23  25
ENDBRANCH   3  23
TORSDOF 6
ENDMDL
MODEL 4
REMARK VINA RESULT:      -8.7      1.988     10.503
REMARK  6 active torsions:
REMARK  status: ('A' for Active; 'I' for Inactive)
REMARK    1  A    between atoms: C_3  and  N_4 
REMARK       I    between atoms: N_4  and  C_5 
REMARK    2  A    between atoms: C_5  and  C_6 
REMARK    3  A    between atoms: C_14  and  N_15 
REMARK       I    between atoms: N_15  and  C_16 
REMARK       I    between atoms: C_16  and  N_17 
REMARK    4  A    between atoms: N_17  and  C_18 
REMARK    5  A    between atoms: C_18  and  C_19 
REMARK    6  A    between atoms: C_19  and  N_20 
ROOT
HETATM    1  N   UNL     1      23.498  45.623  49.491  1.00  0.00    -0.309 N 
HETATM    2  C   UNL     1      23.082  46.806  48.978  1.00  0.00     0.321 C 
HETATM    3  N   UNL     1      23.994  47.801  48.854  1.00  0.00    -0.337 N 
HETATM    4  O   UNL     1      21.933  46.934  48.555  1.00  0.00    -0.247 OA
HETATM    5  H   UNL     1      22.856  44.863  49.290  1.00  0.00     0.170 HD
HETATM    6  H   UNL     1      24.961  47.536  49.008  1.00  0.00     0.164 HD
ENDROOT
BRANCH   1   7
HETATM    7  C   UNL     1      24.502  45.318  50.433  1.00  0.00     0.036 A 
HETATM    8  C   UNL     1      25.330  44.202  50.362  1.00  0.00     0.032 A 
HETATM    9  C   UNL     1      26.361  44.023  51.293  1.00  0.00     0.032 A 
HETATM   10  C   UNL     1      26.596  44.958  52.307  1.00  0.00     0.041 A 
HETATM   11  C   UNL     1      25.761  46.090  52.389  1.00  0.00    -0.033 A 
HETATM   12  C   UNL     1      25.950  47.156  53.436  1.00  0.00     0.050 C 
HETATM   13  C   UNL     1      24.732  46.259  51.442  1.00  0.00     0.038 A 
BRANCH  10  14
HETATM   14  N   UNL     1      27.651  44.825  53.234  1.00  0.00    -0.321 N 
HETATM   15  C   UNL     1      27.830  43.872  54.222  1.00  0.00     0.279 C 
HETATM   16  O   UNL     1      27.050  42.963  54.485  1.00  0.00    -0.265 OA
HETATM   17  H   UNL     1      28.422  45.480  53.164  1.00  0.00     0.169 HD
BRANCH  15  18
HETATM   18  C   UNL     1      29.085  44.048  54.935  1.00  0.00     0.142 A 
HETATM   19  O   UNL     1      29.304  45.214  55.627  1.00  0.00    -0.317 OA
HETATM   20  C   UNL     1      30.537  45.119  56.189  1.00  0.00     0.143 A 
HETATM   21  C   UNL     1      31.123  43.917  55.868  1.00  0.00     0.027 A 
HETATM   22  C   UNL     1      30.187  43.225  55.062  1.00  0.00     0.045 A 
ENDBRANCH  15  18
ENDBRANCH  10  14
ENDBRANCH   1   7
BRANCH   3  23
HETATM   23  C   UNL     1      23.709  49.209  48.555  1.00  0.00     0.108 C 
HETATM   24  C   UNL     1      25.007  49.970  48.301  1.00  0.00     0.034 C 
BRANCH  23  25
HETATM   25  C   UNL     1      22.722  49.927  49.528  1.00  0.00     0.259 C 
BRANCH  25  26
HETATM   26  N   UNL     1      21.313  50.123  49.004  1.00  0.00    -0.069 N 
HETATM   27  H   UNL     1      20.814  49.231  49.212  1.00  0.00     0.280 HD
HETATM   28  C   UNL     1      20.532  51.221  49.677  1.00  0.00     0.239 C 
HETATM   29  C   UNL     1      19.070  51.149  49.229  1.00  0.00     0.007 C 
HETATM   30  C   UNL     1      18.970  51.276  47.705  1.00  0.00     0.007 C 
HETATM   31  C   UNL     1      18.241  52.231  49.919  1.00  0.00     0.011 C 
HETATM   32  C   UNL     1      19.833  50.228  47.012  1.00  0.00     0.028 C 
HETATM   33  C   UNL     1      21.275  50.255  47.501  1.00  0.00     0.235 C 
ENDBRANCH  25  26
ENDBRANCH  23  25
ENDBRANCH   3  23
TORSDOF 6
ENDMDL
MODEL 5
REMARK VINA RESULT:      -8.6      2.490      3.651
REMARK  6 active torsions:
REMARK  status: ('A' for Active; 'I' for Inactive)
REMARK    1  A    between atoms: C_3  and  N_4 
REMARK       I    between atoms: N_4  and  C_5 
REMARK    2  A    between atoms: C_5  and  C_6 
REMARK    3  A    between atoms: C_14  and  N_15 
REMARK       I    between atoms: N_15  and  C_16 
REMARK       I    between atoms: C_16  and  N_17 
REMARK    4  A    between atoms: N_17  and  C_18 
REMARK    5  A    between atoms: C_18  and  C_19 
REMARK    6  A    between atoms: C_19  and  N_20 
ROOT
HETATM    1  N   UNL     1      24.972  48.616  49.000  1.00  0.00    -0.309 N 
HETATM    2  C   UNL     1      25.681  47.823  49.839  1.00  0.00     0.321 C 
HETATM    3  N   UNL     1      25.000  46.926  50.593  1.00  0.00    -0.337 N 
HETATM    4  O   UNL     1      26.911  47.860  49.842  1.00  0.00    -0.247 OA
HETATM    5  H   UNL     1      25.551  49.042  48.283  1.00  0.00     0.170 HD
HETATM    6  H   UNL     1      24.020  46.805  50.358  1.00  0.00     0.164 HD
ENDROOT
BRANCH   1   7
HETATM    7  C   UNL     1      23.664  49.134  49.091  1.00  0.00     0.036 A 
HETATM    8  C   UNL     1      23.366  50.476  49.309  1.00  0.00     0.032 A 
HETATM    9  C   UNL     1      22.037  50.920  49.298  1.00  0.00     0.032 A 
HETATM   10  C   UNL     1      20.978  50.037  49.058  1.00  0.00     0.041 A 
HETATM   11  C   UNL     1      21.269  48.676  48.838  1.00  0.00    -0.033 A 
HETATM   12  C   UNL     1      20.196  47.658  48.555  1.00  0.00     0.050 C 
HETATM   13  C   UNL     1      22.611  48.247  48.848  1.00  0.00     0.038 A 
BRANCH  10  14
HETATM   14  N   UNL     1      19.634  50.461  49.000  1.00  0.00    -0.321 N 
HETATM   15  C   UNL     1      18.640  50.346  49.957  1.00  0.00     0.279 C 
HETATM   16  O   UNL     1      18.764  49.804  51.050  1.00  0.00    -0.265 OA
HETATM   17  H   UNL     1      19.336  50.961  48.169  1.00  0.00     0.169 HD
BRANCH  15  18
HETATM   18  C   UNL     1      17.395  50.963  49.533  1.00  0.00     0.142 A 
HETATM   19  O   UNL     1      16.900  52.030  50.244  1.00  0.00    -0.317 OA
HETATM   20  C   UNL     1      15.742  52.407  49.643  1.00  0.00     0.143 A 
HETATM   21  C   UNL     1      15.473  51.601  48.563  1.00  0.00     0.027 A 
HETATM   22  C   UNL     1      16.539  50.672  48.489  1.00  0.00     0.045 A 
ENDBRANCH  15  18
ENDBRANCH  10  14
ENDBRANCH   1   7
BRANCH   3  23
HETATM   23  C   UNL     1      25.535  46.155  51.720  1.00  0.00     0.108 C 
HETATM   24  C   UNL     1      24.676  44.919  51.971  1.00  0.00     0.034 C 
BRANCH  23  25
HETATM   25  C   UNL     1      25.879  46.971  53.005  1.00  0.00     0.259 C 
BRANCH  25  26
HETATM   26  N   UNL     1      26.777  46.271  54.005  1.00  0.00    -0.069 N 
HETATM   27  H   UNL     1      26.130  45.812  54.683  1.00  0.00     0.280 HD
HETATM   28  C   UNL     1      27.643  45.182  53.430  1.00  0.00     0.239 C 
HETATM   29  C   UNL     1      28.306  44.406  54.571  1.00  0.00     0.007 C 
HETATM   30  C   UNL     1      29.140  45.349  55.445  1.00  0.00     0.007 C 
HETATM   31  C   UNL     1      29.168  43.272  54.022  1.00  0.00     0.011 C 
HETATM   32  C   UNL     1      28.295  46.510  55.957  1.00  0.00     0.028 C 
HETATM   33  C   UNL     1      27.584  47.246  54.829  1.00  0.00     0.235 C 
ENDBRANCH  25  26
ENDBRANCH  23  25
ENDBRANCH   3  23
TORSDOF 6
ENDMDL
MODEL 6
REMARK VINA RESULT:      -8.4      2.179      3.195
REMARK  6 active torsions:
REMARK  status: ('A' for Active; 'I' for Inactive)
REMARK    1  A    between atoms: C_3  and  N_4 
REMARK       I    between atoms: N_4  and  C_5 
REMARK    2  A    between atoms: C_5  and  C_6 
REMARK    3  A    between atoms: C_14  and  N_15 
REMARK       I    between atoms: N_15  and  C_16 
REMARK       I    between atoms: C_16  and  N_17 
REMARK    4  A    between atoms: N_17  and  C_18 
REMARK    5  A    between atoms: C_18  and  C_19 
REMARK    6  A    between atoms: C_19  and  N_20 
ROOT
HETATM    1  N   UNL     1      23.834  45.925  48.791  1.00  0.00    -0.309 N 
HETATM    2  C   UNL     1      24.717  45.674  49.788  1.00  0.00     0.321 C 
HETATM    3  N   UNL     1      24.275  45.758  51.066  1.00  0.00    -0.337 N 
HETATM    4  O   UNL     1      25.858  45.292  49.528  1.00  0.00    -0.247 OA
HETATM    5  H   UNL     1      24.147  45.571  47.894  1.00  0.00     0.170 HD
HETATM    6  H   UNL     1      23.271  45.851  51.181  1.00  0.00     0.164 HD
ENDROOT
BRANCH   1   7
HETATM    7  C   UNL     1      22.713  46.778  48.734  1.00  0.00     0.036 A 
HETATM    8  C   UNL     1      21.407  46.344  48.532  1.00  0.00     0.032 A 
HETATM    9  C   UNL     1      20.341  47.252  48.578  1.00  0.00     0.032 A 
HETATM   10  C   UNL     1      20.554  48.610  48.837  1.00  0.00     0.041 A 
HETATM   11  C   UNL     1      21.873  49.060  49.041  1.00  0.00    -0.033 A 
HETATM   12  C   UNL     1      22.195  50.501  49.343  1.00  0.00     0.050 C 
HETATM   13  C   UNL     1      22.934  48.134  48.997  1.00  0.00     0.038 A 
BRANCH  10  14
HETATM   14  N   UNL     1      19.497  49.541  48.930  1.00  0.00    -0.321 N 
HETATM   15  C   UNL     1      18.758  49.914  50.040  1.00  0.00     0.279 C 
HETATM   16  O   UNL     1      18.887  49.454  51.169  1.00  0.00    -0.265 OA
HETATM   17  H   UNL     1      19.249  50.053  48.091  1.00  0.00     0.169 HD
BRANCH  15  18
HETATM   18  C   UNL     1      17.789  50.952  49.731  1.00  0.00     0.142 A 
HETATM   19  O   UNL     1      16.635  50.616  49.066  1.00  0.00    -0.317 OA
HETATM   20  C   UNL     1      15.919  51.758  48.905  1.00  0.00     0.143 A 
HETATM   21  C   UNL     1      16.591  52.829  49.445  1.00  0.00     0.027 A 
HETATM   22  C   UNL     1      17.795  52.311  49.980  1.00  0.00     0.045 A 
ENDBRANCH  15  18
ENDBRANCH  10  14
ENDBRANCH   1   7
BRANCH   3  23
HETATM   23  C   UNL     1      25.107  45.764  52.275  1.00  0.00     0.108 C 
HETATM   24  C   UNL     1      26.103  46.918  52.225  1.00  0.00     0.034 C 
BRANCH  23  25
HETATM   25  C   UNL     1      25.729  44.392  52.681  1.00  0.00     0.259 C 
BRANCH  25  26
HETATM   26  N   UNL     1      27.166  44.442  53.162  1.00  0.00    -0.069 N 
HETATM   27  H   UNL     1      27.633  45.160  52.566  1.00  0.00     0.280 HD
HETATM   28  C   UNL     1      27.344  44.885  54.590  1.00  0.00     0.239 C 
HETATM   29  C   UNL     1      28.831  45.123  54.865  1.00  0.00     0.007 C 
HETATM   30  C   UNL     1      29.636  43.848  54.595  1.00  0.00     0.007 C 
HETATM   31  C   UNL     1      29.044  45.606  56.298  1.00  0.00     0.011 C 
HETATM   32  C   UNL     1      29.390  43.335  53.180  1.00  0.00     0.028 C 
HETATM   33  C   UNL     1      27.907  43.157  52.883  1.00  0.00     0.235 C 
ENDBRANCH  25  26
ENDBRANCH  23  25
ENDBRANCH   3  23
TORSDOF 6
ENDMDL
MODEL 7
REMARK VINA RESULT:      -8.2      1.876     10.715
REMARK  6 active torsions:
REMARK  status: ('A' for Active; 'I' for Inactive)
REMARK    1  A    between atoms: C_3  and  N_4 
REMARK       I    between atoms: N_4  and  C_5 
REMARK    2  A    between atoms: C_5  and  C_6 
REMARK    3  A    between atoms: C_14  and  N_15 
REMARK       I    between atoms: N_15  and  C_16 
REMARK       I    between atoms: C_16  and  N_17 
REMARK    4  A    between atoms: N_17  and  C_18 
REMARK    5  A    between atoms: C_18  and  C_19 
REMARK    6  A    between atoms: C_19  and  N_20 
ROOT
HETATM    1  N   UNL     1      22.725  46.229  49.019  1.00  0.00    -0.309 N 
HETATM    2  C   UNL     1      22.167  47.390  48.601  1.00  0.00     0.321 C 
HETATM    3  N   UNL     1      22.989  48.443  48.368  1.00  0.00    -0.337 N 
HETATM    4  O   UNL     1      20.963  47.450  48.354  1.00  0.00    -0.247 OA
HETATM    5  H   UNL     1      22.109  45.432  48.896  1.00  0.00     0.170 HD
HETATM    6  H   UNL     1      23.982  48.238  48.374  1.00  0.00     0.164 HD
ENDROOT
BRANCH   1   7
HETATM    7  C   UNL     1      23.873  45.975  49.797  1.00  0.00     0.036 A 
HETATM    8  C   UNL     1      24.639  46.963  50.410  1.00  0.00     0.032 A 
HETATM    9  C   UNL     1      25.713  46.617  51.240  1.00  0.00     0.032 A 
HETATM   10  C   UNL     1      26.041  45.279  51.484  1.00  0.00     0.041 A 
HETATM   11  C   UNL     1      25.274  44.271  50.867  1.00  0.00    -0.033 A 
HETATM   12  C   UNL     1      25.543  42.805  51.087  1.00  0.00     0.050 C 
HETATM   13  C   UNL     1      24.193  44.636  50.040  1.00  0.00     0.038 A 
BRANCH  10  14
HETATM   14  N   UNL     1      27.091  44.899  52.347  1.00  0.00    -0.321 N 
HETATM   15  C   UNL     1      27.156  44.972  53.728  1.00  0.00     0.279 C 
HETATM   16  O   UNL     1      26.282  45.425  54.459  1.00  0.00    -0.265 OA
HETATM   17  H   UNL     1      27.910  44.473  51.928  1.00  0.00     0.169 HD
BRANCH  15  18
HETATM   18  C   UNL     1      28.397  44.424  54.249  1.00  0.00     0.142 A 
HETATM   19  O   UNL     1      29.033  45.070  55.281  1.00  0.00    -0.317 OA
HETATM   20  C   UNL     1      30.153  44.358  55.568  1.00  0.00     0.143 A 
HETATM   21  C   UNL     1      30.258  43.268  54.736  1.00  0.00     0.027 A 
HETATM   22  C   UNL     1      29.126  43.307  53.888  1.00  0.00     0.045 A 
ENDBRANCH  15  18
ENDBRANCH  10  14
ENDBRANCH   1   7
BRANCH   3  23
HETATM   23  C   UNL     1      22.577  49.834  48.148  1.00  0.00     0.108 C 
HETATM   24  C   UNL     1      23.759  50.664  47.657  1.00  0.00     0.034 C 
BRANCH  23  25
HETATM   25  C   UNL     1      21.761  50.495  49.302  1.00  0.00     0.259 C 
BRANCH  25  26
HETATM   26  N   UNL     1      20.490  51.207  48.881  1.00  0.00    -0.069 N 
HETATM   27  H   UNL     1      20.774  52.194  48.696  1.00  0.00     0.280 HD
HETATM   28  C   UNL     1      19.864  50.694  47.611  1.00  0.00     0.239 C 
HETATM   29  C   UNL     1      18.745  51.644  47.178  1.00  0.00     0.007 C 
HETATM   30  C   UNL     1      17.692  51.770  48.282  1.00  0.00     0.007 C 
HETATM   31  C   UNL     1      18.110  51.169  45.873  1.00  0.00     0.011 C 
HETATM   32  C   UNL     1      18.329  52.198  49.600  1.00  0.00     0.028 C 
HETATM   33  C   UNL     1      19.483  51.290  50.003  1.00  0.00     0.235 C 
ENDBRANCH  25  26
ENDBRANCH  23  25
ENDBRANCH   3  23
TORSDOF 6
ENDMDL
MODEL 8
REMARK VINA RESULT:      -8.1      1.995     10.358
REMARK  6 active torsions:
REMARK  status: ('A' for Active; 'I' for Inactive)
REMARK    1  A    between atoms: C_3  and  N_4 
REMARK       I    between atoms: N_4  and  C_5 
REMARK    2  A    between atoms: C_5  and  C_6 
REMARK    3  A    between atoms: C_14  and  N_15 
REMARK       I    between atoms: N_15  and  C_16 
REMARK       I    between atoms: C_16  and  N_17 
REMARK    4  A    between atoms: N_17  and  C_18 
REMARK    5  A    between atoms: C_18  and  C_19 
REMARK    6  A    between atoms: C_19  and  N_20 
ROOT
HETATM    1  N   UNL     1      23.962  47.793  49.107  1.00  0.00    -0.309 N 
HETATM    2  C   UNL     1      22.789  47.477  48.507  1.00  0.00     0.321 C 
HETATM    3  N   UNL     1      21.962  46.613  49.144  1.00  0.00    -0.337 N 
HETATM    4  O   UNL     1      22.454  48.034  47.461  1.00  0.00    -0.247 OA
HETATM    5  H   UNL     1      24.381  48.636  48.727  1.00  0.00     0.170 HD
HETATM    6  H   UNL     1      22.212  46.386  50.100  1.00  0.00     0.164 HD
ENDROOT
BRANCH   1   7
HETATM    7  C   UNL     1      24.800  47.049  49.963  1.00  0.00     0.036 A 
HETATM    8  C   UNL     1      25.593  45.983  49.550  1.00  0.00     0.032 A 
HETATM    9  C   UNL     1      26.464  45.355  50.451  1.00  0.00     0.032 A 
HETATM   10  C   UNL     1      26.570  45.784  51.778  1.00  0.00     0.041 A 
HETATM   11  C   UNL     1      25.769  46.861  52.206  1.00  0.00    -0.033 A 
HETATM   12  C   UNL     1      25.829  47.400  53.612  1.00  0.00     0.050 C 
HETATM   13  C   UNL     1      24.902  47.485  51.287  1.00  0.00     0.038 A 
BRANCH  10  14
HETATM   14  N   UNL     1      27.466  45.198  52.697  1.00  0.00    -0.321 N 
HETATM   15  C   UNL     1      27.868  43.877  52.803  1.00  0.00     0.279 C 
HETATM   16  O   UNL     1      27.469  42.953  52.102  1.00  0.00    -0.265 OA
HETATM   17  H   UNL     1      27.928  45.813  53.358  1.00  0.00     0.169 HD
BRANCH  15  18
HETATM   18  C   UNL     1      28.856  43.686  53.852  1.00  0.00     0.142 A 
HETATM   19  O   UNL     1      29.064  44.689  54.767  1.00  0.00    -0.317 OA
HETATM   20  C   UNL     1      30.027  44.257  55.621  1.00  0.00     0.143 A 
HETATM   21  C   UNL     1      30.451  42.996  55.273  1.00  0.00     0.027 A 
HETATM   22  C   UNL     1      29.695  42.626  54.135  1.00  0.00     0.045 A 
ENDBRANCH  15  18
ENDBRANCH  10  14
ENDBRANCH   1   7
BRANCH   3  23
HETATM   23  C   UNL     1      20.778  45.962  48.571  1.00  0.00     0.108 C 
HETATM   24  C   UNL     1      21.192  44.981  47.478  1.00  0.00     0.034 C 
BRANCH  23  25
HETATM   25  C   UNL     1      19.602  46.908  48.176  1.00  0.00     0.259 C 
BRANCH  25  26
HETATM   26  N   UNL     1      19.547  48.229  48.918  1.00  0.00    -0.069 N 
HETATM   27  H   UNL     1      20.512  48.382  49.282  1.00  0.00     0.280 HD
HETATM   28  C   UNL     1      19.211  49.424  48.066  1.00  0.00     0.239 C 
HETATM   29  C   UNL     1      19.427  50.703  48.879  1.00  0.00     0.007 C 
HETATM   30  C   UNL     1      18.561  50.685  50.143  1.00  0.00     0.007 C 
HETATM   31  C   UNL     1      19.127  51.937  48.032  1.00  0.00     0.011 C 
HETATM   32  C   UNL     1      18.823  49.430  50.968  1.00  0.00     0.028 C 
HETATM   33  C   UNL     1      18.670  48.158  50.145  1.00  0.00     0.235 C 
ENDBRANCH  25  26
ENDBRANCH  23  25
ENDBRANCH   3  23
TORSDOF 6
ENDMDL
MODEL 9
REMARK VINA RESULT:      -8.1      1.861      2.666
REMARK  6 active torsions:
REMARK  status: ('A' for Active; 'I' for Inactive)
REMARK    1  A    between atoms: C_3  and  N_4 
REMARK       I    between atoms: N_4  and  C_5 
REMARK    2  A    between atoms: C_5  and  C_6 
REMARK    3  A    between atoms: C_14  and  N_15 
REMARK       I    between atoms: N_15  and  C_16 
REMARK       I    between atoms: C_16  and  N_17 
REMARK    4  A    between atoms: N_17  and  C_18 
REMARK    5  A    between atoms: C_18  and  C_19 
REMARK    6  A    between atoms: C_19  and  N_20 
ROOT
HETATM    1  N   UNL     1      24.877  44.872  48.771  1.00  0.00    -0.309 N 
HETATM    2  C   UNL     1      25.703  44.277  49.665  1.00  0.00     0.321 C 
HETATM    3  N   UNL     1      25.324  44.258  50.966  1.00  0.00    -0.337 N 
HETATM    4  O   UNL     1      26.718  43.694  49.285  1.00  0.00    -0.247 OA
HETATM    5  H   UNL     1      25.078  44.602  47.814  1.00  0.00     0.170 HD
HETATM    6  H   UNL     1      24.371  44.554  51.153  1.00  0.00     0.164 HD
ENDROOT
BRANCH   1   7
HETATM    7  C   UNL     1      23.983  45.954  48.907  1.00  0.00     0.036 A 
HETATM    8  C   UNL     1      24.260  47.114  49.623  1.00  0.00     0.032 A 
HETATM    9  C   UNL     1      23.347  48.178  49.632  1.00  0.00     0.032 A 
HETATM   10  C   UNL     1      22.145  48.111  48.919  1.00  0.00     0.041 A 
HETATM   11  C   UNL     1      21.855  46.939  48.193  1.00  0.00    -0.033 A 
HETATM   12  C   UNL     1      20.594  46.785  47.383  1.00  0.00     0.050 C 
HETATM   13  C   UNL     1      22.785  45.880  48.189  1.00  0.00     0.038 A 
BRANCH  10  14
HETATM   14  N   UNL     1      21.227  49.181  48.876  1.00  0.00    -0.321 N 
HETATM   15  C   UNL     1      20.012  49.314  49.528  1.00  0.00     0.279 C 
HETATM   16  O   UNL     1      19.500  48.474  50.259  1.00  0.00    -0.265 OA
HETATM   17  H   UNL     1      21.483  49.997  48.333  1.00  0.00     0.169 HD
BRANCH  15  18
HETATM   18  C   UNL     1      19.387  50.600  49.266  1.00  0.00     0.142 A 
HETATM   19  O   UNL     1      18.293  50.977  50.006  1.00  0.00    -0.317 OA
HETATM   20  C   UNL     1      17.911  52.201  49.561  1.00  0.00     0.143 A 
HETATM   21  C   UNL     1      18.732  52.621  48.541  1.00  0.00     0.027 A 
HETATM   22  C   UNL     1      19.686  51.592  48.352  1.00  0.00     0.045 A 
ENDBRANCH  15  18
ENDBRANCH  10  14
ENDBRANCH   1   7
BRANCH   3  23
HETATM   23  C   UNL     1      26.164  43.888  52.111  1.00  0.00     0.108 C 
HETATM   24  C   UNL     1      26.724  42.481  51.922  1.00  0.00     0.034 C 
BRANCH  23  25
HETATM   25  C   UNL     1      25.552  44.154  53.521  1.00  0.00     0.259 C 
BRANCH  25  26
HETATM   26  N   UNL     1      26.200  45.271  54.315  1.00  0.00    -0.069 N 
HETATM   27  H   UNL     1      25.734  45.253  55.249  1.00  0.00     0.280 HD
HETATM   28  C   UNL     1      27.675  45.102  54.566  1.00  0.00     0.239 C 
HETATM   29  C   UNL     1      28.143  46.158  55.570  1.00  0.00     0.007 C 
HETATM   30  C   UNL     1      27.846  47.566  55.044  1.00  0.00     0.007 C 
HETATM   31  C   UNL     1      29.631  45.993  55.872  1.00  0.00     0.011 C 
HETATM   32  C   UNL     1      26.370  47.720  54.696  1.00  0.00     0.028 C 
HETATM   33  C   UNL     1      25.886  46.633  53.745  1.00  0.00     0.235 C 
ENDBRANCH  25  26
ENDBRANCH  23  25
ENDBRANCH   3  23
TORSDOF 6
ENDMDL
MODEL 10
REMARK VINA RESULT:      -7.9     11.263     14.107
REMARK  6 active torsions:
REMARK  status: ('A' for Active; 'I' for Inactive)
REMARK    1  A    between atoms: C_3  and  N_4 
REMARK       I    between atoms: N_4  and  C_5 
REMARK    2  A    between atoms: C_5  and  C_6 
REMARK    3  A    between atoms: C_14  and  N_15 
REMARK       I    between atoms: N_15  and  C_16 
REMARK       I    between atoms: C_16  and  N_17 
REMARK    4  A    between atoms: N_17  and  C_18 
REMARK    5  A    between atoms: C_18  and  C_19 
REMARK    6  A    between atoms: C_19  and  N_20 
ROOT
HETATM    1  N   UNL     1      26.536  50.843  38.860  1.00  0.00    -0.309 N 
HETATM    2  C   UNL     1      25.759  49.733  38.838  1.00  0.00     0.321 C 
HETATM    3  N   UNL     1      25.662  49.001  39.975  1.00  0.00    -0.337 N 
HETATM    4  O   UNL     1      25.093  49.457  37.840  1.00  0.00    -0.247 OA
HETATM    5  H   UNL     1      26.335  51.475  38.092  1.00  0.00     0.170 HD
HETATM    6  H   UNL     1      26.056  49.426  40.808  1.00  0.00     0.164 HD
ENDROOT
BRANCH   1   7
HETATM    7  C   UNL     1      27.702  51.148  39.591  1.00  0.00     0.036 A 
HETATM    8  C   UNL     1      27.704  51.675  40.878  1.00  0.00     0.032 A 
HETATM    9  C   UNL     1      28.910  51.865  41.566  1.00  0.00     0.032 A 
HETATM   10  C   UNL     1      30.138  51.524  40.989  1.00  0.00     0.041 A 
HETATM   11  C   UNL     1      30.146  50.992  39.684  1.00  0.00    -0.033 A 
HETATM   12  C   UNL     1      31.419  50.580  38.990  1.00  0.00     0.050 C 
HETATM   13  C   UNL     1      28.925  50.801  39.008  1.00  0.00     0.038 A 
BRANCH  10  14
HETATM   14  N   UNL     1      31.364  51.666  41.671  1.00  0.00    -0.321 N 
HETATM   15  C   UNL     1      31.940  50.832  42.615  1.00  0.00     0.279 C 
HETATM   16  O   UNL     1      31.440  49.802  43.053  1.00  0.00    -0.265 OA
HETATM   17  H   UNL     1      31.947  52.459  41.428  1.00  0.00     0.169 HD
BRANCH  15  18
HETATM   18  C   UNL     1      33.247  51.304  43.041  1.00  0.00     0.142 A 
HETATM   19  O   UNL     1      34.327  51.124  42.212  1.00  0.00    -0.317 OA
HETATM   20  C   UNL     1      35.408  51.647  42.845  1.00  0.00     0.143 A 
HETATM   21  C   UNL     1      35.051  52.154  44.072  1.00  0.00     0.027 A 
HETATM   22  C   UNL     1      33.658  51.937  44.198  1.00  0.00     0.045 A 
ENDBRANCH  15  18
ENDBRANCH  10  14
ENDBRANCH   1   7
BRANCH   3  23
HETATM   23  C   UNL     1      25.082  47.659  40.098  1.00  0.00     0.108 C 
HETATM   24  C   UNL     1      23.596  47.755  40.432  1.00  0.00     0.034 C 
BRANCH  23  25
HETATM   25  C   UNL     1      25.877  46.650  40.982  1.00  0.00     0.259 C 
BRANCH  25  26
HETATM   26  N   UNL     1      27.346  46.494  40.639  1.00  0.00    -0.069 N 
HETATM   27  H   UNL     1      27.708  45.769  41.296  1.00  0.00     0.280 HD
HETATM   28  C   UNL     1      27.625  45.993  39.247  1.00  0.00     0.239 C 
HETATM   29  C   UNL     1      29.112  45.653  39.119  1.00  0.00     0.007 C 
HETATM   30  C   UNL     1      29.970  46.884  39.428  1.00  0.00     0.007 C 
HETATM   31  C   UNL     1      29.422  45.110  37.726  1.00  0.00     0.011 C 
HETATM   32  C   UNL     1      29.630  47.459  40.799  1.00  0.00     0.028 C 
HETATM   33  C   UNL     1      28.141  47.739  40.951  1.00  0.00     0.235 C 
ENDBRANCH  25  26
ENDBRANCH  23  25
ENDBRANCH   3  23
TORSDOF 6
ENDMDL
