MODEL 1
REMARK VINA RESULT:      -9.5      0.000      0.000
REMARK  4 active torsions:
REMARK  status: ('A' for Active; 'I' for Inactive)
REMARK    1  A    between atoms: C_4  and  O_5 
REMARK    2  A    between atoms: C_6  and  C_7 
REMARK    3  A    between atoms: C_11  and  C_12 
REMARK       I    between atoms: C_12  and  N_13 
REMARK    4  A    between atoms: C_19  and  O_20 
ROOT
HETATM    1  C   UNL     1      25.546  46.171  49.635  1.00  0.00     0.065 A 
HETATM    2  N   UNL     1      26.898  45.967  49.562  1.00  0.00    -0.277 N 
HETATM    3  H   UNL     1      27.588  46.661  49.287  1.00  0.00     0.189 HD
HETATM    4  N   UNL     1      27.307  44.752  49.967  1.00  0.00    -0.169 NA
HETATM    5  C   UNL     1      26.160  44.087  50.224  1.00  0.00     0.148 A 
HETATM    6  C   UNL     1      25.042  44.948  50.036  1.00  0.00     0.071 A 
ENDROOT
BRANCH   5   7
HETATM    7  C   UNL     1      26.095  42.693  50.733  1.00  0.00     0.299 C 
HETATM    8  N   UNL     1      27.242  42.163  51.267  1.00  0.00    -0.189 NA
HETATM    9  C   UNL     1      27.742  42.693  52.326  1.00  0.00     0.154 C 
HETATM   10  S   UNL     1      29.143  41.855  53.074  1.00  0.00    -0.056 SA
HETATM   11  N   UNL     1      27.427  43.837  53.035  1.00  0.00    -0.236 NA
HETATM   12  C   UNL     1      29.355  43.186  54.232  1.00  0.00     0.032 A 
HETATM   13  C   UNL     1      28.383  44.167  54.014  1.00  0.00     0.032 A 
HETATM   14  C   UNL     1      30.327  43.333  55.206  1.00  0.00     0.057 A 
HETATM   15  C   UNL     1      28.357  45.309  54.799  1.00  0.00     0.028 A 
HETATM   16  C   UNL     1      29.340  45.473  55.785  1.00  0.00     0.038 A 
HETATM   17  C   UNL     1      30.323  44.491  55.990  1.00  0.00     0.069 A 
HETATM   18  H   UNL     1      27.119  44.621  52.462  1.00  0.00     0.136 HD
HETATM   19  O   UNL     1      25.062  42.039  50.624  1.00  0.00    -0.263 OA
BRANCH  17  20
HETATM   20  O   UNL     1      31.323  44.547  56.923  1.00  0.00    -0.356 OA
HETATM   21  C   UNL     1      32.028  43.341  57.189  1.00  0.00     0.210 C 
ENDBRANCH  17  20
ENDBRANCH   5   7
BRANCH   1  22
HETATM   22  C   UNL     1      24.913  47.462  49.338  1.00  0.00     0.025 A 
HETATM   23  C   UNL     1      25.649  48.591  48.931  1.00  0.00     0.078 A 
HETATM   24  C   UNL     1      25.025  49.821  48.690  1.00  0.00     0.044 A 
HETATM   25  C   UNL     1      23.642  49.953  48.858  1.00  0.00    -0.059 A 
HETATM   26  C   UNL     1      22.957  51.260  48.586  1.00  0.00     0.048 C 
HETATM   27  C   UNL     1      22.897  48.833  49.238  1.00  0.00     0.008 A 
HETATM   28  C   UNL     1      23.525  47.607  49.479  1.00  0.00     0.017 A 
BRANCH  23  29
HETATM   29  O   UNL     1      27.012  48.500  48.767  1.00  0.00    -0.360 OA
HETATM   30  H   UNL     1      27.211  48.621  47.822  1.00  0.00     0.217 HD
ENDBRANCH  23  29
ENDBRANCH   1  22
TORSDOF 4
ENDMDL
MODEL 2
REMARK VINA RESULT:      -9.1      2.736      8.246
REMARK  4 active torsions:
REMARK  status: ('A' for Active; 'I' for Inactive)
REMARK    1  A    between atoms: C_4  and  O_5 
REMARK    2  A    between atoms: C_6  and  C_7 
REMARK    3  A    between atoms: C_11  and  C_12 
REMARK       I    between atoms: C_12  and  N_13 
REMARK    4  A    between atoms: C_19  and  O_20 
ROOT
HETATM    1  C   UNL     1      27.344  43.902  52.918  1.00  0.00     0.065 A 
HETATM    2  N   UNL     1      26.008  43.614  52.991  1.00  0.00    -0.277 N 
HETATM    3  H   UNL     1      25.428  43.696  53.822  1.00  0.00     0.189 HD
HETATM    4  N   UNL     1      25.443  43.263  51.822  1.00  0.00    -0.169 NA
HETATM    5  C   UNL     1      26.478  43.221  50.956  1.00  0.00     0.148 A 
HETATM    6  C   UNL     1      27.678  43.626  51.606  1.00  0.00     0.071 A 
ENDROOT
BRANCH   5   7
HETATM    7  C   UNL     1      26.349  42.903  49.510  1.00  0.00     0.299 C 
HETATM    8  N   UNL     1      25.115  43.073  48.936  1.00  0.00    -0.189 NA
HETATM    9  C   UNL     1      24.606  44.251  48.883  1.00  0.00     0.154 C 
HETATM   10  S   UNL     1      23.069  44.436  47.971  1.00  0.00    -0.056 SA
HETATM   11  N   UNL     1      24.997  45.462  49.421  1.00  0.00    -0.236 NA
HETATM   12  C   UNL     1      22.929  46.127  48.497  1.00  0.00     0.032 A 
HETATM   13  C   UNL     1      24.019  46.468  49.304  1.00  0.00     0.032 A 
HETATM   14  C   UNL     1      21.915  47.030  48.232  1.00  0.00     0.057 A 
HETATM   15  C   UNL     1      24.119  47.742  49.838  1.00  0.00     0.028 A 
HETATM   16  C   UNL     1      23.095  48.664  49.583  1.00  0.00     0.038 A 
HETATM   17  C   UNL     1      21.994  48.313  48.783  1.00  0.00     0.069 A 
HETATM   18  H   UNL     1      25.432  45.399  50.340  1.00  0.00     0.136 HD
HETATM   19  O   UNL     1      27.306  42.459  48.884  1.00  0.00    -0.263 OA
BRANCH  17  20
HETATM   20  O   UNL     1      20.944  49.132  48.468  1.00  0.00    -0.356 OA
HETATM   21  C   UNL     1      20.058  49.482  49.523  1.00  0.00     0.210 C 
ENDBRANCH  17  20
ENDBRANCH   5   7
BRANCH   1  22
HETATM   22  C   UNL     1      28.119  44.405  54.060  1.00  0.00     0.025 A 
HETATM   23  C   UNL     1      27.720  45.526  54.813  1.00  0.00     0.078 A 
HETATM   24  C   UNL     1      28.496  46.006  55.874  1.00  0.00     0.044 A 
HETATM   25  C   UNL     1      29.701  45.378  56.206  1.00  0.00    -0.059 A 
HETATM   26  C   UNL     1      30.534  45.870  57.352  1.00  0.00     0.048 C 
HETATM   27  C   UNL     1      30.096  44.249  55.482  1.00  0.00     0.008 A 
HETATM   28  C   UNL     1      29.318  43.773  54.422  1.00  0.00     0.017 A 
BRANCH  23  29
HETATM   29  O   UNL     1      26.546  46.176  54.507  1.00  0.00    -0.360 OA
HETATM   30  H   UNL     1      26.607  46.495  53.590  1.00  0.00     0.217 HD
ENDBRANCH  23  29
ENDBRANCH   1  22
TORSDOF 4
ENDMDL
MODEL 3
REMARK VINA RESULT:      -8.8      2.256      7.786
REMARK  4 active torsions:
REMARK  status: ('A' for Active; 'I' for Inactive)
REMARK    1  A    between atoms: C_4  and  O_5 
REMARK    2  A    between atoms: C_6  and  C_7 
REMARK    3  A    between atoms: C_11  and  C_12 
REMARK       I    between atoms: C_12  and  N_13 
REMARK    4  A    between atoms: C_19  and  O_20 
ROOT
HETATM    1  C   UNL     1      28.589  42.658  53.381  1.00  0.00     0.065 A 
HETATM    2  N   UNL     1      27.803  41.560  53.605  1.00  0.00    -0.277 N 
HETATM    3  H   UNL     1      27.516  41.212  54.516  1.00  0.00     0.189 HD
HETATM    4  N   UNL     1      27.335  40.966  52.493  1.00  0.00    -0.169 NA
HETATM    5  C   UNL     1      27.924  41.645  51.485  1.00  0.00     0.148 A 
HETATM    6  C   UNL     1      28.705  42.715  52.005  1.00  0.00     0.071 A 
ENDROOT
BRANCH   5   7
HETATM    7  C   UNL     1      27.692  41.371  50.043  1.00  0.00     0.299 C 
HETATM    8  N   UNL     1      26.454  41.672  49.536  1.00  0.00    -0.189 NA
HETATM    9  C   UNL     1      26.061  42.895  49.527  1.00  0.00     0.154 C 
HETATM   10  S   UNL     1      24.507  43.248  48.699  1.00  0.00    -0.056 SA
HETATM   11  N   UNL     1      26.597  44.051  50.064  1.00  0.00    -0.236 NA
HETATM   12  C   UNL     1      24.561  44.934  49.258  1.00  0.00     0.032 A 
HETATM   13  C   UNL     1      25.718  45.149  50.013  1.00  0.00     0.032 A 
HETATM   14  C   UNL     1      23.629  45.937  49.059  1.00  0.00     0.057 A 
HETATM   15  C   UNL     1      25.970  46.397  50.561  1.00  0.00     0.028 A 
HETATM   16  C   UNL     1      25.030  47.420  50.373  1.00  0.00     0.038 A 
HETATM   17  C   UNL     1      23.862  47.194  49.626  1.00  0.00     0.069 A 
HETATM   18  H   UNL     1      27.068  43.926  50.958  1.00  0.00     0.136 HD
HETATM   19  O   UNL     1      28.569  40.849  49.361  1.00  0.00    -0.263 OA
BRANCH  17  20
HETATM   20  O   UNL     1      22.883  48.118  49.378  1.00  0.00    -0.356 OA
HETATM   21  C   UNL     1      23.304  49.400  48.926  1.00  0.00     0.210 C 
ENDBRANCH  17  20
ENDBRANCH   5   7
BRANCH   1  22
HETATM   22  C   UNL     1      29.109  43.506  54.462  1.00  0.00     0.025 A 
HETATM   23  C   UNL     1      28.496  44.716  54.838  1.00  0.00     0.078 A 
HETATM   24  C   UNL     1      29.032  45.523  55.848  1.00  0.00     0.044 A 
HETATM   25  C   UNL     1      30.207  45.141  56.504  1.00  0.00    -0.059 A 
HETATM   26  C   UNL     1      30.784  45.987  57.600  1.00  0.00     0.048 C 
HETATM   27  C   UNL     1      30.812  43.930  56.157  1.00  0.00     0.008 A 
HETATM   28  C   UNL     1      30.273  43.127  55.147  1.00  0.00     0.017 A 
BRANCH  23  29
HETATM   29  O   UNL     1      27.345  45.129  54.206  1.00  0.00    -0.360 OA
HETATM   30  H   UNL     1      27.025  44.396  53.651  1.00  0.00     0.217 HD
ENDBRANCH  23  29
ENDBRANCH   1  22
TORSDOF 4
ENDMDL
MODEL 4
REMARK VINA RESULT:      -8.7      2.930      8.163
REMARK  4 active torsions:
REMARK  status: ('A' for Active; 'I' for Inactive)
REMARK    1  A    between atoms: C_4  and  O_5 
REMARK    2  A    between atoms: C_6  and  C_7 
REMARK    3  A    between atoms: C_11  and  C_12 
REMARK       I    between atoms: C_12  and  N_13 
REMARK    4  A    between atoms: C_19  and  O_20 
ROOT
HETATM    1  C   UNL     1      27.519  41.690  51.592  1.00  0.00     0.065 A 
HETATM    2  N   UNL     1      26.653  40.650  51.796  1.00  0.00    -0.277 N 
HETATM    3  H   UNL     1      26.453  40.211  52.691  1.00  0.00     0.189 HD
HETATM    4  N   UNL     1      25.977  40.257  50.702  1.00  0.00    -0.169 NA
HETATM    5  C   UNL     1      26.498  41.007  49.707  1.00  0.00     0.148 A 
HETATM    6  C   UNL     1      27.456  41.921  50.232  1.00  0.00     0.071 A 
ENDROOT
BRANCH   5   7
HETATM    7  C   UNL     1      26.047  40.953  48.292  1.00  0.00     0.299 C 
HETATM    8  N   UNL     1      24.802  41.452  48.008  1.00  0.00    -0.189 NA
HETATM    9  C   UNL     1      24.571  42.701  48.198  1.00  0.00     0.154 C 
HETATM   10  S   UNL     1      22.979  43.329  47.650  1.00  0.00    -0.056 SA
HETATM   11  N   UNL     1      25.314  43.711  48.780  1.00  0.00    -0.236 NA
HETATM   12  C   UNL     1      23.320  44.911  48.385  1.00  0.00     0.032 A 
HETATM   13  C   UNL     1      24.584  44.896  48.984  1.00  0.00     0.032 A 
HETATM   14  C   UNL     1      22.505  46.027  48.441  1.00  0.00     0.057 A 
HETATM   15  C   UNL     1      25.061  46.026  49.629  1.00  0.00     0.028 A 
HETATM   16  C   UNL     1      24.243  47.161  49.698  1.00  0.00     0.038 A 
HETATM   17  C   UNL     1      22.968  47.166  49.108  1.00  0.00     0.069 A 
HETATM   18  H   UNL     1      25.879  43.418  49.575  1.00  0.00     0.136 HD
HETATM   19  O   UNL     1      26.754  40.431  47.435  1.00  0.00    -0.263 OA
BRANCH  17  20
HETATM   20  O   UNL     1      22.091  48.217  49.112  1.00  0.00    -0.356 OA
HETATM   21  C   UNL     1      21.412  48.497  47.894  1.00  0.00     0.210 C 
ENDBRANCH  17  20
ENDBRANCH   5   7
BRANCH   1  22
HETATM   22  C   UNL     1      28.270  42.333  52.679  1.00  0.00     0.025 A 
HETATM   23  C   UNL     1      27.644  43.091  53.687  1.00  0.00     0.078 A 
HETATM   24  C   UNL     1      28.386  43.723  54.692  1.00  0.00     0.044 A 
HETATM   25  C   UNL     1      29.781  43.618  54.708  1.00  0.00    -0.059 A 
HETATM   26  C   UNL     1      30.589  44.275  55.788  1.00  0.00     0.048 C 
HETATM   27  C   UNL     1      30.413  42.848  53.727  1.00  0.00     0.008 A 
HETATM   28  C   UNL     1      29.666  42.218  52.725  1.00  0.00     0.017 A 
BRANCH  23  29
HETATM   29  O   UNL     1      26.275  43.225  53.696  1.00  0.00    -0.360 OA
HETATM   30  H   UNL     1      26.057  44.123  53.390  1.00  0.00     0.217 HD
ENDBRANCH  23  29
ENDBRANCH   1  22
TORSDOF 4
ENDMDL
MODEL 5
REMARK VINA RESULT:      -8.7      3.302      4.537
REMARK  4 active torsions:
REMARK  status: ('A' for Active; 'I' for Inactive)
REMARK    1  A    between atoms: C_4  and  O_5 
REMARK    2  A    between atoms: C_6  and  C_7 
REMARK    3  A    between atoms: C_11  and  C_12 
REMARK       I    between atoms: C_12  and  N_13 
REMARK    4  A    between atoms: C_19  and  O_20 
ROOT
HETATM    1  C   UNL     1      21.790  48.384  49.089  1.00  0.00     0.065 A 
HETATM    2  N   UNL     1      23.067  48.472  49.577  1.00  0.00    -0.277 N 
HETATM    3  H   UNL     1      23.472  49.284  50.036  1.00  0.00     0.189 HD
HETATM    4  N   UNL     1      23.785  47.339  49.483  1.00  0.00    -0.169 NA
HETATM    5  C   UNL     1      22.977  46.493  48.809  1.00  0.00     0.148 A 
HETATM    6  C   UNL     1      21.720  47.111  48.557  1.00  0.00     0.071 A 
ENDROOT
BRANCH   5   7
HETATM    7  C   UNL     1      23.324  45.086  48.481  1.00  0.00     0.299 C 
HETATM    8  N   UNL     1      24.621  44.692  48.690  1.00  0.00    -0.189 NA
HETATM    9  C   UNL     1      25.090  44.693  49.886  1.00  0.00     0.154 C 
HETATM   10  S   UNL     1      26.734  44.008  50.119  1.00  0.00    -0.056 SA
HETATM   11  N   UNL     1      24.583  45.151  51.088  1.00  0.00    -0.236 NA
HETATM   12  C   UNL     1      26.737  44.522  51.820  1.00  0.00     0.032 A 
HETATM   13  C   UNL     1      25.531  45.159  52.128  1.00  0.00     0.032 A 
HETATM   14  C   UNL     1      27.746  44.390  52.757  1.00  0.00     0.057 A 
HETATM   15  C   UNL     1      25.310  45.653  53.403  1.00  0.00     0.028 A 
HETATM   16  C   UNL     1      26.327  45.532  54.360  1.00  0.00     0.038 A 
HETATM   17  C   UNL     1      27.542  44.904  54.042  1.00  0.00     0.069 A 
HETATM   18  H   UNL     1      24.023  45.999  51.017  1.00  0.00     0.136 HD
HETATM   19  O   UNL     1      22.483  44.336  47.994  1.00  0.00    -0.263 OA
BRANCH  17  20
HETATM   20  O   UNL     1      28.597  44.729  54.896  1.00  0.00    -0.356 OA
HETATM   21  C   UNL     1      29.113  45.891  55.533  1.00  0.00     0.210 C 
ENDBRANCH  17  20
ENDBRANCH   5   7
BRANCH   1  22
HETATM   22  C   UNL     1      20.815  49.477  49.195  1.00  0.00     0.025 A 
HETATM   23  C   UNL     1      19.623  49.360  49.935  1.00  0.00     0.078 A 
HETATM   24  C   UNL     1      18.693  50.404  49.990  1.00  0.00     0.044 A 
HETATM   25  C   UNL     1      18.930  51.595  49.295  1.00  0.00    -0.059 A 
HETATM   26  C   UNL     1      17.951  52.730  49.359  1.00  0.00     0.048 C 
HETATM   27  C   UNL     1      20.121  51.733  48.577  1.00  0.00     0.008 A 
HETATM   28  C   UNL     1      21.047  50.687  48.525  1.00  0.00     0.017 A 
BRANCH  23  29
HETATM   29  O   UNL     1      19.351  48.199  50.621  1.00  0.00    -0.360 OA
HETATM   30  H   UNL     1      18.487  48.299  51.056  1.00  0.00     0.217 HD
ENDBRANCH  23  29
ENDBRANCH   1  22
TORSDOF 4
ENDMDL
MODEL 6
REMARK VINA RESULT:      -8.7      1.753      2.420
REMARK  4 active torsions:
REMARK  status: ('A' for Active; 'I' for Inactive)
REMARK    1  A    between atoms: C_4  and  O_5 
REMARK    2  A    between atoms: C_6  and  C_7 
REMARK    3  A    between atoms: C_11  and  C_12 
REMARK       I    between atoms: C_12  and  N_13 
REMARK    4  A    between atoms: C_19  and  O_20 
ROOT
HETATM    1  C   UNL     1      23.710  47.579  49.242  1.00  0.00     0.065 A 
HETATM    2  N   UNL     1      25.030  47.743  49.564  1.00  0.00    -0.277 N 
HETATM    3  H   UNL     1      25.509  48.635  49.668  1.00  0.00     0.189 HD
HETATM    4  N   UNL     1      25.692  46.603  49.827  1.00  0.00    -0.169 NA
HETATM    5  C   UNL     1      24.791  45.632  49.566  1.00  0.00     0.148 A 
HETATM    6  C   UNL     1      23.539  46.208  49.209  1.00  0.00     0.071 A 
ENDROOT
BRANCH   5   7
HETATM    7  C   UNL     1      25.051  44.179  49.739  1.00  0.00     0.299 C 
HETATM    8  N   UNL     1      26.285  43.811  50.210  1.00  0.00    -0.189 NA
HETATM    9  C   UNL     1      26.639  44.174  51.390  1.00  0.00     0.154 C 
HETATM   10  S   UNL     1      28.192  43.522  52.014  1.00  0.00    -0.056 SA
HETATM   11  N   UNL     1      26.059  45.017  52.321  1.00  0.00    -0.236 NA
HETATM   12  C   UNL     1      28.076  44.553  53.456  1.00  0.00     0.032 A 
HETATM   13  C   UNL     1      26.903  45.313  53.407  1.00  0.00     0.032 A 
HETATM   14  C   UNL     1      28.979  44.681  54.497  1.00  0.00     0.057 A 
HETATM   15  C   UNL     1      26.604  46.199  54.429  1.00  0.00     0.028 A 
HETATM   16  C   UNL     1      27.513  46.343  55.486  1.00  0.00     0.038 A 
HETATM   17  C   UNL     1      28.698  45.589  55.523  1.00  0.00     0.069 A 
HETATM   18  H   UNL     1      25.580  45.823  51.924  1.00  0.00     0.136 HD
HETATM   19  O   UNL     1      24.200  43.354  49.419  1.00  0.00    -0.263 OA
BRANCH  17  20
HETATM   20  O   UNL     1      29.649  45.647  56.505  1.00  0.00    -0.356 OA
HETATM   21  C   UNL     1      29.224  46.075  57.793  1.00  0.00     0.210 C 
ENDBRANCH  17  20
ENDBRANCH   5   7
BRANCH   1  22
HETATM   22  C   UNL     1      22.792  48.704  49.024  1.00  0.00     0.025 A 
HETATM   23  C   UNL     1      23.243  50.003  48.721  1.00  0.00     0.078 A 
HETATM   24  C   UNL     1      22.347  51.066  48.553  1.00  0.00     0.044 A 
HETATM   25  C   UNL     1      20.972  50.856  48.694  1.00  0.00    -0.059 A 
HETATM   26  C   UNL     1      19.999  51.981  48.500  1.00  0.00     0.048 C 
HETATM   27  C   UNL     1      20.509  49.566  48.970  1.00  0.00     0.008 A 
HETATM   28  C   UNL     1      21.408  48.507  49.137  1.00  0.00     0.017 A 
BRANCH  23  29
HETATM   29  O   UNL     1      24.590  50.248  48.587  1.00  0.00    -0.360 OA
HETATM   30  H   UNL     1      25.012  49.442  48.241  1.00  0.00     0.217 HD
ENDBRANCH  23  29
ENDBRANCH   1  22
TORSDOF 4
ENDMDL
MODEL 7
REMARK VINA RESULT:      -8.6      2.992      8.617
REMARK  4 active torsions:
REMARK  status: ('A' for Active; 'I' for Inactive)
REMARK    1  A    between atoms: C_4  and  O_5 
REMARK    2  A    between atoms: C_6  and  C_7 
REMARK    3  A    between atoms: C_11  and  C_12 
REMARK       I    between atoms: C_12  and  N_13 
REMARK    4  A    between atoms: C_19  and  O_20 
ROOT
HETATM    1  C   UNL     1      26.246  43.294  52.262  1.00  0.00     0.065 A 
HETATM    2  N   UNL     1      25.058  43.865  52.631  1.00  0.00    -0.277 N 
HETATM    3  H   UNL     1      24.874  44.333  53.516  1.00  0.00     0.189 HD
HETATM    4  N   UNL     1      24.105  43.845  51.683  1.00  0.00    -0.169 NA
HETATM    5  C   UNL     1      24.657  43.137  50.675  1.00  0.00     0.148 A 
HETATM    6  C   UNL     1      25.999  42.787  51.001  1.00  0.00     0.071 A 
ENDROOT
BRANCH   5   7
HETATM    7  C   UNL     1      23.989  42.865  49.377  1.00  0.00     0.299 C 
HETATM    8  N   UNL     1      22.858  43.584  49.088  1.00  0.00    -0.189 NA
HETATM    9  C   UNL     1      22.944  44.859  48.955  1.00  0.00     0.154 C 
HETATM   10  S   UNL     1      21.467  45.724  48.411  1.00  0.00    -0.056 SA
HETATM   11  N   UNL     1      23.976  45.753  49.171  1.00  0.00    -0.236 NA
HETATM   12  C   UNL     1      22.263  47.294  48.657  1.00  0.00     0.032 A 
HETATM   13  C   UNL     1      23.569  47.099  49.116  1.00  0.00     0.032 A 
HETATM   14  C   UNL     1      21.736  48.562  48.487  1.00  0.00     0.057 A 
HETATM   15  C   UNL     1      24.382  48.188  49.385  1.00  0.00     0.028 A 
HETATM   16  C   UNL     1      23.859  49.478  49.223  1.00  0.00     0.038 A 
HETATM   17  C   UNL     1      22.541  49.668  48.776  1.00  0.00     0.069 A 
HETATM   18  H   UNL     1      24.579  45.523  49.959  1.00  0.00     0.136 HD
HETATM   19  O   UNL     1      24.417  41.991  48.629  1.00  0.00    -0.263 OA
BRANCH  17  20
HETATM   20  O   UNL     1      21.933  50.879  48.580  1.00  0.00    -0.356 OA
HETATM   21  C   UNL     1      20.629  51.043  49.125  1.00  0.00     0.210 C 
ENDBRANCH  17  20
ENDBRANCH   5   7
BRANCH   1  22
HETATM   22  C   UNL     1      27.442  43.309  53.115  1.00  0.00     0.025 A 
HETATM   23  C   UNL     1      28.072  42.129  53.556  1.00  0.00     0.078 A 
HETATM   24  C   UNL     1      29.190  42.171  54.398  1.00  0.00     0.044 A 
HETATM   25  C   UNL     1      29.702  43.400  54.827  1.00  0.00    -0.059 A 
HETATM   26  C   UNL     1      30.910  43.460  55.715  1.00  0.00     0.048 C 
HETATM   27  C   UNL     1      29.101  44.578  54.376  1.00  0.00     0.008 A 
HETATM   28  C   UNL     1      27.984  44.531  53.536  1.00  0.00     0.017 A 
BRANCH  23  29
HETATM   29  O   UNL     1      27.588  40.903  53.163  1.00  0.00    -0.360 OA
HETATM   30  H   UNL     1      28.270  40.467  52.624  1.00  0.00     0.217 HD
ENDBRANCH  23  29
ENDBRANCH   1  22
TORSDOF 4
ENDMDL
MODEL 8
REMARK VINA RESULT:      -8.5      3.720      8.304
REMARK  4 active torsions:
REMARK  status: ('A' for Active; 'I' for Inactive)
REMARK    1  A    between atoms: C_4  and  O_5 
REMARK    2  A    between atoms: C_6  and  C_7 
REMARK    3  A    between atoms: C_11  and  C_12 
REMARK       I    between atoms: C_12  and  N_13 
REMARK    4  A    between atoms: C_19  and  O_20 
ROOT
HETATM    1  C   UNL     1      27.993  44.072  52.812  1.00  0.00     0.065 A 
HETATM    2  N   UNL     1      28.340  44.116  51.489  1.00  0.00    -0.277 N 
HETATM    3  H   UNL     1      29.290  44.125  51.125  1.00  0.00     0.189 HD
HETATM    4  N   UNL     1      27.304  44.069  50.633  1.00  0.00    -0.169 NA
HETATM    5  C   UNL     1      26.216  44.098  51.431  1.00  0.00     0.148 A 
HETATM    6  C   UNL     1      26.611  44.089  52.799  1.00  0.00     0.071 A 
ENDROOT
BRANCH   5   7
HETATM    7  C   UNL     1      24.815  44.036  50.941  1.00  0.00     0.299 C 
HETATM    8  N   UNL     1      24.613  43.570  49.667  1.00  0.00    -0.189 NA
HETATM    9  C   UNL     1      24.930  42.356  49.388  1.00  0.00     0.154 C 
HETATM   10  S   UNL     1      24.487  41.753  47.755  1.00  0.00    -0.056 SA
HETATM   11  N   UNL     1      25.588  41.375  50.104  1.00  0.00    -0.236 NA
HETATM   12  C   UNL     1      25.364  40.235  48.049  1.00  0.00     0.032 A 
HETATM   13  C   UNL     1      25.926  40.250  49.329  1.00  0.00     0.032 A 
HETATM   14  C   UNL     1      25.549  39.168  47.188  1.00  0.00     0.057 A 
HETATM   15  C   UNL     1      26.666  39.167  49.776  1.00  0.00     0.028 A 
HETATM   16  C   UNL     1      26.867  38.082  48.912  1.00  0.00     0.038 A 
HETATM   17  C   UNL     1      26.313  38.079  47.621  1.00  0.00     0.069 A 
HETATM   18  H   UNL     1      26.337  41.716  50.704  1.00  0.00     0.136 HD
HETATM   19  O   UNL     1      23.893  44.440  51.643  1.00  0.00    -0.263 OA
BRANCH  17  20
HETATM   20  O   UNL     1      26.442  37.075  46.700  1.00  0.00    -0.356 OA
HETATM   21  C   UNL     1      27.762  36.635  46.405  1.00  0.00     0.210 C 
ENDBRANCH  17  20
ENDBRANCH   5   7
BRANCH   1  22
HETATM   22  C   UNL     1      28.979  44.006  53.898  1.00  0.00     0.025 A 
HETATM   23  C   UNL     1      30.018  43.055  53.922  1.00  0.00     0.078 A 
HETATM   24  C   UNL     1      30.924  42.991  54.987  1.00  0.00     0.044 A 
HETATM   25  C   UNL     1      30.807  43.875  56.064  1.00  0.00    -0.059 A 
HETATM   26  C   UNL     1      31.781  43.830  57.204  1.00  0.00     0.048 C 
HETATM   27  C   UNL     1      29.795  44.840  56.041  1.00  0.00     0.008 A 
HETATM   28  C   UNL     1      28.892  44.900  54.975  1.00  0.00     0.017 A 
BRANCH  23  29
HETATM   29  O   UNL     1      30.156  42.162  52.884  1.00  0.00    -0.360 OA
HETATM   30  H   UNL     1      30.691  42.585  52.190  1.00  0.00     0.217 HD
ENDBRANCH  23  29
ENDBRANCH   1  22
TORSDOF 4
ENDMDL
MODEL 9
REMARK VINA RESULT:      -8.5      4.555      9.503
REMARK  4 active torsions:
REMARK  status: ('A' for Active; 'I' for Inactive)
REMARK    1  A    between atoms: C_4  and  O_5 
REMARK    2  A    between atoms: C_6  and  C_7 
REMARK    3  A    between atoms: C_11  and  C_12 
REMARK       I    between atoms: C_12  and  N_13 
REMARK    4  A    between atoms: C_19  and  O_20 
ROOT
HETATM    1  C   UNL     1      23.814  45.046  50.161  1.00  0.00     0.065 A 
HETATM    2  N   UNL     1      22.659  44.325  50.302  1.00  0.00    -0.277 N 
HETATM    3  H   UNL     1      22.306  43.934  51.173  1.00  0.00     0.189 HD
HETATM    4  N   UNL     1      21.925  44.212  49.181  1.00  0.00    -0.169 NA
HETATM    5  C   UNL     1      22.682  44.800  48.231  1.00  0.00     0.148 A 
HETATM    6  C   UNL     1      23.864  45.341  48.812  1.00  0.00     0.071 A 
ENDROOT
BRANCH   5   7
HETATM    7  C   UNL     1      22.277  44.950  46.810  1.00  0.00     0.299 C 
HETATM    8  N   UNL     1      21.110  45.624  46.556  1.00  0.00    -0.189 NA
HETATM    9  C   UNL     1      21.021  46.865  46.875  1.00  0.00     0.154 C 
HETATM   10  S   UNL     1      19.535  47.736  46.365  1.00  0.00    -0.056 SA
HETATM   11  N   UNL     1      21.859  47.710  47.579  1.00  0.00    -0.236 NA
HETATM   12  C   UNL     1      20.035  49.178  47.275  1.00  0.00     0.032 A 
HETATM   13  C   UNL     1      21.267  48.947  47.895  1.00  0.00     0.032 A 
HETATM   14  C   UNL     1      19.356  50.372  47.435  1.00  0.00     0.057 A 
HETATM   15  C   UNL     1      21.853  49.936  48.670  1.00  0.00     0.028 A 
HETATM   16  C   UNL     1      21.172  51.148  48.845  1.00  0.00     0.038 A 
HETATM   17  C   UNL     1      19.928  51.370  48.232  1.00  0.00     0.069 A 
HETATM   18  H   UNL     1      22.357  47.269  48.350  1.00  0.00     0.136 HD
HETATM   19  O   UNL     1      22.945  44.440  45.916  1.00  0.00    -0.263 OA
BRANCH  17  20
HETATM   20  O   UNL     1      19.182  52.513  48.332  1.00  0.00    -0.356 OA
HETATM   21  C   UNL     1      18.149  52.527  49.309  1.00  0.00     0.210 C 
ENDBRANCH  17  20
ENDBRANCH   5   7
BRANCH   1  22
HETATM   22  C   UNL     1      24.699  45.372  51.287  1.00  0.00     0.025 A 
HETATM   23  C   UNL     1      25.066  44.424  52.261  1.00  0.00     0.078 A 
HETATM   24  C   UNL     1      25.882  44.770  53.345  1.00  0.00     0.044 A 
HETATM   25  C   UNL     1      26.346  46.082  53.485  1.00  0.00    -0.059 A 
HETATM   26  C   UNL     1      27.235  46.464  54.631  1.00  0.00     0.048 C 
HETATM   27  C   UNL     1      26.009  47.027  52.512  1.00  0.00     0.008 A 
HETATM   28  C   UNL     1      25.193  46.676  51.431  1.00  0.00     0.017 A 
BRANCH  23  29
HETATM   29  O   UNL     1      24.618  43.127  52.161  1.00  0.00    -0.360 OA
HETATM   30  H   UNL     1      24.326  42.977  51.245  1.00  0.00     0.217 HD
ENDBRANCH  23  29
ENDBRANCH   1  22
TORSDOF 4
ENDMDL
MODEL 10
REMARK VINA RESULT:      -8.4      2.230      2.660
REMARK  4 active torsions:
REMARK  status: ('A' for Active; 'I' for Inactive)
REMARK    1  A    between atoms: C_4  and  O_5 
REMARK    2  A    between atoms: C_6  and  C_7 
REMARK    3  A    between atoms: C_11  and  C_12 
REMARK       I    between atoms: C_12  and  N_13 
REMARK    4  A    between atoms: C_19  and  O_20 
ROOT
HETATM    1  C   UNL     1      24.885  43.877  49.026  1.00  0.00     0.065 A 
HETATM    2  N   UNL     1      26.186  44.297  49.100  1.00  0.00    -0.277 N 
HETATM    3  H   UNL     1      26.543  45.186  48.756  1.00  0.00     0.189 HD
HETATM    4  N   UNL     1      27.012  43.462  49.755  1.00  0.00    -0.169 NA
HETATM    5  C   UNL     1      26.239  42.392  50.039  1.00  0.00     0.148 A 
HETATM    6  C   UNL     1      24.902  42.624  49.607  1.00  0.00     0.071 A 
ENDROOT
BRANCH   5   7
HETATM    7  C   UNL     1      26.704  41.199  50.793  1.00  0.00     0.299 C 
HETATM    8  N   UNL     1      27.918  41.286  51.424  1.00  0.00    -0.189 NA
HETATM    9  C   UNL     1      28.070  42.139  52.373  1.00  0.00     0.154 C 
HETATM   10  S   UNL     1      29.624  42.091  53.273  1.00  0.00    -0.056 SA
HETATM   11  N   UNL     1      27.260  43.148  52.860  1.00  0.00    -0.236 NA
HETATM   12  C   UNL     1      29.179  43.557  54.173  1.00  0.00     0.032 A 
HETATM   13  C   UNL     1      27.914  43.998  53.772  1.00  0.00     0.032 A 
HETATM   14  C   UNL     1      29.923  44.249  55.112  1.00  0.00     0.057 A 
HETATM   15  C   UNL     1      27.362  45.136  54.337  1.00  0.00     0.028 A 
HETATM   16  C   UNL     1      28.107  45.850  55.285  1.00  0.00     0.038 A 
HETATM   17  C   UNL     1      29.384  45.411  55.673  1.00  0.00     0.069 A 
HETATM   18  H   UNL     1      26.708  43.629  52.152  1.00  0.00     0.136 HD
HETATM   19  O   UNL     1      26.039  40.167  50.795  1.00  0.00    -0.263 OA
BRANCH  17  20
HETATM   20  O   UNL     1      30.194  46.027  56.589  1.00  0.00    -0.356 OA
HETATM   21  C   UNL     1      30.030  45.653  57.951  1.00  0.00     0.210 C 
ENDBRANCH  17  20
ENDBRANCH   5   7
BRANCH   1  22
HETATM   22  C   UNL     1      23.811  44.693  48.446  1.00  0.00     0.025 A 
HETATM   23  C   UNL     1      23.362  45.889  49.039  1.00  0.00     0.078 A 
HETATM   24  C   UNL     1      22.312  46.629  48.485  1.00  0.00     0.044 A 
HETATM   25  C   UNL     1      21.676  46.185  47.320  1.00  0.00    -0.059 A 
HETATM   26  C   UNL     1      20.561  46.977  46.704  1.00  0.00     0.048 C 
HETATM   27  C   UNL     1      22.128  45.013  46.708  1.00  0.00     0.008 A 
HETATM   28  C   UNL     1      23.178  44.276  47.266  1.00  0.00     0.017 A 
BRANCH  23  29
HETATM   29  O   UNL     1      23.957  46.349  50.191  1.00  0.00    -0.360 OA
HETATM   30  H   UNL     1      23.697  45.761  50.922  1.00  0.00     0.217 HD
ENDBRANCH  23  29
ENDBRANCH   1  22
TORSDOF 4
ENDMDL
