MODEL 1
REMARK VINA RESULT:     -10.9      0.000      0.000
REMARK  4 active torsions:
REMARK  status: ('A' for Active; 'I' for Inactive)
REMARK       I    between atoms: N_2  and  C_4 
REMARK       I    between atoms: C_4  and  N_6 
REMARK    1  A    between atoms: N_6  and  C_7 
REMARK    2  A    between atoms: C_12  and  C_13 
REMARK    3  A    between atoms: C_15  and  N_16 
REMARK    4  A    between atoms: N_16  and  C_17 
ROOT
HETATM    1  C   UNL     1      27.229  43.666  52.436  1.00  0.00     0.164 A 
HETATM    2  N   UNL     1      26.509  44.794  52.372  1.00  0.00    -0.210 NA
HETATM    3  C   UNL     1      25.472  44.845  51.521  1.00  0.00     0.143 A 
HETATM    4  C   UNL     1      25.134  43.757  50.701  1.00  0.00     0.039 A 
HETATM    5  C   UNL     1      24.055  43.734  49.780  1.00  0.00     0.018 A 
HETATM    6  C   UNL     1      23.807  42.606  49.002  1.00  0.00     0.001 A 
HETATM    7  C   UNL     1      24.624  41.493  49.139  1.00  0.00     0.002 A 
HETATM    8  C   UNL     1      25.677  41.512  50.058  1.00  0.00     0.032 A 
HETATM    9  C   UNL     1      25.945  42.624  50.847  1.00  0.00     0.073 A 
HETATM   10  N   UNL     1      26.967  42.564  51.710  1.00  0.00    -0.228 NA
ENDROOT
BRANCH   1  11
HETATM   11  C   UNL     1      28.386  43.659  53.362  1.00  0.00     0.039 A 
HETATM   12  C   UNL     1      28.542  44.567  54.445  1.00  0.00     0.050 A 
HETATM   13  C   UNL     1      29.698  44.499  55.241  1.00  0.00     0.030 A 
HETATM   14  C   UNL     1      30.685  43.540  55.010  1.00  0.00     0.002 A 
HETATM   15  C   UNL     1      30.542  42.638  53.968  1.00  0.00     0.001 A 
HETATM   16  C   UNL     1      29.411  42.702  53.155  1.00  0.00     0.018 A 
BRANCH  12  17
HETATM   17  N   UNL     1      27.557  45.562  54.665  1.00  0.00    -0.308 N 
HETATM   18  C   UNL     1      27.569  46.598  55.568  1.00  0.00     0.322 C 
HETATM   19  N   UNL     1      26.558  47.541  55.369  1.00  0.00    -0.343 N 
HETATM   20  O   UNL     1      28.372  46.712  56.490  1.00  0.00    -0.247 OA
HETATM   21  C   UNL     1      26.456  48.624  56.333  1.00  0.00     0.154 C 
HETATM   22  C   UNL     1      25.863  47.759  54.106  1.00  0.00     0.154 C 
HETATM   23  H   UNL     1      26.645  45.340  54.277  1.00  0.00     0.170 HD
ENDBRANCH  12  17
ENDBRANCH   1  11
BRANCH   3  24
HETATM   24  N   UNL     1      24.719  46.048  51.444  1.00  0.00    -0.340 N 
HETATM   25  H   UNL     1      23.734  45.823  51.528  1.00  0.00     0.167 HD
BRANCH  24  26
HETATM   26  C   UNL     1      24.944  47.113  50.535  1.00  0.00     0.034 A 
HETATM   27  C   UNL     1      26.258  47.532  50.271  1.00  0.00     0.032 A 
HETATM   28  C   UNL     1      26.543  48.564  49.363  1.00  0.00     0.034 A 
HETATM   29  C   UNL     1      25.459  49.146  48.705  1.00  0.00     0.062 A 
HETATM   30  N   UNL     1      25.382  50.155  47.780  1.00  0.00    -0.278 N 
HETATM   31  C   UNL     1      24.147  48.739  48.909  1.00  0.00     0.013 A 
HETATM   32  H   UNL     1      26.144  50.697  47.392  1.00  0.00     0.189 HD
HETATM   33  N   UNL     1      24.132  50.425  47.362  1.00  0.00    -0.186 NA
HETATM   34  C   UNL     1      23.383  49.561  48.051  1.00  0.00     0.152 A 
HETATM   35  C   UNL     1      23.885  47.703  49.822  1.00  0.00     0.044 A 
ENDBRANCH  24  26
ENDBRANCH   3  24
TORSDOF 4
ENDMDL
MODEL 2
REMARK VINA RESULT:     -10.6      2.562      7.293
REMARK  4 active torsions:
REMARK  status: ('A' for Active; 'I' for Inactive)
REMARK       I    between atoms: N_2  and  C_4 
REMARK       I    between atoms: C_4  and  N_6 
REMARK    1  A    between atoms: N_6  and  C_7 
REMARK    2  A    between atoms: C_12  and  C_13 
REMARK    3  A    between atoms: C_15  and  N_16 
REMARK    4  A    between atoms: N_16  and  C_17 
ROOT
HETATM    1  C   UNL     1      26.074  46.577  50.013  1.00  0.00     0.164 A 
HETATM    2  N   UNL     1      26.143  46.489  51.349  1.00  0.00    -0.210 NA
HETATM    3  C   UNL     1      26.044  45.277  51.917  1.00  0.00     0.143 A 
HETATM    4  C   UNL     1      25.867  44.114  51.152  1.00  0.00     0.039 A 
HETATM    5  C   UNL     1      25.756  42.801  51.677  1.00  0.00     0.018 A 
HETATM    6  C   UNL     1      25.570  41.709  50.833  1.00  0.00     0.001 A 
HETATM    7  C   UNL     1      25.502  41.914  49.462  1.00  0.00     0.002 A 
HETATM    8  C   UNL     1      25.626  43.207  48.945  1.00  0.00     0.032 A 
HETATM    9  C   UNL     1      25.813  44.313  49.766  1.00  0.00     0.073 A 
HETATM   10  N   UNL     1      25.931  45.518  49.196  1.00  0.00    -0.228 NA
ENDROOT
BRANCH   1  11
HETATM   11  C   UNL     1      26.153  47.935  49.426  1.00  0.00     0.039 A 
HETATM   12  C   UNL     1      25.037  48.639  48.897  1.00  0.00     0.050 A 
HETATM   13  C   UNL     1      25.227  49.909  48.327  1.00  0.00     0.030 A 
HETATM   14  C   UNL     1      26.487  50.509  48.294  1.00  0.00     0.002 A 
HETATM   15  C   UNL     1      27.584  49.844  48.818  1.00  0.00     0.001 A 
HETATM   16  C   UNL     1      27.417  48.575  49.370  1.00  0.00     0.018 A 
BRANCH  12  17
HETATM   17  N   UNL     1      23.761  48.021  48.901  1.00  0.00    -0.308 N 
HETATM   18  C   UNL     1      22.533  48.587  49.149  1.00  0.00     0.322 C 
HETATM   19  N   UNL     1      21.450  47.760  48.839  1.00  0.00    -0.343 N 
HETATM   20  O   UNL     1      22.362  49.711  49.613  1.00  0.00    -0.247 OA
HETATM   21  C   UNL     1      20.120  48.258  49.150  1.00  0.00     0.154 C 
HETATM   22  C   UNL     1      21.498  46.644  47.902  1.00  0.00     0.154 C 
HETATM   23  H   UNL     1      23.788  47.007  48.961  1.00  0.00     0.170 HD
ENDBRANCH  12  17
ENDBRANCH   1  11
BRANCH   3  24
HETATM   24  N   UNL     1      26.101  45.188  53.335  1.00  0.00    -0.340 N 
HETATM   25  H   UNL     1      25.368  45.767  53.728  1.00  0.00     0.167 HD
BRANCH  24  26
HETATM   26  C   UNL     1      27.279  45.216  54.123  1.00  0.00     0.034 A 
HETATM   27  C   UNL     1      27.516  46.308  54.974  1.00  0.00     0.032 A 
HETATM   28  C   UNL     1      28.652  46.380  55.796  1.00  0.00     0.034 A 
HETATM   29  C   UNL     1      29.534  45.298  55.753  1.00  0.00     0.062 A 
HETATM   30  N   UNL     1      30.712  45.050  56.409  1.00  0.00    -0.278 N 
HETATM   31  C   UNL     1      29.320  44.183  54.955  1.00  0.00     0.013 A 
HETATM   32  H   UNL     1      31.187  45.647  57.074  1.00  0.00     0.189 HD
HETATM   33  N   UNL     1      31.270  43.863  56.108  1.00  0.00    -0.186 NA
HETATM   34  C   UNL     1      30.419  43.338  55.222  1.00  0.00     0.152 A 
HETATM   35  C   UNL     1      28.175  44.132  54.140  1.00  0.00     0.044 A 
ENDBRANCH  24  26
ENDBRANCH   3  24
TORSDOF 4
ENDMDL
MODEL 3
REMARK VINA RESULT:     -10.4      2.178      4.181
REMARK  4 active torsions:
REMARK  status: ('A' for Active; 'I' for Inactive)
REMARK       I    between atoms: N_2  and  C_4 
REMARK       I    between atoms: C_4  and  N_6 
REMARK    1  A    between atoms: N_6  and  C_7 
REMARK    2  A    between atoms: C_12  and  C_13 
REMARK    3  A    between atoms: C_15  and  N_16 
REMARK    4  A    between atoms: N_16  and  C_17 
ROOT
HETATM    1  C   UNL     1      25.336  46.215  52.009  1.00  0.00     0.164 A 
HETATM    2  N   UNL     1      25.181  47.188  51.100  1.00  0.00    -0.210 NA
HETATM    3  C   UNL     1      24.494  46.916  49.980  1.00  0.00     0.143 A 
HETATM    4  C   UNL     1      23.947  45.646  49.738  1.00  0.00     0.039 A 
HETATM    5  C   UNL     1      23.209  45.283  48.582  1.00  0.00     0.018 A 
HETATM    6  C   UNL     1      22.713  43.990  48.431  1.00  0.00     0.001 A 
HETATM    7  C   UNL     1      22.942  43.053  49.429  1.00  0.00     0.002 A 
HETATM    8  C   UNL     1      23.656  43.418  50.574  1.00  0.00     0.032 A 
HETATM    9  C   UNL     1      24.160  44.701  50.750  1.00  0.00     0.073 A 
HETATM   10  N   UNL     1      24.827  44.976  51.878  1.00  0.00    -0.228 NA
ENDROOT
BRANCH   1  11
HETATM   11  C   UNL     1      26.129  46.543  53.216  1.00  0.00     0.039 A 
HETATM   12  C   UNL     1      27.240  45.782  53.670  1.00  0.00     0.050 A 
HETATM   13  C   UNL     1      27.900  46.160  54.851  1.00  0.00     0.030 A 
HETATM   14  C   UNL     1      27.507  47.286  55.575  1.00  0.00     0.002 A 
HETATM   15  C   UNL     1      26.435  48.048  55.140  1.00  0.00     0.001 A 
HETATM   16  C   UNL     1      25.755  47.678  53.981  1.00  0.00     0.018 A 
BRANCH  12  17
HETATM   17  N   UNL     1      27.625  44.621  52.954  1.00  0.00    -0.308 N 
HETATM   18  C   UNL     1      27.809  43.342  53.424  1.00  0.00     0.322 C 
HETATM   19  N   UNL     1      27.952  42.380  52.422  1.00  0.00    -0.343 N 
HETATM   20  O   UNL     1      27.861  43.036  54.613  1.00  0.00    -0.247 OA
HETATM   21  C   UNL     1      28.231  41.016  52.842  1.00  0.00     0.154 C 
HETATM   22  C   UNL     1      27.473  42.528  51.053  1.00  0.00     0.154 C 
HETATM   23  H   UNL     1      28.036  44.808  52.044  1.00  0.00     0.170 HD
ENDBRANCH  12  17
ENDBRANCH   1  11
BRANCH   3  24
HETATM   24  N   UNL     1      24.345  47.945  49.011  1.00  0.00    -0.340 N 
HETATM   25  H   UNL     1      25.258  48.336  48.806  1.00  0.00     0.167 HD
BRANCH  24  26
HETATM   26  C   UNL     1      23.330  48.935  48.999  1.00  0.00     0.034 A 
HETATM   27  C   UNL     1      23.673  50.275  48.755  1.00  0.00     0.032 A 
HETATM   28  C   UNL     1      22.708  51.294  48.707  1.00  0.00     0.034 A 
HETATM   29  C   UNL     1      21.377  50.915  48.886  1.00  0.00     0.062 A 
HETATM   30  N   UNL     1      20.213  51.638  48.901  1.00  0.00    -0.278 N 
HETATM   31  C   UNL     1      20.990  49.598  49.094  1.00  0.00     0.013 A 
HETATM   32  H   UNL     1      20.104  52.638  48.786  1.00  0.00     0.189 HD
HETATM   33  N   UNL     1      19.106  50.896  49.089  1.00  0.00    -0.186 NA
HETATM   34  C   UNL     1      19.584  49.654  49.207  1.00  0.00     0.152 A 
HETATM   35  C   UNL     1      21.973  48.594  49.138  1.00  0.00     0.044 A 
ENDBRANCH  24  26
ENDBRANCH   3  24
TORSDOF 4
ENDMDL
MODEL 4
REMARK VINA RESULT:     -10.2      4.607      7.453
REMARK  4 active torsions:
REMARK  status: ('A' for Active; 'I' for Inactive)
REMARK       I    between atoms: N_2  and  C_4 
REMARK       I    between atoms: C_4  and  N_6 
REMARK    1  A    between atoms: N_6  and  C_7 
REMARK    2  A    between atoms: C_12  and  C_13 
REMARK    3  A    between atoms: C_15  and  N_16 
REMARK    4  A    between atoms: N_16  and  C_17 
ROOT
HETATM    1  C   UNL     1      23.197  48.403  48.933  1.00  0.00     0.164 A 
HETATM    2  N   UNL     1      22.404  49.244  49.611  1.00  0.00    -0.210 NA
HETATM    3  C   UNL     1      21.078  49.039  49.579  1.00  0.00     0.143 A 
HETATM    4  C   UNL     1      20.510  47.980  48.855  1.00  0.00     0.039 A 
HETATM    5  C   UNL     1      19.121  47.699  48.774  1.00  0.00     0.018 A 
HETATM    6  C   UNL     1      18.654  46.626  48.018  1.00  0.00     0.001 A 
HETATM    7  C   UNL     1      19.564  45.823  47.344  1.00  0.00     0.002 A 
HETATM    8  C   UNL     1      20.932  46.093  47.437  1.00  0.00     0.032 A 
HETATM    9  C   UNL     1      21.424  47.156  48.185  1.00  0.00     0.073 A 
HETATM   10  N   UNL     1      22.748  47.346  48.231  1.00  0.00    -0.228 NA
ENDROOT
BRANCH   1  11
HETATM   11  C   UNL     1      24.652  48.681  48.963  1.00  0.00     0.039 A 
HETATM   12  C   UNL     1      25.592  47.920  49.710  1.00  0.00     0.050 A 
HETATM   13  C   UNL     1      26.946  48.292  49.700  1.00  0.00     0.030 A 
HETATM   14  C   UNL     1      27.396  49.380  48.949  1.00  0.00     0.002 A 
HETATM   15  C   UNL     1      26.496  50.125  48.204  1.00  0.00     0.001 A 
HETATM   16  C   UNL     1      25.145  49.781  48.217  1.00  0.00     0.018 A 
BRANCH  12  17
HETATM   17  N   UNL     1      25.136  46.833  50.497  1.00  0.00    -0.308 N 
HETATM   18  C   UNL     1      25.137  45.492  50.194  1.00  0.00     0.322 C 
HETATM   19  N   UNL     1      24.842  44.661  51.277  1.00  0.00    -0.343 N 
HETATM   20  O   UNL     1      25.359  45.028  49.079  1.00  0.00    -0.247 OA
HETATM   21  C   UNL     1      24.745  43.234  51.017  1.00  0.00     0.154 C 
HETATM   22  C   UNL     1      25.006  45.033  52.677  1.00  0.00     0.154 C 
HETATM   23  H   UNL     1      24.528  47.099  51.266  1.00  0.00     0.170 HD
ENDBRANCH  12  17
ENDBRANCH   1  11
BRANCH   3  24
HETATM   24  N   UNL     1      20.237  49.942  50.287  1.00  0.00    -0.340 N 
HETATM   25  H   UNL     1      19.891  49.481  51.121  1.00  0.00     0.167 HD
BRANCH  24  26
HETATM   26  C   UNL     1      19.262  50.795  49.711  1.00  0.00     0.034 A 
HETATM   27  C   UNL     1      19.626  51.649  48.657  1.00  0.00     0.032 A 
HETATM   28  C   UNL     1      18.699  52.499  48.032  1.00  0.00     0.034 A 
HETATM   29  C   UNL     1      17.380  52.440  48.486  1.00  0.00     0.062 A 
HETATM   30  N   UNL     1      16.250  53.118  48.108  1.00  0.00    -0.278 N 
HETATM   31  C   UNL     1      16.970  51.585  49.499  1.00  0.00     0.013 A 
HETATM   32  H   UNL     1      16.167  53.831  47.394  1.00  0.00     0.189 HD
HETATM   33  N   UNL     1      15.143  52.763  48.784  1.00  0.00    -0.186 NA
HETATM   34  C   UNL     1      15.585  51.829  49.631  1.00  0.00     0.152 A 
HETATM   35  C   UNL     1      17.915  50.743  50.111  1.00  0.00     0.044 A 
ENDBRANCH  24  26
ENDBRANCH   3  24
TORSDOF 4
ENDMDL
MODEL 5
REMARK VINA RESULT:     -10.2      3.353      9.034
REMARK  4 active torsions:
REMARK  status: ('A' for Active; 'I' for Inactive)
REMARK       I    between atoms: N_2  and  C_4 
REMARK       I    between atoms: C_4  and  N_6 
REMARK    1  A    between atoms: N_6  and  C_7 
REMARK    2  A    between atoms: C_12  and  C_13 
REMARK    3  A    between atoms: C_15  and  N_16 
REMARK    4  A    between atoms: N_16  and  C_17 
ROOT
HETATM    1  C   UNL     1      22.937  49.382  48.810  1.00  0.00     0.164 A 
HETATM    2  N   UNL     1      22.981  48.217  49.470  1.00  0.00    -0.210 NA
HETATM    3  C   UNL     1      24.181  47.696  49.772  1.00  0.00     0.143 A 
HETATM    4  C   UNL     1      25.376  48.334  49.410  1.00  0.00     0.039 A 
HETATM    5  C   UNL     1      26.679  47.849  49.694  1.00  0.00     0.018 A 
HETATM    6  C   UNL     1      27.808  48.554  49.282  1.00  0.00     0.001 A 
HETATM    7  C   UNL     1      27.649  49.748  48.592  1.00  0.00     0.002 A 
HETATM    8  C   UNL     1      26.365  50.232  48.327  1.00  0.00     0.032 A 
HETATM    9  C   UNL     1      25.223  49.549  48.727  1.00  0.00     0.073 A 
HETATM   10  N   UNL     1      24.028  50.080  48.443  1.00  0.00    -0.228 NA
ENDROOT
BRANCH   1  11
HETATM   11  C   UNL     1      21.596  49.908  48.464  1.00  0.00     0.039 A 
HETATM   12  C   UNL     1      20.644  49.203  47.679  1.00  0.00     0.050 A 
HETATM   13  C   UNL     1      19.413  49.809  47.378  1.00  0.00     0.030 A 
HETATM   14  C   UNL     1      19.091  51.080  47.857  1.00  0.00     0.002 A 
HETATM   15  C   UNL     1      20.002  51.776  48.635  1.00  0.00     0.001 A 
HETATM   16  C   UNL     1      21.236  51.198  48.929  1.00  0.00     0.018 A 
BRANCH  12  17
HETATM   17  N   UNL     1      20.977  47.924  47.166  1.00  0.00    -0.308 N 
HETATM   18  C   UNL     1      20.483  46.695  47.534  1.00  0.00     0.322 C 
HETATM   19  N   UNL     1      20.838  45.655  46.672  1.00  0.00    -0.343 N 
HETATM   20  O   UNL     1      19.797  46.488  48.532  1.00  0.00    -0.247 OA
HETATM   21  C   UNL     1      20.420  44.312  47.039  1.00  0.00     0.154 C 
HETATM   22  C   UNL     1      21.235  45.830  45.280  1.00  0.00     0.154 C 
HETATM   23  H   UNL     1      21.843  47.899  46.638  1.00  0.00     0.170 HD
ENDBRANCH  12  17
ENDBRANCH   1  11
BRANCH   3  24
HETATM   24  N   UNL     1      24.224  46.452  50.459  1.00  0.00    -0.340 N 
HETATM   25  H   UNL     1      23.275  46.135  50.623  1.00  0.00     0.167 HD
BRANCH  24  26
HETATM   26  C   UNL     1      25.085  46.127  51.537  1.00  0.00     0.034 A 
HETATM   27  C   UNL     1      25.756  44.894  51.540  1.00  0.00     0.032 A 
HETATM   28  C   UNL     1      26.639  44.527  52.569  1.00  0.00     0.034 A 
HETATM   29  C   UNL     1      26.846  45.460  53.587  1.00  0.00     0.062 A 
HETATM   30  N   UNL     1      27.622  45.425  54.717  1.00  0.00    -0.278 N 
HETATM   31  C   UNL     1      26.231  46.704  53.605  1.00  0.00     0.013 A 
HETATM   32  H   UNL     1      28.212  44.668  55.039  1.00  0.00     0.189 HD
HETATM   33  N   UNL     1      27.568  46.548  55.456  1.00  0.00    -0.186 NA
HETATM   34  C   UNL     1      26.720  47.325  54.776  1.00  0.00     0.152 A 
HETATM   35  C   UNL     1      25.352  47.050  52.565  1.00  0.00     0.044 A 
ENDBRANCH  24  26
ENDBRANCH   3  24
TORSDOF 4
ENDMDL
MODEL 6
REMARK VINA RESULT:     -10.2      3.183      7.710
REMARK  4 active torsions:
REMARK  status: ('A' for Active; 'I' for Inactive)
REMARK       I    between atoms: N_2  and  C_4 
REMARK       I    between atoms: C_4  and  N_6 
REMARK    1  A    between atoms: N_6  and  C_7 
REMARK    2  A    between atoms: C_12  and  C_13 
REMARK    3  A    between atoms: C_15  and  N_16 
REMARK    4  A    between atoms: N_16  and  C_17 
ROOT
HETATM    1  C   UNL     1      25.936  44.165  50.080  1.00  0.00     0.164 A 
HETATM    2  N   UNL     1      26.171  43.881  51.369  1.00  0.00    -0.210 NA
HETATM    3  C   UNL     1      26.848  42.761  51.665  1.00  0.00     0.143 A 
HETATM    4  C   UNL     1      27.304  41.886  50.666  1.00  0.00     0.039 A 
HETATM    5  C   UNL     1      28.025  40.687  50.899  1.00  0.00     0.018 A 
HETATM    6  C   UNL     1      28.427  39.879  49.838  1.00  0.00     0.001 A 
HETATM    7  C   UNL     1      28.120  40.262  48.539  1.00  0.00     0.002 A 
HETATM    8  C   UNL     1      27.423  41.452  48.311  1.00  0.00     0.032 A 
HETATM    9  C   UNL     1      27.012  42.275  49.352  1.00  0.00     0.073 A 
HETATM   10  N   UNL     1      26.355  43.402  49.054  1.00  0.00    -0.228 NA
ENDROOT
BRANCH   1  11
HETATM   11  C   UNL     1      25.156  45.392  49.795  1.00  0.00     0.039 A 
HETATM   12  C   UNL     1      23.881  45.396  49.168  1.00  0.00     0.050 A 
HETATM   13  C   UNL     1      23.242  46.620  48.909  1.00  0.00     0.030 A 
HETATM   14  C   UNL     1      23.821  47.835  49.280  1.00  0.00     0.002 A 
HETATM   15  C   UNL     1      25.058  47.849  49.904  1.00  0.00     0.001 A 
HETATM   16  C   UNL     1      25.715  46.645  50.152  1.00  0.00     0.018 A 
BRANCH  12  17
HETATM   17  N   UNL     1      23.302  44.167  48.763  1.00  0.00    -0.308 N 
HETATM   18  C   UNL     1      23.065  43.707  47.490  1.00  0.00     0.322 C 
HETATM   19  N   UNL     1      22.706  42.358  47.427  1.00  0.00    -0.343 N 
HETATM   20  O   UNL     1      23.140  44.392  46.474  1.00  0.00    -0.247 OA
HETATM   21  C   UNL     1      22.361  41.819  46.122  1.00  0.00     0.154 C 
HETATM   22  C   UNL     1      23.013  41.368  48.453  1.00  0.00     0.154 C 
HETATM   23  H   UNL     1      22.794  43.682  49.497  1.00  0.00     0.170 HD
ENDBRANCH  12  17
ENDBRANCH   1  11
BRANCH   3  24
HETATM   24  N   UNL     1      27.082  42.453  53.033  1.00  0.00    -0.340 N 
HETATM   25  H   UNL     1      26.189  42.372  53.507  1.00  0.00     0.167 HD
BRANCH  24  26
HETATM   26  C   UNL     1      28.070  43.044  53.861  1.00  0.00     0.034 A 
HETATM   27  C   UNL     1      29.358  42.488  53.905  1.00  0.00     0.032 A 
HETATM   28  C   UNL     1      30.384  43.044  54.687  1.00  0.00     0.034 A 
HETATM   29  C   UNL     1      30.075  44.199  55.407  1.00  0.00     0.062 A 
HETATM   30  N   UNL     1      30.822  44.979  56.252  1.00  0.00    -0.278 N 
HETATM   31  C   UNL     1      28.826  44.802  55.365  1.00  0.00     0.013 A 
HETATM   32  H   UNL     1      31.787  44.843  56.528  1.00  0.00     0.189 HD
HETATM   33  N   UNL     1      30.162  46.041  56.748  1.00  0.00    -0.186 NA
HETATM   34  C   UNL     1      28.946  45.930  56.206  1.00  0.00     0.152 A 
HETATM   35  C   UNL     1      27.814  44.229  54.574  1.00  0.00     0.044 A 
ENDBRANCH  24  26
ENDBRANCH   3  24
TORSDOF 4
ENDMDL
MODEL 7
REMARK VINA RESULT:     -10.1      3.444      8.809
REMARK  4 active torsions:
REMARK  status: ('A' for Active; 'I' for Inactive)
REMARK       I    between atoms: N_2  and  C_4 
REMARK       I    between atoms: C_4  and  N_6 
REMARK    1  A    between atoms: N_6  and  C_7 
REMARK    2  A    between atoms: C_12  and  C_13 
REMARK    3  A    between atoms: C_15  and  N_16 
REMARK    4  A    between atoms: N_16  and  C_17 
ROOT
HETATM    1  C   UNL     1      22.918  48.198  49.063  1.00  0.00     0.164 A 
HETATM    2  N   UNL     1      23.392  47.130  49.719  1.00  0.00    -0.210 NA
HETATM    3  C   UNL     1      24.715  47.045  49.932  1.00  0.00     0.143 A 
HETATM    4  C   UNL     1      25.602  48.034  49.482  1.00  0.00     0.039 A 
HETATM    5  C   UNL     1      27.008  48.015  49.669  1.00  0.00     0.018 A 
HETATM    6  C   UNL     1      27.807  49.044  49.174  1.00  0.00     0.001 A 
HETATM    7  C   UNL     1      27.213  50.100  48.497  1.00  0.00     0.002 A 
HETATM    8  C   UNL     1      25.825  50.123  48.327  1.00  0.00     0.032 A 
HETATM    9  C   UNL     1      25.006  49.111  48.811  1.00  0.00     0.073 A 
HETATM   10  N   UNL     1      23.686  49.208  48.616  1.00  0.00    -0.228 NA
ENDROOT
BRANCH   1  11
HETATM   11  C   UNL     1      21.457  48.240  48.817  1.00  0.00     0.039 A 
HETATM   12  C   UNL     1      20.716  47.171  48.245  1.00  0.00     0.050 A 
HETATM   13  C   UNL     1      19.338  47.329  48.020  1.00  0.00     0.030 A 
HETATM   14  C   UNL     1      18.674  48.505  48.372  1.00  0.00     0.002 A 
HETATM   15  C   UNL     1      19.378  49.552  48.944  1.00  0.00     0.001 A 
HETATM   16  C   UNL     1      20.749  49.421  49.157  1.00  0.00     0.018 A 
BRANCH  12  17
HETATM   17  N   UNL     1      21.391  45.986  47.859  1.00  0.00    -0.308 N 
HETATM   18  C   UNL     1      21.899  45.649  46.626  1.00  0.00     0.322 C 
HETATM   19  N   UNL     1      22.717  44.517  46.636  1.00  0.00    -0.343 N 
HETATM   20  O   UNL     1      21.666  46.257  45.585  1.00  0.00    -0.247 OA
HETATM   21  C   UNL     1      23.225  44.051  45.356  1.00  0.00     0.154 C 
HETATM   22  C   UNL     1      23.410  44.003  47.810  1.00  0.00     0.154 C 
HETATM   23  H   UNL     1      21.276  45.210  48.503  1.00  0.00     0.170 HD
ENDBRANCH  12  17
ENDBRANCH   1  11
BRANCH   3  24
HETATM   24  N   UNL     1      25.217  45.903  50.615  1.00  0.00    -0.340 N 
HETATM   25  H   UNL     1      24.521  45.166  50.576  1.00  0.00     0.167 HD
BRANCH  24  26
HETATM   26  C   UNL     1      25.911  45.912  51.851  1.00  0.00     0.034 A 
HETATM   27  C   UNL     1      25.548  46.838  52.842  1.00  0.00     0.032 A 
HETATM   28  C   UNL     1      26.183  46.878  54.094  1.00  0.00     0.034 A 
HETATM   29  C   UNL     1      27.182  45.932  54.327  1.00  0.00     0.062 A 
HETATM   30  N   UNL     1      27.986  45.698  55.412  1.00  0.00    -0.278 N 
HETATM   31  C   UNL     1      27.548  44.976  53.390  1.00  0.00     0.013 A 
HETATM   32  H   UNL     1      28.006  46.205  56.289  1.00  0.00     0.189 HD
HETATM   33  N   UNL     1      28.832  44.663  55.258  1.00  0.00    -0.186 NA
HETATM   34  C   UNL     1      28.562  44.226  54.025  1.00  0.00     0.152 A 
HETATM   35  C   UNL     1      26.899  44.954  52.143  1.00  0.00     0.044 A 
ENDBRANCH  24  26
ENDBRANCH   3  24
TORSDOF 4
ENDMDL
MODEL 8
REMARK VINA RESULT:     -10.1      4.267      9.197
REMARK  4 active torsions:
REMARK  status: ('A' for Active; 'I' for Inactive)
REMARK       I    between atoms: N_2  and  C_4 
REMARK       I    between atoms: C_4  and  N_6 
REMARK    1  A    between atoms: N_6  and  C_7 
REMARK    2  A    between atoms: C_12  and  C_13 
REMARK    3  A    between atoms: C_15  and  N_16 
REMARK    4  A    between atoms: N_16  and  C_17 
ROOT
HETATM    1  C   UNL     1      22.840  49.360  48.739  1.00  0.00     0.164 A 
HETATM    2  N   UNL     1      22.830  48.195  49.401  1.00  0.00    -0.210 NA
HETATM    3  C   UNL     1      24.003  47.640  49.740  1.00  0.00     0.143 A 
HETATM    4  C   UNL     1      25.228  48.243  49.415  1.00  0.00     0.039 A 
HETATM    5  C   UNL     1      26.507  47.720  49.739  1.00  0.00     0.018 A 
HETATM    6  C   UNL     1      27.667  48.391  49.362  1.00  0.00     0.001 A 
HETATM    7  C   UNL     1      27.565  49.588  48.668  1.00  0.00     0.002 A 
HETATM    8  C   UNL     1      26.304  50.109  48.362  1.00  0.00     0.032 A 
HETATM    9  C   UNL     1      25.131  49.460  48.728  1.00  0.00     0.073 A 
HETATM   10  N   UNL     1      23.962  50.025  48.406  1.00  0.00    -0.228 NA
ENDROOT
BRANCH   1  11
HETATM   11  C   UNL     1      21.526  49.925  48.352  1.00  0.00     0.039 A 
HETATM   12  C   UNL     1      20.568  49.237  47.560  1.00  0.00     0.050 A 
HETATM   13  C   UNL     1      19.366  49.879  47.218  1.00  0.00     0.030 A 
HETATM   14  C   UNL     1      19.078  51.170  47.663  1.00  0.00     0.002 A 
HETATM   15  C   UNL     1      19.996  51.850  48.448  1.00  0.00     0.001 A 
HETATM   16  C   UNL     1      21.202  51.236  48.782  1.00  0.00     0.018 A 
BRANCH  12  17
HETATM   17  N   UNL     1      20.867  47.937  47.080  1.00  0.00    -0.308 N 
HETATM   18  C   UNL     1      20.260  46.744  47.394  1.00  0.00     0.322 C 
HETATM   19  N   UNL     1      20.632  45.679  46.570  1.00  0.00    -0.343 N 
HETATM   20  O   UNL     1      19.466  46.586  48.317  1.00  0.00    -0.247 OA
HETATM   21  C   UNL     1      20.094  44.368  46.890  1.00  0.00     0.154 C 
HETATM   22  C   UNL     1      21.179  45.821  45.226  1.00  0.00     0.154 C 
HETATM   23  H   UNL     1      21.780  47.853  46.642  1.00  0.00     0.170 HD
ENDBRANCH  12  17
ENDBRANCH   1  11
BRANCH   3  24
HETATM   24  N   UNL     1      23.989  46.395  50.428  1.00  0.00    -0.340 N 
HETATM   25  H   UNL     1      24.559  46.477  51.263  1.00  0.00     0.167 HD
BRANCH  24  26
HETATM   26  C   UNL     1      24.104  45.114  49.832  1.00  0.00     0.034 A 
HETATM   27  C   UNL     1      23.573  44.898  48.550  1.00  0.00     0.032 A 
HETATM   28  C   UNL     1      23.678  43.657  47.900  1.00  0.00     0.034 A 
HETATM   29  C   UNL     1      24.362  42.645  48.574  1.00  0.00     0.062 A 
HETATM   30  N   UNL     1      24.640  41.345  48.238  1.00  0.00    -0.278 N 
HETATM   31  C   UNL     1      24.934  42.826  49.826  1.00  0.00     0.013 A 
HETATM   32  H   UNL     1      24.375  40.855  47.392  1.00  0.00     0.189 HD
HETATM   33  N   UNL     1      25.352  40.677  49.163  1.00  0.00    -0.186 NA
HETATM   34  C   UNL     1      25.529  41.582  50.129  1.00  0.00     0.152 A 
HETATM   35  C   UNL     1      24.817  44.076  50.459  1.00  0.00     0.044 A 
ENDBRANCH  24  26
ENDBRANCH   3  24
TORSDOF 4
ENDMDL
MODEL 9
REMARK VINA RESULT:     -10.0      2.993      7.449
REMARK  4 active torsions:
REMARK  status: ('A' for Active; 'I' for Inactive)
REMARK       I    between atoms: N_2  and  C_4 
REMARK       I    between atoms: C_4  and  N_6 
REMARK    1  A    between atoms: N_6  and  C_7 
REMARK    2  A    between atoms: C_12  and  C_13 
REMARK    3  A    between atoms: C_15  and  N_16 
REMARK    4  A    between atoms: N_16  and  C_17 
ROOT
HETATM    1  C   UNL     1      25.369  47.245  50.635  1.00  0.00     0.164 A 
HETATM    2  N   UNL     1      24.521  46.250  50.339  1.00  0.00    -0.210 NA
HETATM    3  C   UNL     1      24.402  45.231  51.205  1.00  0.00     0.143 A 
HETATM    4  C   UNL     1      25.143  45.182  52.396  1.00  0.00     0.039 A 
HETATM    5  C   UNL     1      25.072  44.143  53.359  1.00  0.00     0.018 A 
HETATM    6  C   UNL     1      25.858  44.181  54.508  1.00  0.00     0.001 A 
HETATM    7  C   UNL     1      26.714  45.255  54.711  1.00  0.00     0.002 A 
HETATM    8  C   UNL     1      26.771  46.285  53.768  1.00  0.00     0.032 A 
HETATM    9  C   UNL     1      25.997  46.272  52.614  1.00  0.00     0.073 A 
HETATM   10  N   UNL     1      26.102  47.298  51.762  1.00  0.00    -0.228 NA
ENDROOT
BRANCH   1  11
HETATM   11  C   UNL     1      25.498  48.334  49.639  1.00  0.00     0.039 A 
HETATM   12  C   UNL     1      24.408  48.872  48.903  1.00  0.00     0.050 A 
HETATM   13  C   UNL     1      24.645  49.880  47.954  1.00  0.00     0.030 A 
HETATM   14  C   UNL     1      25.928  50.387  47.736  1.00  0.00     0.002 A 
HETATM   15  C   UNL     1      27.001  49.883  48.454  1.00  0.00     0.001 A 
HETATM   16  C   UNL     1      26.786  48.870  49.387  1.00  0.00     0.018 A 
BRANCH  12  17
HETATM   17  N   UNL     1      23.108  48.341  49.100  1.00  0.00    -0.308 N 
HETATM   18  C   UNL     1      21.933  49.013  49.344  1.00  0.00     0.322 C 
HETATM   19  N   UNL     1      20.790  48.216  49.250  1.00  0.00    -0.343 N 
HETATM   20  O   UNL     1      21.856  50.203  49.635  1.00  0.00    -0.247 OA
HETATM   21  C   UNL     1      19.516  48.836  49.575  1.00  0.00     0.154 C 
HETATM   22  C   UNL     1      20.707  46.968  48.502  1.00  0.00     0.154 C 
HETATM   23  H   UNL     1      23.090  47.350  49.318  1.00  0.00     0.170 HD
ENDBRANCH  12  17
ENDBRANCH   1  11
BRANCH   3  24
HETATM   24  N   UNL     1      23.514  44.169  50.882  1.00  0.00    -0.340 N 
HETATM   25  H   UNL     1      23.007  43.901  51.719  1.00  0.00     0.167 HD
BRANCH  24  26
HETATM   26  C   UNL     1      23.817  43.051  50.065  1.00  0.00     0.034 A 
HETATM   27  C   UNL     1      22.974  42.733  48.988  1.00  0.00     0.032 A 
HETATM   28  C   UNL     1      23.236  41.652  48.130  1.00  0.00     0.034 A 
HETATM   29  C   UNL     1      24.396  40.915  48.377  1.00  0.00     0.062 A 
HETATM   30  N   UNL     1      24.938  39.823  47.750  1.00  0.00    -0.278 N 
HETATM   31  C   UNL     1      25.275  41.217  49.407  1.00  0.00     0.013 A 
HETATM   32  H   UNL     1      24.567  39.320  46.953  1.00  0.00     0.189 HD
HETATM   33  N   UNL     1      26.099  39.402  48.283  1.00  0.00    -0.186 NA
HETATM   34  C   UNL     1      26.301  40.254  49.292  1.00  0.00     0.152 A 
HETATM   35  C   UNL     1      24.993  42.303  50.254  1.00  0.00     0.044 A 
ENDBRANCH  24  26
ENDBRANCH   3  24
TORSDOF 4
ENDMDL
MODEL 10
REMARK VINA RESULT:      -9.7      3.549      7.386
REMARK  4 active torsions:
REMARK  status: ('A' for Active; 'I' for Inactive)
REMARK       I    between atoms: N_2  and  C_4 
REMARK       I    between atoms: C_4  and  N_6 
REMARK    1  A    between atoms: N_6  and  C_7 
REMARK    2  A    between atoms: C_12  and  C_13 
REMARK    3  A    between atoms: C_15  and  N_16 
REMARK    4  A    between atoms: N_16  and  C_17 
ROOT
HETATM    1  C   UNL     1      23.488  48.854  49.158  1.00  0.00     0.164 A 
HETATM    2  N   UNL     1      22.921  47.686  48.825  1.00  0.00    -0.210 NA
HETATM    3  C   UNL     1      21.583  47.588  48.870  1.00  0.00     0.143 A 
HETATM    4  C   UNL     1      20.775  48.666  49.260  1.00  0.00     0.039 A 
HETATM    5  C   UNL     1      19.358  48.640  49.331  1.00  0.00     0.018 A 
HETATM    6  C   UNL     1      18.644  49.764  49.741  1.00  0.00     0.001 A 
HETATM    7  C   UNL     1      19.333  50.921  50.076  1.00  0.00     0.002 A 
HETATM    8  C   UNL     1      20.728  50.949  49.991  1.00  0.00     0.032 A 
HETATM    9  C   UNL     1      21.463  49.843  49.584  1.00  0.00     0.073 A 
HETATM   10  N   UNL     1      22.796  49.949  49.520  1.00  0.00    -0.228 NA
ENDROOT
BRANCH   1  11
HETATM   11  C   UNL     1      24.968  48.913  49.130  1.00  0.00     0.039 A 
HETATM   12  C   UNL     1      25.814  47.986  49.796  1.00  0.00     0.050 A 
HETATM   13  C   UNL     1      27.208  48.155  49.735  1.00  0.00     0.030 A 
HETATM   14  C   UNL     1      27.782  49.201  49.010  1.00  0.00     0.002 A 
HETATM   15  C   UNL     1      26.973  50.106  48.343  1.00  0.00     0.001 A 
HETATM   16  C   UNL     1      25.588  49.964  48.407  1.00  0.00     0.018 A 
BRANCH  12  17
HETATM   17  N   UNL     1      25.235  46.940  50.557  1.00  0.00    -0.308 N 
HETATM   18  C   UNL     1      25.156  45.601  50.257  1.00  0.00     0.322 C 
HETATM   19  N   UNL     1      24.740  44.800  51.324  1.00  0.00    -0.343 N 
HETATM   20  O   UNL     1      25.409  45.115  49.158  1.00  0.00    -0.247 OA
HETATM   21  C   UNL     1      24.554  43.383  51.061  1.00  0.00     0.154 C 
HETATM   22  C   UNL     1      24.848  45.168  52.730  1.00  0.00     0.154 C 
HETATM   23  H   UNL     1      24.605  47.255  51.288  1.00  0.00     0.170 HD
ENDBRANCH  12  17
ENDBRANCH   1  11
BRANCH   3  24
HETATM   24  N   UNL     1      20.985  46.343  48.531  1.00  0.00    -0.340 N 
HETATM   25  H   UNL     1      20.455  46.008  49.328  1.00  0.00     0.167 HD
BRANCH  24  26
HETATM   26  C   UNL     1      21.611  45.283  47.828  1.00  0.00     0.034 A 
HETATM   27  C   UNL     1      21.897  45.434  46.462  1.00  0.00     0.032 A 
HETATM   28  C   UNL     1      22.537  44.428  45.719  1.00  0.00     0.034 A 
HETATM   29  C   UNL     1      22.907  43.271  46.406  1.00  0.00     0.062 A 
HETATM   30  N   UNL     1      23.530  42.121  45.997  1.00  0.00    -0.278 N 
HETATM   31  C   UNL     1      22.675  43.095  47.764  1.00  0.00     0.013 A 
HETATM   32  H   UNL     1      23.846  41.888  45.063  1.00  0.00     0.189 HD
HETATM   33  N   UNL     1      23.731  41.224  46.978  1.00  0.00    -0.186 NA
HETATM   34  C   UNL     1      23.209  41.820  48.053  1.00  0.00     0.152 A 
HETATM   35  C   UNL     1      22.033  44.115  48.488  1.00  0.00     0.044 A 
ENDBRANCH  24  26
ENDBRANCH   3  24
TORSDOF 4
ENDMDL
