MODEL 1
REMARK VINA RESULT:      -8.6      0.000      0.000
REMARK  7 active torsions:
REMARK  status: ('A' for Active; 'I' for Inactive)
REMARK    1  A    between atoms: C_2  and  C_3 
REMARK    2  A    between atoms: C_3  and  C_4 
REMARK    3  A    between atoms: C_7  and  C_8 
REMARK    4  A    between atoms: C_14  and  C_15 
REMARK    5  A    between atoms: C_16  and  O_17 
REMARK    6  A    between atoms: O_17  and  C_18 
REMARK       I    between atoms: C_18  and  N_19 
REMARK    7  A    between atoms: C_33  and  N_34 
ROOT
HETATM    1  C   UNL     1      28.910  48.007  39.460  1.00  0.00     0.099 A 
HETATM    2  N   UNL     1      29.345  47.198  38.477  1.00  0.00    -0.172 NA
HETATM    3  N   UNL     1      30.668  47.082  38.694  1.00  0.00    -0.256 N 
HETATM    4  H   UNL     1      31.211  46.476  38.090  1.00  0.00     0.191 HD
HETATM    5  C   UNL     1      31.091  47.804  39.761  1.00  0.00     0.175 A 
HETATM    6  C   UNL     1      29.998  48.474  40.252  1.00  0.00     0.040 A 
HETATM    7  C   UNL     1      30.146  49.346  41.458  1.00  0.00     0.108 A 
HETATM    8  C   UNL     1      31.597  49.346  41.922  1.00  0.00     0.072 A 
HETATM    9  C   UNL     1      31.925  50.330  43.034  1.00  0.00     0.021 C 
HETATM   10  N   UNL     1      32.196  51.145  43.956  1.00  0.00    -0.096 N 
HETATM   11  C   UNL     1      32.582  48.605  41.352  1.00  0.00     0.160 A 
HETATM   12  O   UNL     1      32.336  47.801  40.225  1.00  0.00    -0.274 OA
ENDROOT
BRANCH   7  13
HETATM   13  C   UNL     1      29.535  50.705  41.131  1.00  0.00    -0.010 C 
HETATM   14  C   UNL     1      30.133  51.725  40.368  1.00  0.00     0.088 C 
HETATM   15  C   UNL     1      29.410  52.876  40.006  1.00  0.00     0.038 C 
HETATM   16  C   UNL     1      28.127  53.088  40.498  1.00  0.00     0.003 C 
HETATM   17  C   UNL     1      27.556  52.150  41.343  1.00  0.00     0.001 C 
HETATM   18  C   UNL     1      28.251  50.979  41.654  1.00  0.00     0.011 C 
BRANCH  14  19
HETATM   19  O   UNL     1      31.483  51.612  39.970  1.00  0.00    -0.261 OA
BRANCH  19  20
HETATM   20  C   UNL     1      32.266  52.775  40.071  1.00  0.00     0.368 C 
HETATM   21  N   UNL     1      33.551  52.619  39.581  1.00  0.00    -0.324 N 
HETATM   22  C   UNL     1      34.373  53.812  39.369  1.00  0.00     0.154 C 
HETATM   23  C   UNL     1      34.028  51.416  38.910  1.00  0.00     0.154 C 
HETATM   24  C   UNL     1      35.861  53.516  39.573  1.00  0.00     0.187 C 
HETATM   25  O   UNL     1      36.277  52.379  38.798  1.00  0.00    -0.388 OA
HETATM   26  C   UNL     1      35.524  51.215  39.174  1.00  0.00     0.187 C 
HETATM   27  O   UNL     1      31.877  53.838  40.547  1.00  0.00    -0.238 OA
ENDBRANCH  19  20
ENDBRANCH  14  19
ENDBRANCH   7  13
BRANCH  11  28
HETATM   28  N   UNL     1      33.891  48.568  41.761  1.00  0.00    -0.379 N 
HETATM   29  H   UNL     1      34.556  49.144  41.252  1.00  0.00     0.158 HD
HETATM   30  H   UNL     1      34.220  47.639  42.004  1.00  0.00     0.158 HD
ENDBRANCH  11  28
BRANCH   1  31
HETATM   31  C   UNL     1      27.491  48.295  39.614  1.00  0.00    -0.005 A 
HETATM   32  C   UNL     1      26.855  49.205  38.764  1.00  0.00     0.014 A 
HETATM   33  C   UNL     1      25.468  49.368  38.819  1.00  0.00     0.008 A 
HETATM   34  C   UNL     1      24.696  48.635  39.733  1.00  0.00    -0.058 A 
HETATM   35  C   UNL     1      25.356  47.816  40.658  1.00  0.00     0.008 A 
HETATM   36  C   UNL     1      26.741  47.636  40.591  1.00  0.00     0.014 A 
BRANCH  34  37
HETATM   37  C   UNL     1      23.189  48.792  39.705  1.00  0.00     0.042 C 
BRANCH  37  38
HETATM   38  C   UNL     1      22.615  49.998  38.929  1.00  0.00    -0.019 C 
HETATM   39  C   UNL     1      22.020  51.069  39.850  1.00  0.00     0.010 C 
HETATM   40  C   UNL     1      21.532  49.515  37.958  1.00  0.00     0.010 C 
ENDBRANCH  37  38
ENDBRANCH  34  37
ENDBRANCH   1  31
TORSDOF 7
ENDMDL
MODEL 2
REMARK VINA RESULT:      -8.3      2.079      2.972
REMARK  7 active torsions:
REMARK  status: ('A' for Active; 'I' for Inactive)
REMARK    1  A    between atoms: C_2  and  C_3 
REMARK    2  A    between atoms: C_3  and  C_4 
REMARK    3  A    between atoms: C_7  and  C_8 
REMARK    4  A    between atoms: C_14  and  C_15 
REMARK    5  A    between atoms: C_16  and  O_17 
REMARK    6  A    between atoms: O_17  and  C_18 
REMARK       I    between atoms: C_18  and  N_19 
REMARK    7  A    between atoms: C_33  and  N_34 
ROOT
HETATM    1  C   UNL     1      31.361  47.890  40.689  1.00  0.00     0.099 A 
HETATM    2  N   UNL     1      32.459  47.119  40.791  1.00  0.00    -0.172 NA
HETATM    3  N   UNL     1      33.298  47.827  41.568  1.00  0.00    -0.256 N 
HETATM    4  H   UNL     1      34.192  47.421  41.820  1.00  0.00     0.191 HD
HETATM    5  C   UNL     1      32.785  49.025  41.943  1.00  0.00     0.175 A 
HETATM    6  C   UNL     1      31.555  49.140  41.343  1.00  0.00     0.040 A 
HETATM    7  C   UNL     1      30.724  50.359  41.589  1.00  0.00     0.108 A 
HETATM    8  C   UNL     1      31.475  51.323  42.499  1.00  0.00     0.072 A 
HETATM    9  C   UNL     1      30.821  52.682  42.690  1.00  0.00     0.021 C 
HETATM   10  N   UNL     1      30.277  53.808  42.849  1.00  0.00    -0.096 N 
HETATM   11  C   UNL     1      32.690  51.065  43.049  1.00  0.00     0.160 A 
HETATM   12  O   UNL     1      33.385  49.877  42.767  1.00  0.00    -0.274 OA
ENDROOT
BRANCH   7  13
HETATM   13  C   UNL     1      30.283  50.906  40.235  1.00  0.00    -0.010 C 
HETATM   14  C   UNL     1      31.125  51.259  39.164  1.00  0.00     0.088 C 
HETATM   15  C   UNL     1      30.593  51.608  37.910  1.00  0.00     0.038 C 
HETATM   16  C   UNL     1      29.219  51.731  37.735  1.00  0.00     0.003 C 
HETATM   17  C   UNL     1      28.370  51.497  38.805  1.00  0.00     0.001 C 
HETATM   18  C   UNL     1      28.896  51.092  40.034  1.00  0.00     0.011 C 
BRANCH  14  19
HETATM   19  O   UNL     1      32.525  51.285  39.344  1.00  0.00    -0.261 OA
BRANCH  19  20
HETATM   20  C   UNL     1      33.103  52.545  39.581  1.00  0.00     0.368 C 
HETATM   21  N   UNL     1      34.484  52.544  39.488  1.00  0.00    -0.324 N 
HETATM   22  C   UNL     1      35.187  53.827  39.435  1.00  0.00     0.154 C 
HETATM   23  C   UNL     1      35.273  51.393  39.067  1.00  0.00     0.154 C 
HETATM   24  C   UNL     1      36.576  53.738  40.072  1.00  0.00     0.187 C 
HETATM   25  O   UNL     1      37.328  52.641  39.529  1.00  0.00    -0.388 OA
HETATM   26  C   UNL     1      36.641  51.401  39.757  1.00  0.00     0.187 C 
HETATM   27  O   UNL     1      32.471  53.562  39.851  1.00  0.00    -0.238 OA
ENDBRANCH  19  20
ENDBRANCH  14  19
ENDBRANCH   7  13
BRANCH  11  28
HETATM   28  N   UNL     1      33.379  51.902  43.889  1.00  0.00    -0.379 N 
HETATM   29  H   UNL     1      33.936  51.473  44.624  1.00  0.00     0.158 HD
HETATM   30  H   UNL     1      32.858  52.727  44.168  1.00  0.00     0.158 HD
ENDBRANCH  11  28
BRANCH   1  31
HETATM   31  C   UNL     1      30.177  47.410  39.989  1.00  0.00    -0.005 A 
HETATM   32  C   UNL     1      28.960  47.279  40.665  1.00  0.00     0.014 A 
HETATM   33  C   UNL     1      27.796  46.961  39.959  1.00  0.00     0.008 A 
HETATM   34  C   UNL     1      27.831  46.755  38.572  1.00  0.00    -0.058 A 
HETATM   35  C   UNL     1      29.075  46.773  37.927  1.00  0.00     0.008 A 
HETATM   36  C   UNL     1      30.237  47.112  38.627  1.00  0.00     0.014 A 
BRANCH  34  37
HETATM   37  C   UNL     1      26.532  46.485  37.841  1.00  0.00     0.042 C 
BRANCH  37  38
HETATM   38  C   UNL     1      25.485  47.620  37.809  1.00  0.00    -0.019 C 
HETATM   39  C   UNL     1      24.240  47.258  36.993  1.00  0.00     0.010 C 
HETATM   40  C   UNL     1      26.118  48.886  37.222  1.00  0.00     0.010 C 
ENDBRANCH  37  38
ENDBRANCH  34  37
ENDBRANCH   1  31
TORSDOF 7
ENDMDL
MODEL 3
REMARK VINA RESULT:      -8.2      4.185      7.356
REMARK  7 active torsions:
REMARK  status: ('A' for Active; 'I' for Inactive)
REMARK    1  A    between atoms: C_2  and  C_3 
REMARK    2  A    between atoms: C_3  and  C_4 
REMARK    3  A    between atoms: C_7  and  C_8 
REMARK    4  A    between atoms: C_14  and  C_15 
REMARK    5  A    between atoms: C_16  and  O_17 
REMARK    6  A    between atoms: O_17  and  C_18 
REMARK       I    between atoms: C_18  and  N_19 
REMARK    7  A    between atoms: C_33  and  N_34 
ROOT
HETATM    1  C   UNL     1      34.860  52.990  39.515  1.00  0.00     0.099 A 
HETATM    2  N   UNL     1      35.181  54.049  38.749  1.00  0.00    -0.172 NA
HETATM    3  N   UNL     1      36.510  54.189  38.904  1.00  0.00    -0.256 N 
HETATM    4  H   UNL     1      36.990  54.912  38.382  1.00  0.00     0.191 HD
HETATM    5  C   UNL     1      37.039  53.276  39.756  1.00  0.00     0.175 A 
HETATM    6  C   UNL     1      35.997  52.516  40.229  1.00  0.00     0.040 A 
HETATM    7  C   UNL     1      36.272  51.397  41.183  1.00  0.00     0.108 A 
HETATM    8  C   UNL     1      37.763  51.335  41.491  1.00  0.00     0.072 A 
HETATM    9  C   UNL     1      38.161  50.354  42.582  1.00  0.00     0.021 C 
HETATM   10  N   UNL     1      38.491  49.541  43.488  1.00  0.00    -0.096 N 
HETATM   11  C   UNL     1      38.696  52.141  40.923  1.00  0.00     0.160 A 
HETATM   12  O   UNL     1      38.336  53.158  40.021  1.00  0.00    -0.274 OA
ENDROOT
BRANCH   7  13
HETATM   13  C   UNL     1      35.336  51.558  42.376  1.00  0.00    -0.010 C 
HETATM   14  C   UNL     1      35.535  52.404  43.483  1.00  0.00     0.088 C 
HETATM   15  C   UNL     1      34.528  52.580  44.449  1.00  0.00     0.038 C 
HETATM   16  C   UNL     1      33.360  51.828  44.397  1.00  0.00     0.003 C 
HETATM   17  C   UNL     1      33.186  50.905  43.377  1.00  0.00     0.001 C 
HETATM   18  C   UNL     1      34.160  50.774  42.385  1.00  0.00     0.011 C 
BRANCH  14  19
HETATM   19  O   UNL     1      36.766  53.076  43.647  1.00  0.00    -0.261 OA
BRANCH  19  20
HETATM   20  C   UNL     1      37.358  52.997  44.920  1.00  0.00     0.368 C 
HETATM   21  N   UNL     1      37.899  54.195  45.352  1.00  0.00    -0.324 N 
HETATM   22  C   UNL     1      38.292  54.324  46.757  1.00  0.00     0.154 C 
HETATM   23  C   UNL     1      37.770  55.456  44.631  1.00  0.00     0.154 C 
HETATM   24  C   UNL     1      39.476  55.280  46.926  1.00  0.00     0.187 C 
HETATM   25  O   UNL     1      39.228  56.537  46.274  1.00  0.00    -0.388 OA
HETATM   26  C   UNL     1      39.001  56.336  44.871  1.00  0.00     0.187 C 
HETATM   27  O   UNL     1      37.410  51.977  45.602  1.00  0.00    -0.238 OA
ENDBRANCH  19  20
ENDBRANCH  14  19
ENDBRANCH   7  13
BRANCH  11  28
HETATM   28  N   UNL     1      40.046  52.093  41.163  1.00  0.00    -0.379 N 
HETATM   29  H   UNL     1      40.495  52.947  41.483  1.00  0.00     0.158 HD
HETATM   30  H   UNL     1      40.568  51.562  40.474  1.00  0.00     0.158 HD
ENDBRANCH  11  28
BRANCH   1  31
HETATM   31  C   UNL     1      33.501  52.467  39.531  1.00  0.00    -0.005 A 
HETATM   32  C   UNL     1      33.187  51.287  38.849  1.00  0.00     0.014 A 
HETATM   33  C   UNL     1      31.921  50.712  38.987  1.00  0.00     0.008 A 
HETATM   34  C   UNL     1      30.945  51.310  39.797  1.00  0.00    -0.058 A 
HETATM   35  C   UNL     1      31.232  52.552  40.379  1.00  0.00     0.008 A 
HETATM   36  C   UNL     1      32.504  53.119  40.260  1.00  0.00     0.014 A 
BRANCH  34  37
HETATM   37  C   UNL     1      29.613  50.610  39.973  1.00  0.00     0.042 C 
BRANCH  37  38
HETATM   38  C   UNL     1      29.175  50.269  41.415  1.00  0.00    -0.019 C 
HETATM   39  C   UNL     1      30.074  49.221  42.079  1.00  0.00     0.010 C 
HETATM   40  C   UNL     1      27.731  49.756  41.404  1.00  0.00     0.010 C 
ENDBRANCH  37  38
ENDBRANCH  34  37
ENDBRANCH   1  31
TORSDOF 7
ENDMDL
MODEL 4
REMARK VINA RESULT:      -8.1     12.513     15.311
REMARK  7 active torsions:
REMARK  status: ('A' for Active; 'I' for Inactive)
REMARK    1  A    between atoms: C_2  and  C_3 
REMARK    2  A    between atoms: C_3  and  C_4 
REMARK    3  A    between atoms: C_7  and  C_8 
REMARK    4  A    between atoms: C_14  and  C_15 
REMARK    5  A    between atoms: C_16  and  O_17 
REMARK    6  A    between atoms: O_17  and  C_18 
REMARK       I    between atoms: C_18  and  N_19 
REMARK    7  A    between atoms: C_33  and  N_34 
ROOT
HETATM    1  C   UNL     1      18.264  49.107  49.173  1.00  0.00     0.099 A 
HETATM    2  N   UNL     1      18.621  48.420  50.274  1.00  0.00    -0.172 NA
HETATM    3  N   UNL     1      19.250  47.328  49.803  1.00  0.00    -0.256 N 
HETATM    4  H   UNL     1      19.648  46.671  50.464  1.00  0.00     0.191 HD
HETATM    5  C   UNL     1      19.283  47.284  48.449  1.00  0.00     0.175 A 
HETATM    6  C   UNL     1      18.600  48.384  47.993  1.00  0.00     0.040 A 
HETATM    7  C   UNL     1      18.484  48.625  46.521  1.00  0.00     0.108 A 
HETATM    8  C   UNL     1      19.173  47.501  45.757  1.00  0.00     0.072 A 
HETATM    9  C   UNL     1      18.981  47.526  44.249  1.00  0.00     0.021 C 
HETATM   10  N   UNL     1      18.822  47.548  42.998  1.00  0.00    -0.096 N 
HETATM   11  C   UNL     1      19.843  46.476  46.344  1.00  0.00     0.160 A 
HETATM   12  O   UNL     1      19.908  46.347  47.742  1.00  0.00    -0.274 OA
ENDROOT
BRANCH   7  13
HETATM   13  C   UNL     1      17.013  48.865  46.200  1.00  0.00    -0.010 C 
HETATM   14  C   UNL     1      16.467  50.016  45.603  1.00  0.00     0.088 C 
HETATM   15  C   UNL     1      15.116  50.060  45.217  1.00  0.00     0.038 C 
HETATM   16  C   UNL     1      14.258  49.012  45.529  1.00  0.00     0.003 C 
HETATM   17  C   UNL     1      14.745  47.911  46.216  1.00  0.00     0.001 C 
HETATM   18  C   UNL     1      16.101  47.842  46.546  1.00  0.00     0.011 C 
BRANCH  14  19
HETATM   19  O   UNL     1      17.273  51.158  45.400  1.00  0.00    -0.261 OA
BRANCH  19  20
HETATM   20  C   UNL     1      17.536  51.512  44.065  1.00  0.00     0.368 C 
HETATM   21  N   UNL     1      16.908  52.680  43.671  1.00  0.00    -0.324 N 
HETATM   22  C   UNL     1      17.314  53.307  42.411  1.00  0.00     0.154 C 
HETATM   23  C   UNL     1      16.147  53.541  44.569  1.00  0.00     0.154 C 
HETATM   24  C   UNL     1      16.150  54.049  41.749  1.00  0.00     0.187 C 
HETATM   25  O   UNL     1      15.518  54.953  42.670  1.00  0.00    -0.388 OA
HETATM   26  C   UNL     1      15.014  54.237  43.808  1.00  0.00     0.187 C 
HETATM   27  O   UNL     1      18.244  50.864  43.299  1.00  0.00    -0.238 OA
ENDBRANCH  19  20
ENDBRANCH  14  19
ENDBRANCH   7  13
BRANCH  11  28
HETATM   28  N   UNL     1      20.491  45.464  45.683  1.00  0.00    -0.379 N 
HETATM   29  H   UNL     1      21.491  45.366  45.841  1.00  0.00     0.158 HD
HETATM   30  H   UNL     1      20.192  45.342  44.720  1.00  0.00     0.158 HD
ENDBRANCH  11  28
BRANCH   1  31
HETATM   31  C   UNL     1      17.633  50.415  49.283  1.00  0.00    -0.005 A 
HETATM   32  C   UNL     1      16.263  50.563  49.044  1.00  0.00     0.014 A 
HETATM   33  C   UNL     1      15.636  51.788  49.293  1.00  0.00     0.008 A 
HETATM   34  C   UNL     1      16.368  52.885  49.770  1.00  0.00    -0.058 A 
HETATM   35  C   UNL     1      17.757  52.757  49.891  1.00  0.00     0.008 A 
HETATM   36  C   UNL     1      18.384  51.529  49.664  1.00  0.00     0.014 A 
BRANCH  34  37
HETATM   37  C   UNL     1      15.631  54.168  50.094  1.00  0.00     0.042 C 
BRANCH  37  38
HETATM   38  C   UNL     1      14.414  54.069  51.041  1.00  0.00    -0.019 C 
HETATM   39  C   UNL     1      13.080  54.290  50.321  1.00  0.00     0.010 C 
HETATM   40  C   UNL     1      14.554  55.101  52.165  1.00  0.00     0.010 C 
ENDBRANCH  37  38
ENDBRANCH  34  37
ENDBRANCH   1  31
TORSDOF 7
ENDMDL
MODEL 5
REMARK VINA RESULT:      -8.1     26.469     28.745
REMARK  7 active torsions:
REMARK  status: ('A' for Active; 'I' for Inactive)
REMARK    1  A    between atoms: C_2  and  C_3 
REMARK    2  A    between atoms: C_3  and  C_4 
REMARK    3  A    between atoms: C_7  and  C_8 
REMARK    4  A    between atoms: C_14  and  C_15 
REMARK    5  A    between atoms: C_16  and  O_17 
REMARK    6  A    between atoms: O_17  and  C_18 
REMARK       I    between atoms: C_18  and  N_19 
REMARK    7  A    between atoms: C_33  and  N_34 
ROOT
HETATM    1  C   UNL     1      40.938  46.560  64.646  1.00  0.00     0.099 A 
HETATM    2  N   UNL     1      42.189  46.462  64.160  1.00  0.00    -0.172 NA
HETATM    3  N   UNL     1      42.227  45.255  63.566  1.00  0.00    -0.256 N 
HETATM    4  H   UNL     1      43.074  44.973  63.086  1.00  0.00     0.191 HD
HETATM    5  C   UNL     1      41.058  44.577  63.677  1.00  0.00     0.175 A 
HETATM    6  C   UNL     1      40.211  45.355  64.426  1.00  0.00     0.040 A 
HETATM    7  C   UNL     1      38.821  44.878  64.704  1.00  0.00     0.108 A 
HETATM    8  C   UNL     1      38.612  43.503  64.082  1.00  0.00     0.072 A 
HETATM    9  C   UNL     1      37.299  42.822  64.435  1.00  0.00     0.021 C 
HETATM   10  N   UNL     1      36.210  42.258  64.729  1.00  0.00    -0.096 N 
HETATM   11  C   UNL     1      39.539  42.853  63.333  1.00  0.00     0.160 A 
HETATM   12  O   UNL     1      40.818  43.396  63.116  1.00  0.00    -0.274 OA
ENDROOT
BRANCH   7  13
HETATM   13  C   UNL     1      38.579  44.990  66.206  1.00  0.00    -0.010 C 
HETATM   14  C   UNL     1      39.209  44.231  67.210  1.00  0.00     0.088 C 
HETATM   15  C   UNL     1      39.015  44.529  68.571  1.00  0.00     0.038 C 
HETATM   16  C   UNL     1      38.101  45.502  68.958  1.00  0.00     0.003 C 
HETATM   17  C   UNL     1      37.384  46.189  67.990  1.00  0.00     0.001 C 
HETATM   18  C   UNL     1      37.620  45.934  66.638  1.00  0.00     0.011 C 
BRANCH  14  19
HETATM   19  O   UNL     1      40.034  43.140  66.860  1.00  0.00    -0.261 OA
BRANCH  19  20
HETATM   20  C   UNL     1      41.420  43.372  66.873  1.00  0.00     0.368 C 
HETATM   21  N   UNL     1      42.160  42.323  66.357  1.00  0.00    -0.324 N 
HETATM   22  C   UNL     1      43.577  42.542  66.056  1.00  0.00     0.154 C 
HETATM   23  C   UNL     1      41.577  41.137  65.742  1.00  0.00     0.154 C 
HETATM   24  C   UNL     1      44.396  41.261  66.234  1.00  0.00     0.187 C 
HETATM   25  O   UNL     1      43.812  40.164  65.513  1.00  0.00    -0.388 OA
HETATM   26  C   UNL     1      42.475  39.918  65.975  1.00  0.00     0.187 C 
HETATM   27  O   UNL     1      41.951  44.395  67.300  1.00  0.00    -0.238 OA
ENDBRANCH  19  20
ENDBRANCH  14  19
ENDBRANCH   7  13
BRANCH  11  28
HETATM   28  N   UNL     1      39.371  41.627  62.742  1.00  0.00    -0.379 N 
HETATM   29  H   UNL     1      38.562  41.079  63.023  1.00  0.00     0.158 HD
HETATM   30  H   UNL     1      40.232  41.101  62.631  1.00  0.00     0.158 HD
ENDBRANCH  11  28
BRANCH   1  31
HETATM   31  C   UNL     1      40.482  47.787  65.285  1.00  0.00    -0.005 A 
HETATM   32  C   UNL     1      39.765  48.741  64.557  1.00  0.00     0.014 A 
HETATM   33  C   UNL     1      39.204  49.844  65.207  1.00  0.00     0.008 A 
HETATM   34  C   UNL     1      39.360  50.018  66.590  1.00  0.00    -0.058 A 
HETATM   35  C   UNL     1      40.178  49.120  67.286  1.00  0.00     0.008 A 
HETATM   36  C   UNL     1      40.723  48.005  66.643  1.00  0.00     0.014 A 
BRANCH  34  37
HETATM   37  C   UNL     1      38.671  51.189  67.260  1.00  0.00     0.042 C 
BRANCH  37  38
HETATM   38  C   UNL     1      37.725  50.877  68.441  1.00  0.00    -0.019 C 
HETATM   39  C   UNL     1      36.695  49.793  68.107  1.00  0.00     0.010 C 
HETATM   40  C   UNL     1      36.990  52.155  68.860  1.00  0.00     0.010 C 
ENDBRANCH  37  38
ENDBRANCH  34  37
ENDBRANCH   1  31
TORSDOF 7
ENDMDL
MODEL 6
REMARK VINA RESULT:      -8.0     12.545     16.178
REMARK  7 active torsions:
REMARK  status: ('A' for Active; 'I' for Inactive)
REMARK    1  A    between atoms: C_2  and  C_3 
REMARK    2  A    between atoms: C_3  and  C_4 
REMARK    3  A    between atoms: C_7  and  C_8 
REMARK    4  A    between atoms: C_14  and  C_15 
REMARK    5  A    between atoms: C_16  and  O_17 
REMARK    6  A    between atoms: O_17  and  C_18 
REMARK       I    between atoms: C_18  and  N_19 
REMARK    7  A    between atoms: C_33  and  N_34 
ROOT
HETATM    1  C   UNL     1      17.309  48.036  47.066  1.00  0.00     0.099 A 
HETATM    2  N   UNL     1      16.419  47.044  47.251  1.00  0.00    -0.172 NA
HETATM    3  N   UNL     1      15.302  47.472  46.635  1.00  0.00    -0.256 N 
HETATM    4  H   UNL     1      14.494  46.861  46.609  1.00  0.00     0.191 HD
HETATM    5  C   UNL     1      15.442  48.704  46.088  1.00  0.00     0.175 A 
HETATM    6  C   UNL     1      16.707  49.140  46.397  1.00  0.00     0.040 A 
HETATM    7  C   UNL     1      17.170  50.475  45.906  1.00  0.00     0.108 A 
HETATM    8  C   UNL     1      16.051  51.155  45.126  1.00  0.00     0.072 A 
HETATM    9  C   UNL     1      16.325  52.594  44.718  1.00  0.00     0.021 C 
HETATM   10  N   UNL     1      16.553  53.787  44.380  1.00  0.00    -0.096 N 
HETATM   11  C   UNL     1      14.844  50.590  44.870  1.00  0.00     0.160 A 
HETATM   12  O   UNL     1      14.510  49.317  45.366  1.00  0.00    -0.274 OA
ENDROOT
BRANCH   7  13
HETATM   13  C   UNL     1      17.735  51.242  47.096  1.00  0.00    -0.010 C 
HETATM   14  C   UNL     1      16.991  51.853  48.123  1.00  0.00     0.088 C 
HETATM   15  C   UNL     1      17.629  52.402  49.250  1.00  0.00     0.038 C 
HETATM   16  C   UNL     1      19.016  52.463  49.317  1.00  0.00     0.003 C 
HETATM   17  C   UNL     1      19.773  51.968  48.267  1.00  0.00     0.001 C 
HETATM   18  C   UNL     1      19.140  51.369  47.176  1.00  0.00     0.011 C 
BRANCH  14  19
HETATM   19  O   UNL     1      15.586  51.940  48.023  1.00  0.00    -0.261 OA
BRANCH  19  20
HETATM   20  C   UNL     1      14.929  52.674  49.026  1.00  0.00     0.368 C 
HETATM   21  N   UNL     1      14.207  53.750  48.539  1.00  0.00    -0.324 N 
HETATM   22  C   UNL     1      13.260  54.423  49.431  1.00  0.00     0.154 C 
HETATM   23  C   UNL     1      14.029  54.040  47.122  1.00  0.00     0.154 C 
HETATM   24  C   UNL     1      13.129  55.911  49.095  1.00  0.00     0.187 C 
HETATM   25  O   UNL     1      12.853  56.107  47.699  1.00  0.00    -0.388 OA
HETATM   26  C   UNL     1      13.905  55.550  46.897  1.00  0.00     0.187 C 
HETATM   27  O   UNL     1      14.977  52.412  50.225  1.00  0.00    -0.238 OA
ENDBRANCH  19  20
ENDBRANCH  14  19
ENDBRANCH   7  13
BRANCH  11  28
HETATM   28  N   UNL     1      13.827  51.168  44.153  1.00  0.00    -0.379 N 
HETATM   29  H   UNL     1      13.787  50.971  43.157  1.00  0.00     0.158 HD
HETATM   30  H   UNL     1      13.637  52.131  44.412  1.00  0.00     0.158 HD
ENDBRANCH  11  28
BRANCH   1  31
HETATM   31  C   UNL     1      18.687  47.894  47.517  1.00  0.00    -0.005 A 
HETATM   32  C   UNL     1      19.678  47.449  46.637  1.00  0.00     0.014 A 
HETATM   33  C   UNL     1      21.019  47.455  47.030  1.00  0.00     0.008 A 
HETATM   34  C   UNL     1      21.391  47.893  48.310  1.00  0.00    -0.058 A 
HETATM   35  C   UNL     1      20.379  48.223  49.220  1.00  0.00     0.008 A 
HETATM   36  C   UNL     1      19.038  48.238  48.824  1.00  0.00     0.014 A 
BRANCH  34  37
HETATM   37  C   UNL     1      22.862  47.950  48.663  1.00  0.00     0.042 C 
BRANCH  37  38
HETATM   38  C   UNL     1      23.497  49.348  48.839  1.00  0.00    -0.019 C 
HETATM   39  C   UNL     1      23.084  50.332  47.740  1.00  0.00     0.010 C 
HETATM   40  C   UNL     1      25.024  49.219  48.849  1.00  0.00     0.010 C 
ENDBRANCH  37  38
ENDBRANCH  34  37
ENDBRANCH   1  31
TORSDOF 7
ENDMDL
MODEL 7
REMARK VINA RESULT:      -8.0     25.921     28.711
REMARK  7 active torsions:
REMARK  status: ('A' for Active; 'I' for Inactive)
REMARK    1  A    between atoms: C_2  and  C_3 
REMARK    2  A    between atoms: C_3  and  C_4 
REMARK    3  A    between atoms: C_7  and  C_8 
REMARK    4  A    between atoms: C_14  and  C_15 
REMARK    5  A    between atoms: C_16  and  O_17 
REMARK    6  A    between atoms: O_17  and  C_18 
REMARK       I    between atoms: C_18  and  N_19 
REMARK    7  A    between atoms: C_33  and  N_34 
ROOT
HETATM    1  C   UNL     1      37.769  45.197  64.045  1.00  0.00     0.099 A 
HETATM    2  N   UNL     1      36.640  45.734  63.546  1.00  0.00    -0.172 NA
HETATM    3  N   UNL     1      36.724  47.042  63.849  1.00  0.00    -0.256 N 
HETATM    4  H   UNL     1      35.990  47.665  63.532  1.00  0.00     0.191 HD
HETATM    5  C   UNL     1      37.849  47.350  64.540  1.00  0.00     0.175 A 
HETATM    6  C   UNL     1      38.528  46.176  64.749  1.00  0.00     0.040 A 
HETATM    7  C   UNL     1      39.836  46.197  65.473  1.00  0.00     0.108 A 
HETATM    8  C   UNL     1      40.169  47.621  65.899  1.00  0.00     0.072 A 
HETATM    9  C   UNL     1      41.387  47.764  66.798  1.00  0.00     0.021 C 
HETATM   10  N   UNL     1      42.397  47.882  67.544  1.00  0.00    -0.096 N 
HETATM   11  C   UNL     1      39.411  48.707  65.598  1.00  0.00     0.160 A 
HETATM   12  O   UNL     1      38.200  48.583  64.894  1.00  0.00    -0.274 OA
ENDROOT
BRANCH   7  13
HETATM   13  C   UNL     1      39.774  45.152  66.582  1.00  0.00    -0.010 C 
HETATM   14  C   UNL     1      40.576  44.000  66.688  1.00  0.00     0.088 C 
HETATM   15  C   UNL     1      40.530  43.190  67.836  1.00  0.00     0.038 C 
HETATM   16  C   UNL     1      39.603  43.440  68.842  1.00  0.00     0.003 C 
HETATM   17  C   UNL     1      38.725  44.504  68.711  1.00  0.00     0.001 C 
HETATM   18  C   UNL     1      38.811  45.344  67.598  1.00  0.00     0.011 C 
BRANCH  14  19
HETATM   19  O   UNL     1      41.427  43.631  65.624  1.00  0.00    -0.261 OA
BRANCH  19  20
HETATM   20  C   UNL     1      42.783  43.980  65.756  1.00  0.00     0.368 C 
HETATM   21  N   UNL     1      43.611  42.897  65.994  1.00  0.00    -0.324 N 
HETATM   22  C   UNL     1      45.059  43.078  65.874  1.00  0.00     0.154 C 
HETATM   23  C   UNL     1      43.162  41.510  65.991  1.00  0.00     0.154 C 
HETATM   24  C   UNL     1      45.824  42.157  66.827  1.00  0.00     0.187 C 
HETATM   25  O   UNL     1      45.396  40.792  66.690  1.00  0.00    -0.388 OA
HETATM   26  C   UNL     1      43.993  40.677  66.972  1.00  0.00     0.187 C 
HETATM   27  O   UNL     1      43.218  45.126  65.676  1.00  0.00    -0.238 OA
ENDBRANCH  19  20
ENDBRANCH  14  19
ENDBRANCH   7  13
BRANCH  11  28
HETATM   28  N   UNL     1      39.696  50.002  65.947  1.00  0.00    -0.379 N 
HETATM   29  H   UNL     1      39.430  50.304  66.881  1.00  0.00     0.158 HD
HETATM   30  H   UNL     1      39.523  50.676  65.209  1.00  0.00     0.158 HD
ENDBRANCH  11  28
BRANCH   1  31
HETATM   31  C   UNL     1      38.086  43.793  63.827  1.00  0.00    -0.005 A 
HETATM   32  C   UNL     1      39.093  43.424  62.930  1.00  0.00     0.014 A 
HETATM   33  C   UNL     1      39.493  42.089  62.833  1.00  0.00     0.008 A 
HETATM   34  C   UNL     1      38.886  41.099  63.620  1.00  0.00    -0.058 A 
HETATM   35  C   UNL     1      37.800  41.462  64.427  1.00  0.00     0.008 A 
HETATM   36  C   UNL     1      37.412  42.800  64.541  1.00  0.00     0.014 A 
BRANCH  34  37
HETATM   37  C   UNL     1      39.404  39.678  63.534  1.00  0.00     0.042 C 
BRANCH  37  38
HETATM   38  C   UNL     1      40.612  39.306  64.423  1.00  0.00    -0.019 C 
HETATM   39  C   UNL     1      41.168  37.911  64.119  1.00  0.00     0.010 C 
HETATM   40  C   UNL     1      40.202  39.371  65.898  1.00  0.00     0.010 C 
ENDBRANCH  37  38
ENDBRANCH  34  37
ENDBRANCH   1  31
TORSDOF 7
ENDMDL
MODEL 8
REMARK VINA RESULT:      -8.0     25.782     28.831
REMARK  7 active torsions:
REMARK  status: ('A' for Active; 'I' for Inactive)
REMARK    1  A    between atoms: C_2  and  C_3 
REMARK    2  A    between atoms: C_3  and  C_4 
REMARK    3  A    between atoms: C_7  and  C_8 
REMARK    4  A    between atoms: C_14  and  C_15 
REMARK    5  A    between atoms: C_16  and  O_17 
REMARK    6  A    between atoms: O_17  and  C_18 
REMARK       I    between atoms: C_18  and  N_19 
REMARK    7  A    between atoms: C_33  and  N_34 
ROOT
HETATM    1  C   UNL     1      37.715  45.191  64.019  1.00  0.00     0.099 A 
HETATM    2  N   UNL     1      36.563  45.705  63.548  1.00  0.00    -0.172 NA
HETATM    3  N   UNL     1      36.645  47.021  63.815  1.00  0.00    -0.256 N 
HETATM    4  H   UNL     1      35.894  47.629  63.510  1.00  0.00     0.191 HD
HETATM    5  C   UNL     1      37.791  47.357  64.458  1.00  0.00     0.175 A 
HETATM    6  C   UNL     1      38.489  46.194  64.670  1.00  0.00     0.040 A 
HETATM    7  C   UNL     1      39.822  46.245  65.346  1.00  0.00     0.108 A 
HETATM    8  C   UNL     1      40.156  47.683  65.724  1.00  0.00     0.072 A 
HETATM    9  C   UNL     1      41.403  47.859  66.575  1.00  0.00     0.021 C 
HETATM   10  N   UNL     1      42.438  48.005  67.281  1.00  0.00    -0.096 N 
HETATM   11  C   UNL     1      39.376  48.753  65.424  1.00  0.00     0.160 A 
HETATM   12  O   UNL     1      38.142  48.600  64.769  1.00  0.00    -0.274 OA
ENDROOT
BRANCH   7  13
HETATM   13  C   UNL     1      39.810  45.228  66.482  1.00  0.00    -0.010 C 
HETATM   14  C   UNL     1      38.969  45.247  67.610  1.00  0.00     0.088 C 
HETATM   15  C   UNL     1      38.947  44.171  68.515  1.00  0.00     0.038 C 
HETATM   16  C   UNL     1      39.844  43.117  68.382  1.00  0.00     0.003 C 
HETATM   17  C   UNL     1      40.760  43.127  67.342  1.00  0.00     0.001 C 
HETATM   18  C   UNL     1      40.742  44.167  66.410  1.00  0.00     0.011 C 
BRANCH  14  19
HETATM   19  O   UNL     1      38.145  46.366  67.858  1.00  0.00    -0.261 OA
BRANCH  19  20
HETATM   20  C   UNL     1      36.767  46.116  67.978  1.00  0.00     0.368 C 
HETATM   21  N   UNL     1      36.227  46.563  69.172  1.00  0.00    -0.324 N 
HETATM   22  C   UNL     1      34.770  46.619  69.308  1.00  0.00     0.154 C 
HETATM   23  C   UNL     1      36.968  47.328  70.167  1.00  0.00     0.154 C 
HETATM   24  C   UNL     1      34.328  46.382  70.754  1.00  0.00     0.187 C 
HETATM   25  O   UNL     1      35.031  47.246  71.662  1.00  0.00    -0.388 OA
HETATM   26  C   UNL     1      36.446  47.021  71.574  1.00  0.00     0.187 C 
HETATM   27  O   UNL     1      36.084  45.554  67.126  1.00  0.00    -0.238 OA
ENDBRANCH  19  20
ENDBRANCH  14  19
ENDBRANCH   7  13
BRANCH  11  28
HETATM   28  N   UNL     1      39.661  50.059  65.731  1.00  0.00    -0.379 N 
HETATM   29  H   UNL     1      39.080  50.513  66.431  1.00  0.00     0.158 HD
HETATM   30  H   UNL     1      39.893  50.631  64.925  1.00  0.00     0.158 HD
ENDBRANCH  11  28
BRANCH   1  31
HETATM   31  C   UNL     1      38.038  43.785  63.824  1.00  0.00    -0.005 A 
HETATM   32  C   UNL     1      38.895  43.390  62.793  1.00  0.00     0.014 A 
HETATM   33  C   UNL     1      39.318  42.061  62.701  1.00  0.00     0.008 A 
HETATM   34  C   UNL     1      38.881  41.103  63.627  1.00  0.00    -0.058 A 
HETATM   35  C   UNL     1      37.931  41.485  64.583  1.00  0.00     0.008 A 
HETATM   36  C   UNL     1      37.523  42.818  64.691  1.00  0.00     0.014 A 
BRANCH  34  37
HETATM   37  C   UNL     1      39.425  39.693  63.529  1.00  0.00     0.042 C 
BRANCH  37  38
HETATM   38  C   UNL     1      40.340  39.202  64.673  1.00  0.00    -0.019 C 
HETATM   39  C   UNL     1      41.332  40.272  65.141  1.00  0.00     0.010 C 
HETATM   40  C   UNL     1      41.118  37.965  64.213  1.00  0.00     0.010 C 
ENDBRANCH  37  38
ENDBRANCH  34  37
ENDBRANCH   1  31
TORSDOF 7
ENDMDL
MODEL 9
REMARK VINA RESULT:      -8.0     10.498     13.939
REMARK  7 active torsions:
REMARK  status: ('A' for Active; 'I' for Inactive)
REMARK    1  A    between atoms: C_2  and  C_3 
REMARK    2  A    between atoms: C_3  and  C_4 
REMARK    3  A    between atoms: C_7  and  C_8 
REMARK    4  A    between atoms: C_14  and  C_15 
REMARK    5  A    between atoms: C_16  and  O_17 
REMARK    6  A    between atoms: O_17  and  C_18 
REMARK       I    between atoms: C_18  and  N_19 
REMARK    7  A    between atoms: C_33  and  N_34 
ROOT
HETATM    1  C   UNL     1      24.719  47.512  49.421  1.00  0.00     0.099 A 
HETATM    2  N   UNL     1      25.472  48.558  49.035  1.00  0.00    -0.172 NA
HETATM    3  N   UNL     1      24.609  49.386  48.418  1.00  0.00    -0.256 N 
HETATM    4  H   UNL     1      24.949  50.276  48.071  1.00  0.00     0.191 HD
HETATM    5  C   UNL     1      23.346  48.895  48.376  1.00  0.00     0.175 A 
HETATM    6  C   UNL     1      23.379  47.652  48.958  1.00  0.00     0.040 A 
HETATM    7  C   UNL     1      22.116  46.860  49.082  1.00  0.00     0.108 A 
HETATM    8  C   UNL     1      20.958  47.634  48.464  1.00  0.00     0.072 A 
HETATM    9  C   UNL     1      19.646  46.871  48.364  1.00  0.00     0.021 C 
HETATM   10  N   UNL     1      18.559  46.239  48.281  1.00  0.00    -0.096 N 
HETATM   11  C   UNL     1      21.064  48.883  47.942  1.00  0.00     0.160 A 
HETATM   12  O   UNL     1      22.300  49.551  47.886  1.00  0.00    -0.274 OA
ENDROOT
BRANCH   7  13
HETATM   13  C   UNL     1      22.380  45.467  48.522  1.00  0.00    -0.010 C 
HETATM   14  C   UNL     1      22.496  45.122  47.163  1.00  0.00     0.088 C 
HETATM   15  C   UNL     1      22.891  43.830  46.775  1.00  0.00     0.038 C 
HETATM   16  C   UNL     1      23.058  42.827  47.724  1.00  0.00     0.003 C 
HETATM   17  C   UNL     1      22.841  43.111  49.063  1.00  0.00     0.001 C 
HETATM   18  C   UNL     1      22.506  44.410  49.453  1.00  0.00     0.011 C 
BRANCH  14  19
HETATM   19  O   UNL     1      22.196  46.074  46.164  1.00  0.00    -0.261 OA
BRANCH  19  20
HETATM   20  C   UNL     1      22.149  45.601  44.841  1.00  0.00     0.368 C 
HETATM   21  N   UNL     1      20.890  45.677  44.273  1.00  0.00    -0.324 N 
HETATM   22  C   UNL     1      20.757  45.484  42.827  1.00  0.00     0.154 C 
HETATM   23  C   UNL     1      19.738  46.295  44.918  1.00  0.00     0.154 C 
HETATM   24  C   UNL     1      19.408  44.858  42.462  1.00  0.00     0.187 C 
HETATM   25  O   UNL     1      18.320  45.586  43.053  1.00  0.00    -0.388 OA
HETATM   26  C   UNL     1      18.444  45.599  44.483  1.00  0.00     0.187 C 
HETATM   27  O   UNL     1      23.114  45.155  44.226  1.00  0.00    -0.238 OA
ENDBRANCH  19  20
ENDBRANCH  14  19
ENDBRANCH   7  13
BRANCH  11  28
HETATM   28  N   UNL     1      20.036  49.612  47.400  1.00  0.00    -0.379 N 
HETATM   29  H   UNL     1      20.252  50.200  46.599  1.00  0.00     0.158 HD
HETATM   30  H   UNL     1      19.418  50.028  48.089  1.00  0.00     0.158 HD
ENDBRANCH  11  28
BRANCH   1  31
HETATM   31  C   UNL     1      25.292  46.435  50.217  1.00  0.00    -0.005 A 
HETATM   32  C   UNL     1      26.084  45.453  49.614  1.00  0.00     0.014 A 
HETATM   33  C   UNL     1      26.751  44.509  50.401  1.00  0.00     0.008 A 
HETATM   34  C   UNL     1      26.626  44.522  51.798  1.00  0.00    -0.058 A 
HETATM   35  C   UNL     1      25.738  45.435  52.379  1.00  0.00     0.008 A 
HETATM   36  C   UNL     1      25.086  46.394  51.598  1.00  0.00     0.014 A 
BRANCH  34  37
HETATM   37  C   UNL     1      27.426  43.525  52.611  1.00  0.00     0.042 C 
BRANCH  37  38
HETATM   38  C   UNL     1      28.814  43.974  53.120  1.00  0.00    -0.019 C 
HETATM   39  C   UNL     1      29.898  42.911  52.909  1.00  0.00     0.010 C 
HETATM   40  C   UNL     1      28.727  44.311  54.613  1.00  0.00     0.010 C 
ENDBRANCH  37  38
ENDBRANCH  34  37
ENDBRANCH   1  31
TORSDOF 7
ENDMDL
MODEL 10
REMARK VINA RESULT:      -7.9      4.095      8.329
REMARK  7 active torsions:
REMARK  status: ('A' for Active; 'I' for Inactive)
REMARK    1  A    between atoms: C_2  and  C_3 
REMARK    2  A    between atoms: C_3  and  C_4 
REMARK    3  A    between atoms: C_7  and  C_8 
REMARK    4  A    between atoms: C_14  and  C_15 
REMARK    5  A    between atoms: C_16  and  O_17 
REMARK    6  A    between atoms: O_17  and  C_18 
REMARK       I    between atoms: C_18  and  N_19 
REMARK    7  A    between atoms: C_33  and  N_34 
ROOT
HETATM    1  C   UNL     1      26.666  50.120  38.982  1.00  0.00     0.099 A 
HETATM    2  N   UNL     1      25.956  50.457  37.889  1.00  0.00    -0.172 NA
HETATM    3  N   UNL     1      25.056  49.466  37.752  1.00  0.00    -0.256 N 
HETATM    4  H   UNL     1      24.374  49.526  37.004  1.00  0.00     0.191 HD
HETATM    5  C   UNL     1      25.183  48.504  38.699  1.00  0.00     0.175 A 
HETATM    6  C   UNL     1      26.257  48.850  39.482  1.00  0.00     0.040 A 
HETATM    7  C   UNL     1      26.636  47.984  40.640  1.00  0.00     0.108 A 
HETATM    8  C   UNL     1      25.707  46.778  40.711  1.00  0.00     0.072 A 
HETATM    9  C   UNL     1      26.089  45.723  41.737  1.00  0.00     0.021 C 
HETATM   10  N   UNL     1      26.405  44.847  42.587  1.00  0.00    -0.096 N 
HETATM   11  C   UNL     1      24.655  46.573  39.877  1.00  0.00     0.160 A 
HETATM   12  O   UNL     1      24.371  47.460  38.824  1.00  0.00    -0.274 OA
ENDROOT
BRANCH   7  13
HETATM   13  C   UNL     1      28.129  47.688  40.535  1.00  0.00    -0.010 C 
HETATM   14  C   UNL     1      28.750  46.864  39.578  1.00  0.00     0.088 C 
HETATM   15  C   UNL     1      30.151  46.789  39.488  1.00  0.00     0.038 C 
HETATM   16  C   UNL     1      30.955  47.432  40.422  1.00  0.00     0.003 C 
HETATM   17  C   UNL     1      30.366  48.162  41.443  1.00  0.00     0.001 C 
HETATM   18  C   UNL     1      28.975  48.285  41.497  1.00  0.00     0.011 C 
BRANCH  14  19
HETATM   19  O   UNL     1      27.965  46.081  38.703  1.00  0.00    -0.261 OA
BRANCH  19  20
HETATM   20  C   UNL     1      27.943  44.697  38.948  1.00  0.00     0.368 C 
HETATM   21  N   UNL     1      27.052  44.009  38.144  1.00  0.00    -0.324 N 
HETATM   22  C   UNL     1      27.129  42.547  38.099  1.00  0.00     0.154 C 
HETATM   23  C   UNL     1      26.292  44.618  37.059  1.00  0.00     0.154 C 
HETATM   24  C   UNL     1      25.757  41.916  37.848  1.00  0.00     0.187 C 
HETATM   25  O   UNL     1      25.117  42.500  36.702  1.00  0.00    -0.388 OA
HETATM   26  C   UNL     1      24.942  43.913  36.891  1.00  0.00     0.187 C 
HETATM   27  O   UNL     1      28.632  44.128  39.791  1.00  0.00    -0.238 OA
ENDBRANCH  19  20
ENDBRANCH  14  19
ENDBRANCH   7  13
BRANCH  11  28
HETATM   28  N   UNL     1      23.790  45.511  39.931  1.00  0.00    -0.379 N 
HETATM   29  H   UNL     1      22.797  45.720  40.001  1.00  0.00     0.158 HD
HETATM   30  H   UNL     1      24.112  44.745  40.514  1.00  0.00     0.158 HD
ENDBRANCH  11  28
BRANCH   1  31
HETATM   31  C   UNL     1      27.689  51.012  39.510  1.00  0.00    -0.005 A 
HETATM   32  C   UNL     1      27.528  51.611  40.763  1.00  0.00     0.014 A 
HETATM   33  C   UNL     1      28.573  52.347  41.329  1.00  0.00     0.008 A 
HETATM   34  C   UNL     1      29.789  52.507  40.648  1.00  0.00    -0.058 A 
HETATM   35  C   UNL     1      29.895  52.002  39.346  1.00  0.00     0.008 A 
HETATM   36  C   UNL     1      28.859  51.248  38.786  1.00  0.00     0.014 A 
BRANCH  34  37
HETATM   37  C   UNL     1      30.917  53.250  41.334  1.00  0.00     0.042 C 
BRANCH  37  38
HETATM   38  C   UNL     1      32.080  52.408  41.904  1.00  0.00    -0.019 C 
HETATM   39  C   UNL     1      32.916  51.732  40.813  1.00  0.00     0.010 C 
HETATM   40  C   UNL     1      31.522  51.335  42.845  1.00  0.00     0.010 C 
ENDBRANCH  37  38
ENDBRANCH  34  37
ENDBRANCH   1  31
TORSDOF 7
ENDMDL
