MODEL 1
REMARK VINA RESULT:     -10.3      0.000      0.000
REMARK  6 active torsions:
REMARK  status: ('A' for Active; 'I' for Inactive)
REMARK    1  A    between atoms: C_4  and  C_5 
REMARK    2  A    between atoms: C_5  and  N_6 
REMARK    3  A    between atoms: C_8  and  C_9 
REMARK       I    between atoms: C_9  and  N_10 
REMARK    4  A    between atoms: N_10  and  N_11 
REMARK    5  A    between atoms: C_12  and  C_13 
REMARK    6  A    between atoms: C_14  and  O_15 
ROOT
HETATM    1  C   UNL     1      25.536  46.726  52.707  1.00  0.00     0.273 C 
HETATM    2  N   UNL     1      25.220  46.587  51.366  1.00  0.00    -0.243 N 
HETATM    3  O   UNL     1      25.440  47.770  53.347  1.00  0.00    -0.266 OA
HETATM    4  H   UNL     1      25.250  45.703  50.873  1.00  0.00     0.192 HD
ENDROOT
BRANCH   2   5
HETATM    5  N   UNL     1      24.675  47.661  50.731  1.00  0.00    -0.183 NA
HETATM    6  C   UNL     1      24.023  47.421  49.633  1.00  0.00     0.153 C 
BRANCH   6   7
HETATM    7  C   UNL     1      23.331  48.510  48.897  1.00  0.00     0.027 A 
HETATM    8  C   UNL     1      24.019  49.712  48.647  1.00  0.00     0.078 A 
HETATM    9  C   UNL     1      23.380  50.778  48.029  1.00  0.00     0.038 A 
HETATM   10  C   UNL     1      22.048  50.658  47.648  1.00  0.00     0.015 A 
HETATM   11  C   UNL     1      21.338  49.470  47.868  1.00  0.00    -0.025 A 
HETATM   12  C   UNL     1      21.968  48.361  48.494  1.00  0.00    -0.012 A 
HETATM   13  C   UNL     1      19.996  49.389  47.461  1.00  0.00     0.012 A 
HETATM   14  C   UNL     1      21.184  47.187  48.656  1.00  0.00     0.013 A 
HETATM   15  C   UNL     1      19.851  47.122  48.241  1.00  0.00     0.001 A 
HETATM   16  C   UNL     1      19.256  48.224  47.648  1.00  0.00     0.001 A 
BRANCH   8  17
HETATM   17  O   UNL     1      25.326  49.933  48.991  1.00  0.00    -0.360 OA
HETATM   18  H   UNL     1      25.688  49.113  49.393  1.00  0.00     0.217 HD
ENDBRANCH   8  17
ENDBRANCH   6   7
ENDBRANCH   2   5
BRANCH   1  19
HETATM   19  C   UNL     1      25.975  45.522  53.451  1.00  0.00     0.049 A 
HETATM   20  C   UNL     1      27.339  45.225  53.384  1.00  0.00     0.108 A 
HETATM   21  N   UNL     1      27.861  44.177  54.064  1.00  0.00    -0.361 N 
HETATM   22  C   UNL     1      27.068  43.378  54.813  1.00  0.00     0.090 A 
HETATM   23  C   UNL     1      25.698  43.618  54.890  1.00  0.00     0.018 A 
HETATM   24  C   UNL     1      25.144  44.697  54.205  1.00  0.00     0.020 A 
BRANCH  21  25
HETATM   25  C   UNL     1      29.322  43.911  53.990  1.00  0.00     0.166 C 
BRANCH  25  26
HETATM   26  C   UNL     1      29.975  44.112  55.333  1.00  0.00    -0.040 A 
HETATM   27  C   UNL     1      30.850  43.141  55.846  1.00  0.00     0.009 A 
HETATM   28  C   UNL     1      31.469  43.328  57.082  1.00  0.00     0.001 A 
HETATM   29  C   UNL     1      31.225  44.484  57.820  1.00  0.00     0.000 A 
HETATM   30  C   UNL     1      30.367  45.460  57.319  1.00  0.00     0.001 A 
HETATM   31  C   UNL     1      29.749  45.279  56.081  1.00  0.00     0.009 A 
ENDBRANCH  25  26
ENDBRANCH  21  25
ENDBRANCH   1  19
TORSDOF 6
ENDMDL
MODEL 2
REMARK VINA RESULT:     -10.1      2.148     10.388
REMARK  6 active torsions:
REMARK  status: ('A' for Active; 'I' for Inactive)
REMARK    1  A    between atoms: C_4  and  C_5 
REMARK    2  A    between atoms: C_5  and  N_6 
REMARK    3  A    between atoms: C_8  and  C_9 
REMARK       I    between atoms: C_9  and  N_10 
REMARK    4  A    between atoms: N_10  and  N_11 
REMARK    5  A    between atoms: C_12  and  C_13 
REMARK    6  A    between atoms: C_14  and  O_15 
ROOT
HETATM    1  C   UNL     1      25.635  46.408  50.469  1.00  0.00     0.273 C 
HETATM    2  N   UNL     1      25.969  45.085  50.706  1.00  0.00    -0.243 N 
HETATM    3  O   UNL     1      26.292  47.377  50.841  1.00  0.00    -0.266 OA
HETATM    4  H   UNL     1      25.444  44.302  50.340  1.00  0.00     0.192 HD
ENDROOT
BRANCH   2   5
HETATM    5  N   UNL     1      27.161  44.835  51.315  1.00  0.00    -0.183 NA
HETATM    6  C   UNL     1      27.112  44.389  52.534  1.00  0.00     0.153 C 
BRANCH   6   7
HETATM    7  C   UNL     1      28.350  44.018  53.267  1.00  0.00     0.027 A 
HETATM    8  C   UNL     1      29.141  42.960  52.782  1.00  0.00     0.078 A 
HETATM    9  C   UNL     1      30.264  42.538  53.479  1.00  0.00     0.038 A 
HETATM   10  C   UNL     1      30.615  43.167  54.668  1.00  0.00     0.015 A 
HETATM   11  C   UNL     1      29.859  44.234  55.172  1.00  0.00    -0.025 A 
HETATM   12  C   UNL     1      28.707  44.691  54.475  1.00  0.00    -0.012 A 
HETATM   13  C   UNL     1      30.253  44.847  56.373  1.00  0.00     0.012 A 
HETATM   14  C   UNL     1      28.013  45.794  55.041  1.00  0.00     0.013 A 
HETATM   15  C   UNL     1      28.421  46.395  56.235  1.00  0.00     0.001 A 
HETATM   16  C   UNL     1      29.539  45.918  56.903  1.00  0.00     0.001 A 
BRANCH   8  17
HETATM   17  O   UNL     1      28.875  42.270  51.628  1.00  0.00    -0.360 OA
HETATM   18  H   UNL     1      29.121  41.329  51.761  1.00  0.00     0.217 HD
ENDBRANCH   8  17
ENDBRANCH   6   7
ENDBRANCH   2   5
BRANCH   1  19
HETATM   19  C   UNL     1      24.423  46.690  49.664  1.00  0.00     0.049 A 
HETATM   20  C   UNL     1      24.259  48.015  49.250  1.00  0.00     0.108 A 
HETATM   21  N   UNL     1      23.215  48.380  48.468  1.00  0.00    -0.361 N 
HETATM   22  C   UNL     1      22.291  47.470  48.085  1.00  0.00     0.090 A 
HETATM   23  C   UNL     1      22.397  46.143  48.494  1.00  0.00     0.018 A 
HETATM   24  C   UNL     1      23.470  45.747  49.290  1.00  0.00     0.020 A 
BRANCH  21  25
HETATM   25  C   UNL     1      23.091  49.793  48.025  1.00  0.00     0.166 C 
BRANCH  25  26
HETATM   26  C   UNL     1      21.804  50.401  48.517  1.00  0.00    -0.040 A 
HETATM   27  C   UNL     1      21.610  50.631  49.889  1.00  0.00     0.009 A 
HETATM   28  C   UNL     1      20.426  51.207  50.350  1.00  0.00     0.001 A 
HETATM   29  C   UNL     1      19.423  51.562  49.451  1.00  0.00     0.000 A 
HETATM   30  C   UNL     1      19.606  51.348  48.087  1.00  0.00     0.001 A 
HETATM   31  C   UNL     1      20.790  50.776  47.621  1.00  0.00     0.009 A 
ENDBRANCH  25  26
ENDBRANCH  21  25
ENDBRANCH   1  19
TORSDOF 6
ENDMDL
MODEL 3
REMARK VINA RESULT:     -10.1      1.850     10.269
REMARK  6 active torsions:
REMARK  status: ('A' for Active; 'I' for Inactive)
REMARK    1  A    between atoms: C_4  and  C_5 
REMARK    2  A    between atoms: C_5  and  N_6 
REMARK    3  A    between atoms: C_8  and  C_9 
REMARK       I    between atoms: C_9  and  N_10 
REMARK    4  A    between atoms: N_10  and  N_11 
REMARK    5  A    between atoms: C_12  and  C_13 
REMARK    6  A    between atoms: C_14  and  O_15 
ROOT
HETATM    1  C   UNL     1      25.478  47.259  50.583  1.00  0.00     0.273 C 
HETATM    2  N   UNL     1      25.244  47.230  51.948  1.00  0.00    -0.243 N 
HETATM    3  O   UNL     1      26.589  47.216  50.059  1.00  0.00    -0.266 OA
HETATM    4  H   UNL     1      24.318  47.207  52.356  1.00  0.00     0.192 HD
ENDROOT
BRANCH   2   5
HETATM    5  N   UNL     1      26.315  47.048  52.768  1.00  0.00    -0.183 NA
HETATM    6  C   UNL     1      26.379  45.915  53.401  1.00  0.00     0.153 C 
BRANCH   6   7
HETATM    7  C   UNL     1      27.540  45.584  54.267  1.00  0.00     0.027 A 
HETATM    8  C   UNL     1      27.811  46.391  55.388  1.00  0.00     0.078 A 
HETATM    9  C   UNL     1      28.928  46.157  56.176  1.00  0.00     0.038 A 
HETATM   10  C   UNL     1      29.789  45.111  55.861  1.00  0.00     0.015 A 
HETATM   11  C   UNL     1      29.541  44.278  54.762  1.00  0.00    -0.025 A 
HETATM   12  C   UNL     1      28.401  44.491  53.940  1.00  0.00    -0.012 A 
HETATM   13  C   UNL     1      30.431  43.229  54.482  1.00  0.00     0.012 A 
HETATM   14  C   UNL     1      28.211  43.586  52.861  1.00  0.00     0.013 A 
HETATM   15  C   UNL     1      29.105  42.544  52.601  1.00  0.00     0.001 A 
HETATM   16  C   UNL     1      30.218  42.368  53.409  1.00  0.00     0.001 A 
BRANCH   8  17
HETATM   17  O   UNL     1      27.032  47.449  55.776  1.00  0.00    -0.360 OA
HETATM   18  H   UNL     1      27.516  47.963  56.459  1.00  0.00     0.217 HD
ENDBRANCH   8  17
ENDBRANCH   6   7
ENDBRANCH   2   5
BRANCH   1  19
HETATM   19  C   UNL     1      24.309  47.292  49.673  1.00  0.00     0.049 A 
HETATM   20  C   UNL     1      23.967  48.547  49.162  1.00  0.00     0.108 A 
HETATM   21  N   UNL     1      22.947  48.691  48.282  1.00  0.00    -0.361 N 
HETATM   22  C   UNL     1      22.219  47.621  47.891  1.00  0.00     0.090 A 
HETATM   23  C   UNL     1      22.505  46.353  48.394  1.00  0.00     0.018 A 
HETATM   24  C   UNL     1      23.557  46.184  49.292  1.00  0.00     0.020 A 
BRANCH  21  25
HETATM   25  C   UNL     1      22.633  50.038  47.739  1.00  0.00     0.166 C 
BRANCH  25  26
HETATM   26  C   UNL     1      21.389  50.599  48.377  1.00  0.00    -0.040 A 
HETATM   27  C   UNL     1      20.275  50.925  47.586  1.00  0.00     0.009 A 
HETATM   28  C   UNL     1      19.115  51.432  48.173  1.00  0.00     0.001 A 
HETATM   29  C   UNL     1      19.051  51.618  49.552  1.00  0.00     0.000 A 
HETATM   30  C   UNL     1      20.145  51.291  50.348  1.00  0.00     0.001 A 
HETATM   31  C   UNL     1      21.306  50.779  49.767  1.00  0.00     0.009 A 
ENDBRANCH  25  26
ENDBRANCH  21  25
ENDBRANCH   1  19
TORSDOF 6
ENDMDL
MODEL 4
REMARK VINA RESULT:      -9.8      1.688      2.411
REMARK  6 active torsions:
REMARK  status: ('A' for Active; 'I' for Inactive)
REMARK    1  A    between atoms: C_4  and  C_5 
REMARK    2  A    between atoms: C_5  and  N_6 
REMARK    3  A    between atoms: C_8  and  C_9 
REMARK       I    between atoms: C_9  and  N_10 
REMARK    4  A    between atoms: N_10  and  N_11 
REMARK    5  A    between atoms: C_12  and  C_13 
REMARK    6  A    between atoms: C_14  and  O_15 
ROOT
HETATM    1  C   UNL     1      25.289  46.963  51.179  1.00  0.00     0.273 C 
HETATM    2  N   UNL     1      24.723  47.279  49.955  1.00  0.00    -0.243 N 
HETATM    3  O   UNL     1      25.091  47.578  52.224  1.00  0.00    -0.266 OA
HETATM    4  H   UNL     1      24.853  46.724  49.119  1.00  0.00     0.192 HD
ENDROOT
BRANCH   2   5
HETATM    5  N   UNL     1      23.808  48.287  49.924  1.00  0.00    -0.183 NA
HETATM    6  C   UNL     1      22.787  48.124  49.137  1.00  0.00     0.153 C 
BRANCH   6   7
HETATM    7  C   UNL     1      21.695  49.130  49.079  1.00  0.00     0.027 A 
HETATM    8  C   UNL     1      22.014  50.495  49.207  1.00  0.00     0.078 A 
HETATM    9  C   UNL     1      21.014  51.456  49.231  1.00  0.00     0.038 A 
HETATM   10  C   UNL     1      19.682  51.070  49.123  1.00  0.00     0.015 A 
HETATM   11  C   UNL     1      19.330  49.722  48.978  1.00  0.00    -0.025 A 
HETATM   12  C   UNL     1      20.334  48.716  48.944  1.00  0.00    -0.012 A 
HETATM   13  C   UNL     1      17.974  49.375  48.864  1.00  0.00     0.012 A 
HETATM   14  C   UNL     1      19.893  47.377  48.768  1.00  0.00     0.013 A 
HETATM   15  C   UNL     1      18.539  47.050  48.653  1.00  0.00     0.001 A 
HETATM   16  C   UNL     1      17.579  48.049  48.705  1.00  0.00     0.001 A 
BRANCH   8  17
HETATM   17  O   UNL     1      23.291  50.975  49.330  1.00  0.00    -0.360 OA
HETATM   18  H   UNL     1      23.903  50.363  48.866  1.00  0.00     0.217 HD
ENDBRANCH   8  17
ENDBRANCH   6   7
ENDBRANCH   2   5
BRANCH   1  19
HETATM   19  C   UNL     1      26.159  45.767  51.260  1.00  0.00     0.049 A 
HETATM   20  C   UNL     1      26.313  45.208  52.531  1.00  0.00     0.108 A 
HETATM   21  N   UNL     1      27.046  44.084  52.718  1.00  0.00    -0.361 N 
HETATM   22  C   UNL     1      27.665  43.485  51.676  1.00  0.00     0.090 A 
HETATM   23  C   UNL     1      27.563  44.019  50.394  1.00  0.00     0.018 A 
HETATM   24  C   UNL     1      26.805  45.169  50.181  1.00  0.00     0.020 A 
BRANCH  21  25
HETATM   25  C   UNL     1      27.162  43.504  54.082  1.00  0.00     0.166 C 
BRANCH  25  26
HETATM   26  C   UNL     1      28.475  43.881  54.717  1.00  0.00    -0.040 A 
HETATM   27  C   UNL     1      28.630  45.136  55.328  1.00  0.00     0.009 A 
HETATM   28  C   UNL     1      29.839  45.486  55.930  1.00  0.00     0.001 A 
HETATM   29  C   UNL     1      30.905  44.590  55.934  1.00  0.00     0.000 A 
HETATM   30  C   UNL     1      30.762  43.338  55.340  1.00  0.00     0.001 A 
HETATM   31  C   UNL     1      29.553  42.982  54.740  1.00  0.00     0.009 A 
ENDBRANCH  25  26
ENDBRANCH  21  25
ENDBRANCH   1  19
TORSDOF 6
ENDMDL
MODEL 5
REMARK VINA RESULT:      -9.5      6.458     10.790
REMARK  6 active torsions:
REMARK  status: ('A' for Active; 'I' for Inactive)
REMARK    1  A    between atoms: C_4  and  C_5 
REMARK    2  A    between atoms: C_5  and  N_6 
REMARK    3  A    between atoms: C_8  and  C_9 
REMARK       I    between atoms: C_9  and  N_10 
REMARK    4  A    between atoms: N_10  and  N_11 
REMARK    5  A    between atoms: C_12  and  C_13 
REMARK    6  A    between atoms: C_14  and  O_15 
ROOT
HETATM    1  C   UNL     1      27.850  40.748  50.865  1.00  0.00     0.273 C 
HETATM    2  N   UNL     1      28.402  40.694  52.134  1.00  0.00    -0.243 N 
HETATM    3  O   UNL     1      27.076  41.617  50.471  1.00  0.00    -0.266 OA
HETATM    4  H   UNL     1      29.084  40.002  52.418  1.00  0.00     0.192 HD
ENDROOT
BRANCH   2   5
HETATM    5  N   UNL     1      28.143  41.729  52.980  1.00  0.00    -0.183 NA
HETATM    6  C   UNL     1      29.128  42.537  53.234  1.00  0.00     0.153 C 
BRANCH   6   7
HETATM    7  C   UNL     1      28.936  43.738  54.087  1.00  0.00     0.027 A 
HETATM    8  C   UNL     1      27.968  44.691  53.721  1.00  0.00     0.078 A 
HETATM    9  C   UNL     1      27.812  45.860  54.452  1.00  0.00     0.038 A 
HETATM   10  C   UNL     1      28.617  46.092  55.563  1.00  0.00     0.015 A 
HETATM   11  C   UNL     1      29.579  45.156  55.966  1.00  0.00    -0.025 A 
HETATM   12  C   UNL     1      29.757  43.948  55.238  1.00  0.00    -0.012 A 
HETATM   13  C   UNL     1      30.366  45.426  57.097  1.00  0.00     0.012 A 
HETATM   14  C   UNL     1      30.737  43.044  55.728  1.00  0.00     0.013 A 
HETATM   15  C   UNL     1      31.508  43.326  56.860  1.00  0.00     0.001 A 
HETATM   16  C   UNL     1      31.325  44.520  57.541  1.00  0.00     0.001 A 
BRANCH   8  17
HETATM   17  O   UNL     1      27.135  44.561  52.640  1.00  0.00    -0.360 OA
HETATM   18  H   UNL     1      27.111  45.417  52.158  1.00  0.00     0.217 HD
ENDBRANCH   8  17
ENDBRANCH   6   7
ENDBRANCH   2   5
BRANCH   1  19
HETATM   19  C   UNL     1      28.255  39.716  49.882  1.00  0.00     0.049 A 
HETATM   20  C   UNL     1      27.534  39.696  48.685  1.00  0.00     0.108 A 
HETATM   21  N   UNL     1      27.847  38.829  47.693  1.00  0.00    -0.361 N 
HETATM   22  C   UNL     1      28.858  37.944  47.846  1.00  0.00     0.090 A 
HETATM   23  C   UNL     1      29.589  37.907  49.031  1.00  0.00     0.018 A 
HETATM   24  C   UNL     1      29.287  38.799  50.059  1.00  0.00     0.020 A 
BRANCH  21  25
HETATM   25  C   UNL     1      27.075  38.858  46.423  1.00  0.00     0.166 C 
BRANCH  25  26
HETATM   26  C   UNL     1      27.948  39.280  45.271  1.00  0.00    -0.040 A 
HETATM   27  C   UNL     1      28.454  38.320  44.379  1.00  0.00     0.009 A 
HETATM   28  C   UNL     1      29.252  38.706  43.302  1.00  0.00     0.001 A 
HETATM   29  C   UNL     1      29.553  40.050  43.099  1.00  0.00     0.000 A 
HETATM   30  C   UNL     1      29.051  41.014  43.971  1.00  0.00     0.001 A 
HETATM   31  C   UNL     1      28.248  40.633  45.047  1.00  0.00     0.009 A 
ENDBRANCH  25  26
ENDBRANCH  21  25
ENDBRANCH   1  19
TORSDOF 6
ENDMDL
MODEL 6
REMARK VINA RESULT:      -9.3      2.298      3.738
REMARK  6 active torsions:
REMARK  status: ('A' for Active; 'I' for Inactive)
REMARK    1  A    between atoms: C_4  and  C_5 
REMARK    2  A    between atoms: C_5  and  N_6 
REMARK    3  A    between atoms: C_8  and  C_9 
REMARK       I    between atoms: C_9  and  N_10 
REMARK    4  A    between atoms: N_10  and  N_11 
REMARK    5  A    between atoms: C_12  and  C_13 
REMARK    6  A    between atoms: C_14  and  O_15 
ROOT
HETATM    1  C   UNL     1      24.339  47.568  49.780  1.00  0.00     0.273 C 
HETATM    2  N   UNL     1      22.986  47.509  49.493  1.00  0.00    -0.243 N 
HETATM    3  O   UNL     1      25.030  48.581  49.708  1.00  0.00    -0.266 OA
HETATM    4  H   UNL     1      22.424  46.676  49.616  1.00  0.00     0.192 HD
ENDROOT
BRANCH   2   5
HETATM    5  N   UNL     1      22.352  48.677  49.199  1.00  0.00    -0.183 NA
HETATM    6  C   UNL     1      21.065  48.616  49.026  1.00  0.00     0.153 C 
BRANCH   6   7
HETATM    7  C   UNL     1      20.266  49.842  48.771  1.00  0.00     0.027 A 
HETATM    8  C   UNL     1      20.287  50.883  49.717  1.00  0.00     0.078 A 
HETATM    9  C   UNL     1      19.496  52.010  49.548  1.00  0.00     0.038 A 
HETATM   10  C   UNL     1      18.676  52.117  48.430  1.00  0.00     0.015 A 
HETATM   11  C   UNL     1      18.642  51.106  47.460  1.00  0.00    -0.025 A 
HETATM   12  C   UNL     1      19.446  49.943  47.605  1.00  0.00    -0.012 A 
HETATM   13  C   UNL     1      17.805  51.257  46.342  1.00  0.00     0.012 A 
HETATM   14  C   UNL     1      19.371  48.979  46.564  1.00  0.00     0.013 A 
HETATM   15  C   UNL     1      18.535  49.147  45.455  1.00  0.00     0.001 A 
HETATM   16  C   UNL     1      17.749  50.284  45.347  1.00  0.00     0.001 A 
BRANCH   8  17
HETATM   17  O   UNL     1      21.051  50.869  50.854  1.00  0.00    -0.360 OA
HETATM   18  H   UNL     1      20.909  50.015  51.318  1.00  0.00     0.217 HD
ENDBRANCH   8  17
ENDBRANCH   6   7
ENDBRANCH   2   5
BRANCH   1  19
HETATM   19  C   UNL     1      25.007  46.335  50.260  1.00  0.00     0.049 A 
HETATM   20  C   UNL     1      25.018  46.145  51.644  1.00  0.00     0.108 A 
HETATM   21  N   UNL     1      25.557  45.031  52.194  1.00  0.00    -0.361 N 
HETATM   22  C   UNL     1      26.118  44.080  51.413  1.00  0.00     0.090 A 
HETATM   23  C   UNL     1      26.156  44.237  50.030  1.00  0.00     0.018 A 
HETATM   24  C   UNL     1      25.597  45.372  49.445  1.00  0.00     0.020 A 
BRANCH  21  25
HETATM   25  C   UNL     1      25.523  44.853  53.669  1.00  0.00     0.166 C 
BRANCH  25  26
HETATM   26  C   UNL     1      26.805  45.331  54.299  1.00  0.00    -0.040 A 
HETATM   27  C   UNL     1      26.973  46.688  54.618  1.00  0.00     0.009 A 
HETATM   28  C   UNL     1      28.153  47.135  55.215  1.00  0.00     0.001 A 
HETATM   29  C   UNL     1      29.176  46.235  55.502  1.00  0.00     0.000 A 
HETATM   30  C   UNL     1      29.020  44.885  55.199  1.00  0.00     0.001 A 
HETATM   31  C   UNL     1      27.840  44.433  54.607  1.00  0.00     0.009 A 
ENDBRANCH  25  26
ENDBRANCH  21  25
ENDBRANCH   1  19
TORSDOF 6
ENDMDL
MODEL 7
REMARK VINA RESULT:      -9.0      2.625     10.472
REMARK  6 active torsions:
REMARK  status: ('A' for Active; 'I' for Inactive)
REMARK    1  A    between atoms: C_4  and  C_5 
REMARK    2  A    between atoms: C_5  and  N_6 
REMARK    3  A    between atoms: C_8  and  C_9 
REMARK       I    between atoms: C_9  and  N_10 
REMARK    4  A    between atoms: N_10  and  N_11 
REMARK    5  A    between atoms: C_12  and  C_13 
REMARK    6  A    between atoms: C_14  and  O_15 
ROOT
HETATM    1  C   UNL     1      24.539  47.318  50.048  1.00  0.00     0.273 C 
HETATM    2  N   UNL     1      24.385  46.000  49.652  1.00  0.00    -0.243 N 
HETATM    3  O   UNL     1      25.135  47.683  51.059  1.00  0.00    -0.266 OA
HETATM    4  H   UNL     1      23.941  45.726  48.784  1.00  0.00     0.192 HD
ENDROOT
BRANCH   2   5
HETATM    5  N   UNL     1      25.017  45.042  50.384  1.00  0.00    -0.183 NA
HETATM    6  C   UNL     1      26.281  44.865  50.145  1.00  0.00     0.153 C 
BRANCH   6   7
HETATM    7  C   UNL     1      27.083  43.895  50.935  1.00  0.00     0.027 A 
HETATM    8  C   UNL     1      27.450  42.670  50.346  1.00  0.00     0.078 A 
HETATM    9  C   UNL     1      28.134  41.710  51.077  1.00  0.00     0.038 A 
HETATM   10  C   UNL     1      28.466  41.959  52.405  1.00  0.00     0.015 A 
HETATM   11  C   UNL     1      28.130  43.174  53.017  1.00  0.00    -0.025 A 
HETATM   12  C   UNL     1      27.434  44.178  52.290  1.00  0.00    -0.012 A 
HETATM   13  C   UNL     1      28.491  43.388  54.358  1.00  0.00     0.012 A 
HETATM   14  C   UNL     1      27.155  45.389  52.979  1.00  0.00     0.013 A 
HETATM   15  C   UNL     1      27.526  45.587  54.312  1.00  0.00     0.001 A 
HETATM   16  C   UNL     1      28.190  44.585  55.003  1.00  0.00     0.001 A 
BRANCH   8  17
HETATM   17  O   UNL     1      27.161  42.325  49.052  1.00  0.00    -0.360 OA
HETATM   18  H   UNL     1      27.909  41.799  48.693  1.00  0.00     0.217 HD
ENDBRANCH   8  17
ENDBRANCH   6   7
ENDBRANCH   2   5
BRANCH   1  19
HETATM   19  C   UNL     1      23.996  48.381  49.170  1.00  0.00     0.049 A 
HETATM   20  C   UNL     1      22.644  48.267  48.836  1.00  0.00     0.108 A 
HETATM   21  N   UNL     1      22.028  49.206  48.080  1.00  0.00    -0.361 N 
HETATM   22  C   UNL     1      22.715  50.273  47.612  1.00  0.00     0.090 A 
HETATM   23  C   UNL     1      24.071  50.417  47.897  1.00  0.00     0.018 A 
HETATM   24  C   UNL     1      24.719  49.466  48.681  1.00  0.00     0.020 A 
BRANCH  21  25
HETATM   25  C   UNL     1      20.581  49.064  47.770  1.00  0.00     0.166 C 
BRANCH  25  26
HETATM   26  C   UNL     1      19.811  50.276  48.223  1.00  0.00    -0.040 A 
HETATM   27  C   UNL     1      19.179  51.105  47.281  1.00  0.00     0.009 A 
HETATM   28  C   UNL     1      18.452  52.221  47.696  1.00  0.00     0.001 A 
HETATM   29  C   UNL     1      18.345  52.524  49.051  1.00  0.00     0.000 A 
HETATM   30  C   UNL     1      18.959  51.706  49.996  1.00  0.00     0.001 A 
HETATM   31  C   UNL     1      19.683  50.586  49.586  1.00  0.00     0.009 A 
ENDBRANCH  25  26
ENDBRANCH  21  25
ENDBRANCH   1  19
TORSDOF 6
ENDMDL
MODEL 8
REMARK VINA RESULT:      -8.9      2.147      2.382
REMARK  6 active torsions:
REMARK  status: ('A' for Active; 'I' for Inactive)
REMARK    1  A    between atoms: C_4  and  C_5 
REMARK    2  A    between atoms: C_5  and  N_6 
REMARK    3  A    between atoms: C_8  and  C_9 
REMARK       I    between atoms: C_9  and  N_10 
REMARK    4  A    between atoms: N_10  and  N_11 
REMARK    5  A    between atoms: C_12  and  C_13 
REMARK    6  A    between atoms: C_14  and  O_15 
ROOT
HETATM    1  C   UNL     1      26.637  44.689  49.818  1.00  0.00     0.273 C 
HETATM    2  N   UNL     1      25.308  44.935  49.518  1.00  0.00    -0.243 N 
HETATM    3  O   UNL     1      27.576  45.415  49.501  1.00  0.00    -0.266 OA
HETATM    4  H   UNL     1      24.545  44.354  49.840  1.00  0.00     0.192 HD
ENDROOT
BRANCH   2   5
HETATM    5  N   UNL     1      25.007  46.115  48.908  1.00  0.00    -0.183 NA
HETATM    6  C   UNL     1      24.105  46.854  49.480  1.00  0.00     0.153 C 
BRANCH   6   7
HETATM    7  C   UNL     1      23.750  48.191  48.938  1.00  0.00     0.027 A 
HETATM    8  C   UNL     1      24.752  49.175  48.833  1.00  0.00     0.078 A 
HETATM    9  C   UNL     1      24.442  50.456  48.400  1.00  0.00     0.038 A 
HETATM   10  C   UNL     1      23.131  50.774  48.062  1.00  0.00     0.015 A 
HETATM   11  C   UNL     1      22.113  49.814  48.140  1.00  0.00    -0.025 A 
HETATM   12  C   UNL     1      22.402  48.492  48.574  1.00  0.00    -0.012 A 
HETATM   13  C   UNL     1      20.803  50.174  47.782  1.00  0.00     0.012 A 
HETATM   14  C   UNL     1      21.317  47.575  48.600  1.00  0.00     0.013 A 
HETATM   15  C   UNL     1      20.020  47.950  48.236  1.00  0.00     0.001 A 
HETATM   16  C   UNL     1      19.763  49.250  47.832  1.00  0.00     0.001 A 
BRANCH   8  17
HETATM   17  O   UNL     1      26.068  48.966  49.150  1.00  0.00    -0.360 OA
HETATM   18  H   UNL     1      26.613  49.640  48.690  1.00  0.00     0.217 HD
ENDBRANCH   8  17
ENDBRANCH   6   7
ENDBRANCH   2   5
BRANCH   1  19
HETATM   19  C   UNL     1      26.962  43.490  50.625  1.00  0.00     0.049 A 
HETATM   20  C   UNL     1      28.162  43.540  51.340  1.00  0.00     0.108 A 
HETATM   21  N   UNL     1      28.538  42.522  52.150  1.00  0.00    -0.361 N 
HETATM   22  C   UNL     1      27.766  41.418  52.272  1.00  0.00     0.090 A 
HETATM   23  C   UNL     1      26.574  41.310  51.560  1.00  0.00     0.018 A 
HETATM   24  C   UNL     1      26.166  42.352  50.729  1.00  0.00     0.020 A 
BRANCH  21  25
HETATM   25  C   UNL     1      29.808  42.625  52.915  1.00  0.00     0.166 C 
BRANCH  25  26
HETATM   26  C   UNL     1      29.659  43.569  54.080  1.00  0.00    -0.040 A 
HETATM   27  C   UNL     1      30.650  43.627  55.073  1.00  0.00     0.009 A 
HETATM   28  C   UNL     1      30.525  44.509  56.147  1.00  0.00     0.001 A 
HETATM   29  C   UNL     1      29.414  45.344  56.242  1.00  0.00     0.000 A 
HETATM   30  C   UNL     1      28.429  45.303  55.260  1.00  0.00     0.001 A 
HETATM   31  C   UNL     1      28.552  44.426  54.181  1.00  0.00     0.009 A 
ENDBRANCH  25  26
ENDBRANCH  21  25
ENDBRANCH   1  19
TORSDOF 6
ENDMDL
MODEL 9
REMARK VINA RESULT:      -8.9      2.137      9.665
REMARK  6 active torsions:
REMARK  status: ('A' for Active; 'I' for Inactive)
REMARK    1  A    between atoms: C_4  and  C_5 
REMARK    2  A    between atoms: C_5  and  N_6 
REMARK    3  A    between atoms: C_8  and  C_9 
REMARK       I    between atoms: C_9  and  N_10 
REMARK    4  A    between atoms: N_10  and  N_11 
REMARK    5  A    between atoms: C_12  and  C_13 
REMARK    6  A    between atoms: C_14  and  O_15 
ROOT
HETATM    1  C   UNL     1      24.252  44.871  50.130  1.00  0.00     0.273 C 
HETATM    2  N   UNL     1      24.437  45.961  50.964  1.00  0.00    -0.243 N 
HETATM    3  O   UNL     1      24.672  43.738  50.352  1.00  0.00    -0.266 OA
HETATM    4  H   UNL     1      24.032  46.872  50.791  1.00  0.00     0.192 HD
ENDROOT
BRANCH   2   5
HETATM    5  N   UNL     1      25.047  45.744  52.162  1.00  0.00    -0.183 NA
HETATM    6  C   UNL     1      26.343  45.830  52.181  1.00  0.00     0.153 C 
BRANCH   6   7
HETATM    7  C   UNL     1      27.104  45.680  53.448  1.00  0.00     0.027 A 
HETATM    8  C   UNL     1      26.809  46.532  54.529  1.00  0.00     0.078 A 
HETATM    9  C   UNL     1      27.548  46.470  55.701  1.00  0.00     0.038 A 
HETATM   10  C   UNL     1      28.589  45.554  55.814  1.00  0.00     0.015 A 
HETATM   11  C   UNL     1      28.899  44.680  54.764  1.00  0.00    -0.025 A 
HETATM   12  C   UNL     1      28.154  44.717  53.553  1.00  0.00    -0.012 A 
HETATM   13  C   UNL     1      29.953  43.765  54.922  1.00  0.00     0.012 A 
HETATM   14  C   UNL     1      28.518  43.780  52.549  1.00  0.00     0.013 A 
HETATM   15  C   UNL     1      29.567  42.873  52.725  1.00  0.00     0.001 A 
HETATM   16  C   UNL     1      30.287  42.869  53.910  1.00  0.00     0.001 A 
BRANCH   8  17
HETATM   17  O   UNL     1      25.814  47.473  54.514  1.00  0.00    -0.360 OA
HETATM   18  H   UNL     1      25.052  47.116  54.005  1.00  0.00     0.217 HD
ENDBRANCH   8  17
ENDBRANCH   6   7
ENDBRANCH   2   5
BRANCH   1  19
HETATM   19  C   UNL     1      23.447  45.059  48.901  1.00  0.00     0.049 A 
HETATM   20  C   UNL     1      22.570  46.146  48.904  1.00  0.00     0.108 A 
HETATM   21  N   UNL     1      21.819  46.444  47.817  1.00  0.00    -0.361 N 
HETATM   22  C   UNL     1      21.887  45.680  46.703  1.00  0.00     0.090 A 
HETATM   23  C   UNL     1      22.727  44.570  46.661  1.00  0.00     0.018 A 
HETATM   24  C   UNL     1      23.514  44.254  47.766  1.00  0.00     0.020 A 
BRANCH  21  25
HETATM   25  C   UNL     1      20.919  47.627  47.850  1.00  0.00     0.166 C 
BRANCH  25  26
HETATM   26  C   UNL     1      21.671  48.864  48.266  1.00  0.00    -0.040 A 
HETATM   27  C   UNL     1      21.192  49.661  49.319  1.00  0.00     0.009 A 
HETATM   28  C   UNL     1      21.892  50.801  49.718  1.00  0.00     0.001 A 
HETATM   29  C   UNL     1      23.074  51.158  49.075  1.00  0.00     0.000 A 
HETATM   30  C   UNL     1      23.565  50.372  48.036  1.00  0.00     0.001 A 
HETATM   31  C   UNL     1      22.872  49.228  47.636  1.00  0.00     0.009 A 
ENDBRANCH  25  26
ENDBRANCH  21  25
ENDBRANCH   1  19
TORSDOF 6
ENDMDL
MODEL 10
REMARK VINA RESULT:      -8.8      4.164      6.442
REMARK  6 active torsions:
REMARK  status: ('A' for Active; 'I' for Inactive)
REMARK    1  A    between atoms: C_4  and  C_5 
REMARK    2  A    between atoms: C_5  and  N_6 
REMARK    3  A    between atoms: C_8  and  C_9 
REMARK       I    between atoms: C_9  and  N_10 
REMARK    4  A    between atoms: N_10  and  N_11 
REMARK    5  A    between atoms: C_12  and  C_13 
REMARK    6  A    between atoms: C_14  and  O_15 
ROOT
HETATM    1  C   UNL     1      22.694  48.059  48.575  1.00  0.00     0.273 C 
HETATM    2  N   UNL     1      21.657  48.168  49.486  1.00  0.00    -0.243 N 
HETATM    3  O   UNL     1      22.552  47.922  47.362  1.00  0.00    -0.266 OA
HETATM    4  H   UNL     1      21.797  48.340  50.474  1.00  0.00     0.192 HD
ENDROOT
BRANCH   2   5
HETATM    5  N   UNL     1      20.388  48.221  48.996  1.00  0.00    -0.183 NA
HETATM    6  C   UNL     1      19.509  48.847  49.719  1.00  0.00     0.153 C 
BRANCH   6   7
HETATM    7  C   UNL     1      18.112  49.024  49.246  1.00  0.00     0.027 A 
HETATM    8  C   UNL     1      17.406  47.907  48.761  1.00  0.00     0.078 A 
HETATM    9  C   UNL     1      16.127  48.047  48.243  1.00  0.00     0.038 A 
HETATM   10  C   UNL     1      15.532  49.304  48.204  1.00  0.00     0.015 A 
HETATM   11  C   UNL     1      16.199  50.435  48.693  1.00  0.00    -0.025 A 
HETATM   12  C   UNL     1      17.508  50.319  49.235  1.00  0.00    -0.012 A 
HETATM   13  C   UNL     1      15.559  51.684  48.642  1.00  0.00     0.012 A 
HETATM   14  C   UNL     1      18.103  51.510  49.731  1.00  0.00     0.013 A 
HETATM   15  C   UNL     1      17.450  52.745  49.676  1.00  0.00     0.001 A 
HETATM   16  C   UNL     1      16.180  52.832  49.128  1.00  0.00     0.001 A 
BRANCH   8  17
HETATM   17  O   UNL     1      17.907  46.632  48.746  1.00  0.00    -0.360 OA
HETATM   18  H   UNL     1      18.845  46.659  49.036  1.00  0.00     0.217 HD
ENDBRANCH   8  17
ENDBRANCH   6   7
ENDBRANCH   2   5
BRANCH   1  19
HETATM   19  C   UNL     1      24.083  48.165  49.078  1.00  0.00     0.049 A 
HETATM   20  C   UNL     1      24.449  47.244  50.064  1.00  0.00     0.108 A 
HETATM   21  N   UNL     1      25.707  47.216  50.563  1.00  0.00    -0.361 N 
HETATM   22  C   UNL     1      26.639  48.095  50.132  1.00  0.00     0.090 A 
HETATM   23  C   UNL     1      26.316  49.050  49.170  1.00  0.00     0.018 A 
HETATM   24  C   UNL     1      25.029  49.088  48.638  1.00  0.00     0.020 A 
BRANCH  21  25
HETATM   25  C   UNL     1      26.065  46.202  51.590  1.00  0.00     0.166 C 
BRANCH  25  26
HETATM   26  C   UNL     1      25.940  44.807  51.035  1.00  0.00    -0.040 A 
HETATM   27  C   UNL     1      26.878  44.330  50.105  1.00  0.00     0.009 A 
HETATM   28  C   UNL     1      26.776  43.034  49.599  1.00  0.00     0.001 A 
HETATM   29  C   UNL     1      25.742  42.199  50.015  1.00  0.00     0.000 A 
HETATM   30  C   UNL     1      24.811  42.656  50.944  1.00  0.00     0.001 A 
HETATM   31  C   UNL     1      24.911  43.949  51.456  1.00  0.00     0.009 A 
ENDBRANCH  25  26
ENDBRANCH  21  25
ENDBRANCH   1  19
TORSDOF 6
ENDMDL
