MODEL 1
REMARK VINA RESULT:      -9.2      0.000      0.000
REMARK  5 active torsions:
REMARK  status: ('A' for Active; 'I' for Inactive)
REMARK    1  A    between atoms: C_9  and  C_10 
REMARK       I    between atoms: C_10  and  N_11 
REMARK    2  A    between atoms: N_11  and  C_12 
REMARK    3  A    between atoms: C_15  and  N_16 
REMARK       I    between atoms: N_16  and  C_17 
REMARK       I    between atoms: C_17  and  N_18 
REMARK    4  A    between atoms: N_18  and  C_19 
REMARK    5  A    between atoms: C_19  and  C_20 
ROOT
HETATM    1  C   UNL     1      25.701  46.256  51.758  1.00  0.00     0.035 A 
HETATM    2  C   UNL     1      24.806  45.257  51.380  1.00  0.00     0.032 A 
HETATM    3  C   UNL     1      23.928  45.450  50.302  1.00  0.00     0.032 A 
HETATM    4  C   UNL     1      23.910  46.656  49.603  1.00  0.00     0.036 A 
HETATM    5  C   UNL     1      24.816  47.653  49.979  1.00  0.00     0.032 A 
HETATM    6  C   UNL     1      25.704  47.456  51.044  1.00  0.00     0.032 A 
ENDROOT
BRANCH   1   7
HETATM    7  N   UNL     1      26.633  46.123  52.798  1.00  0.00    -0.322 N 
HETATM    8  C   UNL     1      26.529  46.542  54.111  1.00  0.00     0.277 C 
HETATM    9  O   UNL     1      25.602  47.179  54.599  1.00  0.00    -0.266 OA
HETATM   10  H   UNL     1      27.512  45.650  52.599  1.00  0.00     0.169 HD
BRANCH   8  11
HETATM   11  C   UNL     1      27.705  46.130  54.905  1.00  0.00     0.157 A 
HETATM   12  C   UNL     1      28.553  45.005  54.685  1.00  0.00     0.029 A 
HETATM   13  C   UNL     1      28.610  43.939  53.764  1.00  0.00     0.023 A 
HETATM   14  C   UNL     1      29.520  45.082  55.679  1.00  0.00     0.063 A 
HETATM   15  C   UNL     1      29.638  42.988  53.870  1.00  0.00    -0.061 A 
HETATM   16  C   UNL     1      29.710  41.835  52.909  1.00  0.00     0.048 C 
HETATM   17  C   UNL     1      30.597  43.106  54.884  1.00  0.00     0.009 A 
HETATM   18  C   UNL     1      30.559  44.157  55.809  1.00  0.00     0.032 A 
HETATM   19  N   UNL     1      29.203  46.195  56.407  1.00  0.00    -0.277 N 
HETATM   20  H   UNL     1      29.698  46.560  57.213  1.00  0.00     0.189 HD
HETATM   21  N   UNL     1      28.106  46.847  55.981  1.00  0.00    -0.168 NA
ENDBRANCH   8  11
ENDBRANCH   1   7
BRANCH   4  22
HETATM   22  N   UNL     1      23.084  46.942  48.500  1.00  0.00    -0.309 N 
HETATM   23  C   UNL     1      21.897  47.589  48.351  1.00  0.00     0.320 C 
HETATM   24  N   UNL     1      21.436  48.335  49.387  1.00  0.00    -0.339 N 
HETATM   25  O   UNL     1      21.307  47.501  47.275  1.00  0.00    -0.247 OA
HETATM   26  H   UNL     1      22.164  48.798  49.910  1.00  0.00     0.164 HD
HETATM   27  H   UNL     1      23.373  46.547  47.614  1.00  0.00     0.170 HD
BRANCH  24  28
HETATM   28  C   UNL     1      20.215  49.089  49.236  1.00  0.00     0.150 C 
BRANCH  28  29
HETATM   29  C   UNL     1      20.453  50.545  49.501  1.00  0.00    -0.018 C 
HETATM   30  C   UNL     1      20.450  51.539  48.602  1.00  0.00     0.008 C 
ENDBRANCH  28  29
ENDBRANCH  24  28
ENDBRANCH   4  22
TORSDOF 5
ENDMDL
MODEL 2
REMARK VINA RESULT:      -9.1      2.121      2.867
REMARK  5 active torsions:
REMARK  status: ('A' for Active; 'I' for Inactive)
REMARK    1  A    between atoms: C_9  and  C_10 
REMARK       I    between atoms: C_10  and  N_11 
REMARK    2  A    between atoms: N_11  and  C_12 
REMARK    3  A    between atoms: C_15  and  N_16 
REMARK       I    between atoms: N_16  and  C_17 
REMARK       I    between atoms: C_17  and  N_18 
REMARK    4  A    between atoms: N_18  and  C_19 
REMARK    5  A    between atoms: C_19  and  C_20 
ROOT
HETATM    1  C   UNL     1      24.918  45.827  50.289  1.00  0.00     0.035 A 
HETATM    2  C   UNL     1      24.847  47.216  50.372  1.00  0.00     0.032 A 
HETATM    3  C   UNL     1      23.855  47.926  49.677  1.00  0.00     0.032 A 
HETATM    4  C   UNL     1      22.938  47.262  48.865  1.00  0.00     0.036 A 
HETATM    5  C   UNL     1      23.007  45.867  48.791  1.00  0.00     0.032 A 
HETATM    6  C   UNL     1      23.985  45.156  49.497  1.00  0.00     0.032 A 
ENDROOT
BRANCH   1   7
HETATM    7  N   UNL     1      25.854  45.046  50.984  1.00  0.00    -0.322 N 
HETATM    8  C   UNL     1      25.695  44.358  52.172  1.00  0.00     0.277 C 
HETATM    9  O   UNL     1      24.697  44.360  52.884  1.00  0.00    -0.266 OA
HETATM   10  H   UNL     1      26.783  44.938  50.583  1.00  0.00     0.169 HD
BRANCH   8  11
HETATM   11  C   UNL     1      26.908  43.588  52.518  1.00  0.00     0.157 A 
HETATM   12  C   UNL     1      27.883  43.900  53.510  1.00  0.00     0.029 A 
HETATM   13  C   UNL     1      28.093  44.941  54.438  1.00  0.00     0.023 A 
HETATM   14  C   UNL     1      28.795  42.855  53.460  1.00  0.00     0.063 A 
HETATM   15  C   UNL     1      29.212  44.897  55.286  1.00  0.00    -0.061 A 
HETATM   16  C   UNL     1      29.465  46.002  56.271  1.00  0.00     0.048 C 
HETATM   17  C   UNL     1      30.105  43.820  55.207  1.00  0.00     0.009 A 
HETATM   18  C   UNL     1      29.915  42.776  54.294  1.00  0.00     0.032 A 
HETATM   19  N   UNL     1      28.337  42.021  52.480  1.00  0.00    -0.277 N 
HETATM   20  H   UNL     1      28.756  41.150  52.172  1.00  0.00     0.189 HD
HETATM   21  N   UNL     1      27.208  42.435  51.876  1.00  0.00    -0.168 NA
ENDBRANCH   8  11
ENDBRANCH   1   7
BRANCH   4  22
HETATM   22  N   UNL     1      21.898  47.878  48.143  1.00  0.00    -0.309 N 
HETATM   23  C   UNL     1      20.766  48.543  48.497  1.00  0.00     0.320 C 
HETATM   24  N   UNL     1      20.627  48.934  49.790  1.00  0.00    -0.339 N 
HETATM   25  O   UNL     1      19.931  48.793  47.629  1.00  0.00    -0.247 OA
HETATM   26  H   UNL     1      21.494  49.211  50.226  1.00  0.00     0.164 HD
HETATM   27  H   UNL     1      21.934  47.774  47.137  1.00  0.00     0.170 HD
BRANCH  24  28
HETATM   28  C   UNL     1      19.470  49.702  50.183  1.00  0.00     0.150 C 
BRANCH  28  29
HETATM   29  C   UNL     1      19.735  51.171  50.045  1.00  0.00    -0.018 C 
HETATM   30  C   UNL     1      19.294  51.982  49.073  1.00  0.00     0.008 C 
ENDBRANCH  28  29
ENDBRANCH  24  28
ENDBRANCH   4  22
TORSDOF 5
ENDMDL
MODEL 3
REMARK VINA RESULT:      -8.8      1.953      2.645
REMARK  5 active torsions:
REMARK  status: ('A' for Active; 'I' for Inactive)
REMARK    1  A    between atoms: C_9  and  C_10 
REMARK       I    between atoms: C_10  and  N_11 
REMARK    2  A    between atoms: N_11  and  C_12 
REMARK    3  A    between atoms: C_15  and  N_16 
REMARK       I    between atoms: N_16  and  C_17 
REMARK       I    between atoms: C_17  and  N_18 
REMARK    4  A    between atoms: N_18  and  C_19 
REMARK    5  A    between atoms: C_19  and  C_20 
ROOT
HETATM    1  C   UNL     1      26.056  44.699  51.274  1.00  0.00     0.035 A 
HETATM    2  C   UNL     1      24.805  44.091  51.343  1.00  0.00     0.032 A 
HETATM    3  C   UNL     1      23.761  44.500  50.498  1.00  0.00     0.032 A 
HETATM    4  C   UNL     1      23.943  45.542  49.591  1.00  0.00     0.036 A 
HETATM    5  C   UNL     1      25.204  46.144  49.519  1.00  0.00     0.032 A 
HETATM    6  C   UNL     1      26.250  45.727  50.349  1.00  0.00     0.032 A 
ENDROOT
BRANCH   1   7
HETATM    7  N   UNL     1      27.158  44.320  52.057  1.00  0.00    -0.322 N 
HETATM    8  C   UNL     1      27.584  44.847  53.262  1.00  0.00     0.277 C 
HETATM    9  O   UNL     1      27.098  45.809  53.846  1.00  0.00    -0.266 OA
HETATM   10  H   UNL     1      27.737  43.550  51.732  1.00  0.00     0.169 HD
BRANCH   8  11
HETATM   11  C   UNL     1      28.742  44.103  53.797  1.00  0.00     0.157 A 
HETATM   12  C   UNL     1      29.447  44.347  55.013  1.00  0.00     0.029 A 
HETATM   13  C   UNL     1      29.369  45.283  56.063  1.00  0.00     0.023 A 
HETATM   14  C   UNL     1      30.422  43.360  55.068  1.00  0.00     0.063 A 
HETATM   15  C   UNL     1      30.271  45.197  57.137  1.00  0.00    -0.061 A 
HETATM   16  C   UNL     1      30.216  46.193  58.260  1.00  0.00     0.048 C 
HETATM   17  C   UNL     1      31.236  44.181  57.156  1.00  0.00     0.009 A 
HETATM   18  C   UNL     1      31.331  43.241  56.124  1.00  0.00     0.032 A 
HETATM   19  N   UNL     1      30.256  42.622  53.930  1.00  0.00    -0.277 N 
HETATM   20  H   UNL     1      30.796  41.815  53.641  1.00  0.00     0.189 HD
HETATM   21  N   UNL     1      29.262  43.047  53.129  1.00  0.00    -0.168 NA
ENDBRANCH   8  11
ENDBRANCH   1   7
BRANCH   4  22
HETATM   22  N   UNL     1      22.969  46.014  48.691  1.00  0.00    -0.309 N 
HETATM   23  C   UNL     1      22.204  47.137  48.630  1.00  0.00     0.320 C 
HETATM   24  N   UNL     1      22.523  48.179  49.440  1.00  0.00    -0.339 N 
HETATM   25  O   UNL     1      21.278  47.178  47.821  1.00  0.00    -0.247 OA
HETATM   26  H   UNL     1      23.515  48.290  49.587  1.00  0.00     0.164 HD
HETATM   27  H   UNL     1      22.712  45.382  47.944  1.00  0.00     0.170 HD
BRANCH  24  28
HETATM   28  C   UNL     1      21.773  49.409  49.349  1.00  0.00     0.150 C 
BRANCH  28  29
HETATM   29  C   UNL     1      22.687  50.569  49.090  1.00  0.00    -0.018 C 
HETATM   30  C   UNL     1      23.386  50.811  47.972  1.00  0.00     0.008 C 
ENDBRANCH  28  29
ENDBRANCH  24  28
ENDBRANCH   4  22
TORSDOF 5
ENDMDL
MODEL 4
REMARK VINA RESULT:      -8.6      4.892      8.272
REMARK  5 active torsions:
REMARK  status: ('A' for Active; 'I' for Inactive)
REMARK    1  A    between atoms: C_9  and  C_10 
REMARK       I    between atoms: C_10  and  N_11 
REMARK    2  A    between atoms: N_11  and  C_12 
REMARK    3  A    between atoms: C_15  and  N_16 
REMARK       I    between atoms: N_16  and  C_17 
REMARK       I    between atoms: C_17  and  N_18 
REMARK    4  A    between atoms: N_18  and  C_19 
REMARK    5  A    between atoms: C_19  and  C_20 
ROOT
HETATM    1  C   UNL     1      20.070  50.856  49.138  1.00  0.00     0.035 A 
HETATM    2  C   UNL     1      19.205  50.141  49.964  1.00  0.00     0.032 A 
HETATM    3  C   UNL     1      17.849  50.491  50.058  1.00  0.00     0.032 A 
HETATM    4  C   UNL     1      17.342  51.579  49.350  1.00  0.00     0.036 A 
HETATM    5  C   UNL     1      18.212  52.289  48.514  1.00  0.00     0.032 A 
HETATM    6  C   UNL     1      19.561  51.931  48.408  1.00  0.00     0.032 A 
ENDROOT
BRANCH   1   7
HETATM    7  N   UNL     1      21.427  50.543  48.963  1.00  0.00    -0.322 N 
HETATM    8  C   UNL     1      21.992  49.559  48.174  1.00  0.00     0.277 C 
HETATM    9  O   UNL     1      21.388  48.719  47.516  1.00  0.00    -0.266 OA
HETATM   10  H   UNL     1      22.117  51.102  49.459  1.00  0.00     0.169 HD
BRANCH   8  11
HETATM   11  C   UNL     1      23.468  49.619  48.209  1.00  0.00     0.157 A 
HETATM   12  C   UNL     1      24.351  48.854  49.025  1.00  0.00     0.029 A 
HETATM   13  C   UNL     1      24.216  47.870  50.025  1.00  0.00     0.023 A 
HETATM   14  C   UNL     1      25.627  49.262  48.657  1.00  0.00     0.063 A 
HETATM   15  C   UNL     1      25.366  47.325  50.621  1.00  0.00    -0.061 A 
HETATM   16  C   UNL     1      25.245  46.287  51.699  1.00  0.00     0.048 C 
HETATM   17  C   UNL     1      26.634  47.761  50.216  1.00  0.00     0.009 A 
HETATM   18  C   UNL     1      26.791  48.737  49.225  1.00  0.00     0.032 A 
HETATM   19  N   UNL     1      25.439  50.211  47.692  1.00  0.00    -0.277 N 
HETATM   20  H   UNL     1      26.156  50.726  47.193  1.00  0.00     0.189 HD
HETATM   21  N   UNL     1      24.150  50.466  47.403  1.00  0.00    -0.168 NA
ENDBRANCH   8  11
ENDBRANCH   1   7
BRANCH   4  22
HETATM   22  N   UNL     1      15.999  52.001  49.360  1.00  0.00    -0.309 N 
HETATM   23  C   UNL     1      15.319  52.974  50.024  1.00  0.00     0.320 C 
HETATM   24  N   UNL     1      16.032  53.929  50.673  1.00  0.00    -0.339 N 
HETATM   25  O   UNL     1      14.090  52.969  49.982  1.00  0.00    -0.247 OA
HETATM   26  H   UNL     1      16.888  54.187  50.204  1.00  0.00     0.164 HD
HETATM   27  H   UNL     1      15.355  51.446  48.811  1.00  0.00     0.170 HD
BRANCH  24  28
HETATM   28  C   UNL     1      15.341  55.014  51.328  1.00  0.00     0.150 C 
BRANCH  28  29
HETATM   29  C   UNL     1      15.292  56.223  50.444  1.00  0.00    -0.018 C 
HETATM   30  C   UNL     1      14.415  57.235  50.509  1.00  0.00     0.008 C 
ENDBRANCH  28  29
ENDBRANCH  24  28
ENDBRANCH   4  22
TORSDOF 5
ENDMDL
MODEL 5
REMARK VINA RESULT:      -8.5      4.827      7.993
REMARK  5 active torsions:
REMARK  status: ('A' for Active; 'I' for Inactive)
REMARK    1  A    between atoms: C_9  and  C_10 
REMARK       I    between atoms: C_10  and  N_11 
REMARK    2  A    between atoms: N_11  and  C_12 
REMARK    3  A    between atoms: C_15  and  N_16 
REMARK       I    between atoms: N_16  and  C_17 
REMARK       I    between atoms: C_17  and  N_18 
REMARK    4  A    between atoms: N_18  and  C_19 
REMARK    5  A    between atoms: C_19  and  C_20 
ROOT
HETATM    1  C   UNL     1      20.508  51.015  49.100  1.00  0.00     0.035 A 
HETATM    2  C   UNL     1      19.962  52.116  48.443  1.00  0.00     0.032 A 
HETATM    3  C   UNL     1      18.627  52.492  48.661  1.00  0.00     0.032 A 
HETATM    4  C   UNL     1      17.808  51.756  49.517  1.00  0.00     0.036 A 
HETATM    5  C   UNL     1      18.364  50.657  50.181  1.00  0.00     0.032 A 
HETATM    6  C   UNL     1      19.699  50.291  49.977  1.00  0.00     0.032 A 
ENDROOT
BRANCH   1   7
HETATM    7  N   UNL     1      21.842  50.602  48.963  1.00  0.00    -0.322 N 
HETATM    8  C   UNL     1      22.371  49.658  48.103  1.00  0.00     0.277 C 
HETATM    9  O   UNL     1      21.740  48.948  47.327  1.00  0.00    -0.266 OA
HETATM   10  H   UNL     1      22.545  51.042  49.552  1.00  0.00     0.169 HD
BRANCH   8  11
HETATM   11  C   UNL     1      23.842  49.583  48.221  1.00  0.00     0.157 A 
HETATM   12  C   UNL     1      24.603  48.746  49.088  1.00  0.00     0.029 A 
HETATM   13  C   UNL     1      24.321  47.787  50.082  1.00  0.00     0.023 A 
HETATM   14  C   UNL     1      25.930  49.032  48.792  1.00  0.00     0.063 A 
HETATM   15  C   UNL     1      25.381  47.144  50.744  1.00  0.00    -0.061 A 
HETATM   16  C   UNL     1      25.104  46.130  51.817  1.00  0.00     0.048 C 
HETATM   17  C   UNL     1      26.704  47.458  50.410  1.00  0.00     0.009 A 
HETATM   18  C   UNL     1      27.006  48.407  49.426  1.00  0.00     0.032 A 
HETATM   19  N   UNL     1      25.885  49.986  47.814  1.00  0.00    -0.277 N 
HETATM   20  H   UNL     1      26.673  50.428  47.355  1.00  0.00     0.189 HD
HETATM   21  N   UNL     1      24.643  50.356  47.452  1.00  0.00    -0.168 NA
ENDBRANCH   8  11
ENDBRANCH   1   7
BRANCH   4  22
HETATM   22  N   UNL     1      16.467  52.058  49.816  1.00  0.00    -0.309 N 
HETATM   23  C   UNL     1      15.459  52.662  49.131  1.00  0.00     0.320 C 
HETATM   24  N   UNL     1      15.614  52.859  47.797  1.00  0.00    -0.339 N 
HETATM   25  O   UNL     1      14.436  52.974  49.739  1.00  0.00    -0.247 OA
HETATM   26  H   UNL     1      16.124  52.121  47.334  1.00  0.00     0.164 HD
HETATM   27  H   UNL     1      16.164  51.849  50.759  1.00  0.00     0.170 HD
BRANCH  24  28
HETATM   28  C   UNL     1      14.535  53.433  47.030  1.00  0.00     0.150 C 
BRANCH  28  29
HETATM   29  C   UNL     1      14.727  53.174  45.566  1.00  0.00    -0.018 C 
HETATM   30  C   UNL     1      15.774  53.540  44.813  1.00  0.00     0.008 C 
ENDBRANCH  28  29
ENDBRANCH  24  28
ENDBRANCH   4  22
TORSDOF 5
ENDMDL
MODEL 6
REMARK VINA RESULT:      -8.2      6.327      8.501
REMARK  5 active torsions:
REMARK  status: ('A' for Active; 'I' for Inactive)
REMARK    1  A    between atoms: C_9  and  C_10 
REMARK       I    between atoms: C_10  and  N_11 
REMARK    2  A    between atoms: N_11  and  C_12 
REMARK    3  A    between atoms: C_15  and  N_16 
REMARK       I    between atoms: N_16  and  C_17 
REMARK       I    between atoms: C_17  and  N_18 
REMARK    4  A    between atoms: N_18  and  C_19 
REMARK    5  A    between atoms: C_19  and  C_20 
ROOT
HETATM    1  C   UNL     1      27.879  40.473  50.679  1.00  0.00     0.035 A 
HETATM    2  C   UNL     1      26.706  39.922  50.169  1.00  0.00     0.032 A 
HETATM    3  C   UNL     1      26.751  38.828  49.289  1.00  0.00     0.032 A 
HETATM    4  C   UNL     1      27.970  38.288  48.883  1.00  0.00     0.036 A 
HETATM    5  C   UNL     1      29.146  38.840  49.405  1.00  0.00     0.032 A 
HETATM    6  C   UNL     1      29.101  39.919  50.295  1.00  0.00     0.032 A 
ENDROOT
BRANCH   1   7
HETATM    7  N   UNL     1      27.913  41.539  51.591  1.00  0.00    -0.322 N 
HETATM    8  C   UNL     1      28.346  41.541  52.904  1.00  0.00     0.277 C 
HETATM    9  O   UNL     1      28.729  40.567  53.543  1.00  0.00    -0.266 OA
HETATM   10  H   UNL     1      27.595  42.453  51.276  1.00  0.00     0.169 HD
BRANCH   8  11
HETATM   11  C   UNL     1      28.292  42.896  53.490  1.00  0.00     0.157 A 
HETATM   12  C   UNL     1      29.144  43.446  54.492  1.00  0.00     0.029 A 
HETATM   13  C   UNL     1      30.232  42.989  55.264  1.00  0.00     0.023 A 
HETATM   14  C   UNL     1      28.701  44.750  54.667  1.00  0.00     0.063 A 
HETATM   15  C   UNL     1      30.841  43.859  56.184  1.00  0.00    -0.061 A 
HETATM   16  C   UNL     1      31.991  43.390  57.028  1.00  0.00     0.048 C 
HETATM   17  C   UNL     1      30.365  45.169  56.325  1.00  0.00     0.009 A 
HETATM   18  C   UNL     1      29.287  45.642  55.569  1.00  0.00     0.032 A 
HETATM   19  N   UNL     1      27.651  44.894  53.804  1.00  0.00    -0.277 N 
HETATM   20  H   UNL     1      27.086  45.724  53.661  1.00  0.00     0.189 HD
HETATM   21  N   UNL     1      27.363  43.794  53.085  1.00  0.00    -0.168 NA
ENDBRANCH   8  11
ENDBRANCH   1   7
BRANCH   4  22
HETATM   22  N   UNL     1      28.123  37.185  48.022  1.00  0.00    -0.309 N 
HETATM   23  C   UNL     1      28.199  37.044  46.671  1.00  0.00     0.320 C 
HETATM   24  N   UNL     1      28.392  38.157  45.918  1.00  0.00    -0.339 N 
HETATM   25  O   UNL     1      28.124  35.915  46.190  1.00  0.00    -0.247 OA
HETATM   26  H   UNL     1      28.986  38.846  46.355  1.00  0.00     0.164 HD
HETATM   27  H   UNL     1      28.122  36.274  48.463  1.00  0.00     0.170 HD
BRANCH  24  28
HETATM   28  C   UNL     1      28.546  38.032  44.488  1.00  0.00     0.150 C 
BRANCH  28  29
HETATM   29  C   UNL     1      28.489  39.377  43.829  1.00  0.00    -0.018 C 
HETATM   30  C   UNL     1      29.520  40.079  43.337  1.00  0.00     0.008 C 
ENDBRANCH  28  29
ENDBRANCH  24  28
ENDBRANCH   4  22
TORSDOF 5
ENDMDL
MODEL 7
REMARK VINA RESULT:      -8.1      2.630      3.357
REMARK  5 active torsions:
REMARK  status: ('A' for Active; 'I' for Inactive)
REMARK    1  A    between atoms: C_9  and  C_10 
REMARK       I    between atoms: C_10  and  N_11 
REMARK    2  A    between atoms: N_11  and  C_12 
REMARK    3  A    between atoms: C_15  and  N_16 
REMARK       I    between atoms: N_16  and  C_17 
REMARK       I    between atoms: C_17  and  N_18 
REMARK    4  A    between atoms: N_18  and  C_19 
REMARK    5  A    between atoms: C_19  and  C_20 
ROOT
HETATM    1  C   UNL     1      25.362  43.671  50.219  1.00  0.00     0.035 A 
HETATM    2  C   UNL     1      25.254  44.569  49.159  1.00  0.00     0.032 A 
HETATM    3  C   UNL     1      24.037  44.732  48.479  1.00  0.00     0.032 A 
HETATM    4  C   UNL     1      22.917  43.979  48.828  1.00  0.00     0.036 A 
HETATM    5  C   UNL     1      23.028  43.085  49.899  1.00  0.00     0.032 A 
HETATM    6  C   UNL     1      24.236  42.934  50.589  1.00  0.00     0.032 A 
ENDROOT
BRANCH   1   7
HETATM    7  N   UNL     1      26.532  43.482  50.971  1.00  0.00    -0.322 N 
HETATM    8  C   UNL     1      26.959  44.166  52.094  1.00  0.00     0.277 C 
HETATM    9  O   UNL     1      26.405  45.130  52.611  1.00  0.00    -0.266 OA
HETATM   10  H   UNL     1      27.171  42.742  50.688  1.00  0.00     0.169 HD
BRANCH   8  11
HETATM   11  C   UNL     1      28.211  43.595  52.631  1.00  0.00     0.157 A 
HETATM   12  C   UNL     1      28.887  43.957  53.833  1.00  0.00     0.029 A 
HETATM   13  C   UNL     1      28.694  44.898  54.865  1.00  0.00     0.023 A 
HETATM   14  C   UNL     1      29.986  43.111  53.897  1.00  0.00     0.063 A 
HETATM   15  C   UNL     1      29.609  44.956  55.930  1.00  0.00    -0.061 A 
HETATM   16  C   UNL     1      29.431  45.960  57.032  1.00  0.00     0.048 C 
HETATM   17  C   UNL     1      30.701  44.079  55.958  1.00  0.00     0.009 A 
HETATM   18  C   UNL     1      30.912  43.138  54.944  1.00  0.00     0.032 A 
HETATM   19  N   UNL     1      29.911  42.333  52.776  1.00  0.00    -0.277 N 
HETATM   20  H   UNL     1      30.551  41.599  52.497  1.00  0.00     0.189 HD
HETATM   21  N   UNL     1      28.862  42.604  51.978  1.00  0.00    -0.168 NA
ENDBRANCH   8  11
ENDBRANCH   1   7
BRANCH   4  22
HETATM   22  N   UNL     1      21.650  44.080  48.223  1.00  0.00    -0.309 N 
HETATM   23  C   UNL     1      20.603  44.936  48.359  1.00  0.00     0.320 C 
HETATM   24  N   UNL     1      20.802  46.095  49.038  1.00  0.00    -0.339 N 
HETATM   25  O   UNL     1      19.529  44.645  47.834  1.00  0.00    -0.247 OA
HETATM   26  H   UNL     1      21.722  46.489  48.908  1.00  0.00     0.164 HD
HETATM   27  H   UNL     1      21.404  43.336  47.582  1.00  0.00     0.170 HD
BRANCH  24  28
HETATM   28  C   UNL     1      19.731  47.056  49.141  1.00  0.00     0.150 C 
BRANCH  28  29
HETATM   29  C   UNL     1      20.110  48.347  48.481  1.00  0.00    -0.018 C 
HETATM   30  C   UNL     1      21.074  48.532  47.567  1.00  0.00     0.008 C 
ENDBRANCH  28  29
ENDBRANCH  24  28
ENDBRANCH   4  22
TORSDOF 5
ENDMDL
MODEL 8
REMARK VINA RESULT:      -8.0      3.264      5.704
REMARK  5 active torsions:
REMARK  status: ('A' for Active; 'I' for Inactive)
REMARK    1  A    between atoms: C_9  and  C_10 
REMARK       I    between atoms: C_10  and  N_11 
REMARK    2  A    between atoms: N_11  and  C_12 
REMARK    3  A    between atoms: C_15  and  N_16 
REMARK       I    between atoms: N_16  and  C_17 
REMARK       I    between atoms: C_17  and  N_18 
REMARK    4  A    between atoms: N_18  and  C_19 
REMARK    5  A    between atoms: C_19  and  C_20 
ROOT
HETATM    1  C   UNL     1      21.928  48.743  49.050  1.00  0.00     0.035 A 
HETATM    2  C   UNL     1      21.782  50.023  49.582  1.00  0.00     0.032 A 
HETATM    3  C   UNL     1      20.870  50.932  49.023  1.00  0.00     0.032 A 
HETATM    4  C   UNL     1      20.110  50.586  47.907  1.00  0.00     0.036 A 
HETATM    5  C   UNL     1      20.254  49.297  47.382  1.00  0.00     0.032 A 
HETATM    6  C   UNL     1      21.151  48.384  47.948  1.00  0.00     0.032 A 
ENDROOT
BRANCH   1   7
HETATM    7  N   UNL     1      22.790  47.768  49.576  1.00  0.00    -0.322 N 
HETATM    8  C   UNL     1      24.155  47.843  49.786  1.00  0.00     0.277 C 
HETATM    9  O   UNL     1      24.886  48.779  49.482  1.00  0.00    -0.266 OA
HETATM   10  H   UNL     1      22.391  46.878  49.864  1.00  0.00     0.169 HD
BRANCH   8  11
HETATM   11  C   UNL     1      24.669  46.622  50.439  1.00  0.00     0.157 A 
HETATM   12  C   UNL     1      25.254  46.508  51.734  1.00  0.00     0.029 A 
HETATM   13  C   UNL     1      25.570  47.389  52.788  1.00  0.00     0.023 A 
HETATM   14  C   UNL     1      25.538  45.157  51.884  1.00  0.00     0.063 A 
HETATM   15  C   UNL     1      26.160  46.884  53.959  1.00  0.00    -0.061 A 
HETATM   16  C   UNL     1      26.520  47.806  55.088  1.00  0.00     0.048 C 
HETATM   17  C   UNL     1      26.425  45.513  54.071  1.00  0.00     0.009 A 
HETATM   18  C   UNL     1      26.118  44.621  53.037  1.00  0.00     0.032 A 
HETATM   19  N   UNL     1      25.133  44.570  50.718  1.00  0.00    -0.277 N 
HETATM   20  H   UNL     1      25.186  43.587  50.477  1.00  0.00     0.189 HD
HETATM   21  N   UNL     1      24.616  45.422  49.814  1.00  0.00    -0.168 NA
ENDBRANCH   8  11
ENDBRANCH   1   7
BRANCH   4  22
HETATM   22  N   UNL     1      19.158  51.415  47.284  1.00  0.00    -0.309 N 
HETATM   23  C   UNL     1      17.820  51.601  47.441  1.00  0.00     0.320 C 
HETATM   24  N   UNL     1      17.223  51.084  48.546  1.00  0.00    -0.339 N 
HETATM   25  O   UNL     1      17.211  52.257  46.597  1.00  0.00    -0.247 OA
HETATM   26  H   UNL     1      17.804  51.109  49.371  1.00  0.00     0.164 HD
HETATM   27  H   UNL     1      19.492  51.966  46.504  1.00  0.00     0.170 HD
BRANCH  24  28
HETATM   28  C   UNL     1      15.819  51.323  48.776  1.00  0.00     0.150 C 
BRANCH  28  29
HETATM   29  C   UNL     1      15.624  52.473  49.717  1.00  0.00    -0.018 C 
HETATM   30  C   UNL     1      14.497  52.804  50.365  1.00  0.00     0.008 C 
ENDBRANCH  28  29
ENDBRANCH  24  28
ENDBRANCH   4  22
TORSDOF 5
ENDMDL
MODEL 9
REMARK VINA RESULT:      -7.9      2.513      3.313
REMARK  5 active torsions:
REMARK  status: ('A' for Active; 'I' for Inactive)
REMARK    1  A    between atoms: C_9  and  C_10 
REMARK       I    between atoms: C_10  and  N_11 
REMARK    2  A    between atoms: N_11  and  C_12 
REMARK    3  A    between atoms: C_15  and  N_16 
REMARK       I    between atoms: N_16  and  C_17 
REMARK       I    between atoms: C_17  and  N_18 
REMARK    4  A    between atoms: N_18  and  C_19 
REMARK    5  A    between atoms: C_19  and  C_20 
ROOT
HETATM    1  C   UNL     1      25.019  44.455  50.460  1.00  0.00     0.035 A 
HETATM    2  C   UNL     1      23.780  43.852  50.253  1.00  0.00     0.032 A 
HETATM    3  C   UNL     1      22.778  44.505  49.518  1.00  0.00     0.032 A 
HETATM    4  C   UNL     1      22.988  45.783  49.003  1.00  0.00     0.036 A 
HETATM    5  C   UNL     1      24.237  46.382  49.206  1.00  0.00     0.032 A 
HETATM    6  C   UNL     1      25.242  45.725  49.925  1.00  0.00     0.032 A 
ENDROOT
BRANCH   1   7
HETATM    7  N   UNL     1      26.081  43.851  51.150  1.00  0.00    -0.322 N 
HETATM    8  C   UNL     1      26.969  42.892  50.700  1.00  0.00     0.277 C 
HETATM    9  O   UNL     1      26.947  42.337  49.607  1.00  0.00    -0.266 OA
HETATM   10  H   UNL     1      26.260  44.140  52.108  1.00  0.00     0.169 HD
BRANCH   8  11
HETATM   11  C   UNL     1      27.994  42.583  51.719  1.00  0.00     0.157 A 
HETATM   12  C   UNL     1      28.361  43.370  52.850  1.00  0.00     0.029 A 
HETATM   13  C   UNL     1      27.977  44.614  53.391  1.00  0.00     0.023 A 
HETATM   14  C   UNL     1      29.339  42.631  53.502  1.00  0.00     0.063 A 
HETATM   15  C   UNL     1      28.587  45.074  54.570  1.00  0.00    -0.061 A 
HETATM   16  C   UNL     1      28.205  46.403  55.156  1.00  0.00     0.048 C 
HETATM   17  C   UNL     1      29.566  44.293  55.199  1.00  0.00     0.009 A 
HETATM   18  C   UNL     1      29.961  43.055  54.679  1.00  0.00     0.032 A 
HETATM   19  N   UNL     1      29.498  41.500  52.751  1.00  0.00    -0.277 N 
HETATM   20  H   UNL     1      30.133  40.730  52.932  1.00  0.00     0.189 HD
HETATM   21  N   UNL     1      28.715  41.440  51.658  1.00  0.00    -0.168 NA
ENDBRANCH   8  11
ENDBRANCH   1   7
BRANCH   4  22
HETATM   22  N   UNL     1      22.058  46.515  48.240  1.00  0.00    -0.309 N 
HETATM   23  C   UNL     1      21.424  47.705  48.411  1.00  0.00     0.320 C 
HETATM   24  N   UNL     1      21.872  48.540  49.383  1.00  0.00    -0.339 N 
HETATM   25  O   UNL     1      20.494  47.992  47.659  1.00  0.00    -0.247 OA
HETATM   26  H   UNL     1      22.872  48.515  49.511  1.00  0.00     0.164 HD
HETATM   27  H   UNL     1      21.718  46.061  47.402  1.00  0.00     0.170 HD
BRANCH  24  28
HETATM   28  C   UNL     1      21.264  49.839  49.544  1.00  0.00     0.150 C 
BRANCH  28  29
HETATM   29  C   UNL     1      22.241  50.926  49.212  1.00  0.00    -0.018 C 
HETATM   30  C   UNL     1      23.237  50.869  48.317  1.00  0.00     0.008 C 
ENDBRANCH  28  29
ENDBRANCH  24  28
ENDBRANCH   4  22
TORSDOF 5
ENDMDL
MODEL 10
REMARK VINA RESULT:      -7.8     17.621     20.122
REMARK  5 active torsions:
REMARK  status: ('A' for Active; 'I' for Inactive)
REMARK    1  A    between atoms: C_9  and  C_10 
REMARK       I    between atoms: C_10  and  N_11 
REMARK    2  A    between atoms: N_11  and  C_12 
REMARK    3  A    between atoms: C_15  and  N_16 
REMARK       I    between atoms: N_16  and  C_17 
REMARK       I    between atoms: C_17  and  N_18 
REMARK    4  A    between atoms: N_18  and  C_19 
REMARK    5  A    between atoms: C_19  and  C_20 
ROOT
HETATM    1  C   UNL     1      38.744  45.070  63.756  1.00  0.00     0.035 A 
HETATM    2  C   UNL     1      37.581  44.329  63.557  1.00  0.00     0.032 A 
HETATM    3  C   UNL     1      37.645  42.994  63.128  1.00  0.00     0.032 A 
HETATM    4  C   UNL     1      38.872  42.387  62.864  1.00  0.00     0.036 A 
HETATM    5  C   UNL     1      40.038  43.132  63.074  1.00  0.00     0.032 A 
HETATM    6  C   UNL     1      39.975  44.458  63.517  1.00  0.00     0.032 A 
ENDROOT
BRANCH   1   7
HETATM    7  N   UNL     1      38.761  46.394  64.220  1.00  0.00    -0.322 N 
HETATM    8  C   UNL     1      38.762  46.854  65.524  1.00  0.00     0.277 C 
HETATM    9  O   UNL     1      38.683  46.168  66.536  1.00  0.00    -0.266 OA
HETATM   10  H   UNL     1      38.787  47.144  63.533  1.00  0.00     0.169 HD
BRANCH   8  11
HETATM   11  C   UNL     1      38.868  48.327  65.577  1.00  0.00     0.157 A 
HETATM   12  C   UNL     1      38.213  49.215  66.480  1.00  0.00     0.029 A 
HETATM   13  C   UNL     1      37.294  49.090  67.541  1.00  0.00     0.023 A 
HETATM   14  C   UNL     1      38.669  50.481  66.136  1.00  0.00     0.063 A 
HETATM   15  C   UNL     1      36.864  50.240  68.224  1.00  0.00    -0.061 A 
HETATM   16  C   UNL     1      35.873  50.132  69.348  1.00  0.00     0.048 C 
HETATM   17  C   UNL     1      37.353  51.498  67.848  1.00  0.00     0.009 A 
HETATM   18  C   UNL     1      38.266  51.644  66.797  1.00  0.00     0.032 A 
HETATM   19  N   UNL     1      39.525  50.285  65.088  1.00  0.00    -0.277 N 
HETATM   20  H   UNL     1      40.046  50.993  64.584  1.00  0.00     0.189 HD
HETATM   21  N   UNL     1      39.662  49.001  64.711  1.00  0.00    -0.168 NA
ENDBRANCH   8  11
ENDBRANCH   1   7
BRANCH   4  22
HETATM   22  N   UNL     1      39.046  41.054  62.448  1.00  0.00    -0.309 N 
HETATM   23  C   UNL     1      39.465  39.918  63.068  1.00  0.00     0.320 C 
HETATM   24  N   UNL     1      39.554  39.918  64.422  1.00  0.00    -0.339 N 
HETATM   25  O   UNL     1      39.713  38.928  62.381  1.00  0.00    -0.247 OA
HETATM   26  H   UNL     1      38.840  40.468  64.876  1.00  0.00     0.164 HD
HETATM   27  H   UNL     1      38.891  40.872  61.465  1.00  0.00     0.170 HD
BRANCH  24  28
HETATM   28  C   UNL     1      39.928  38.708  65.113  1.00  0.00     0.150 C 
BRANCH  28  29
HETATM   29  C   UNL     1      41.351  38.781  65.578  1.00  0.00    -0.018 C 
HETATM   30  C   UNL     1      42.453  38.632  64.829  1.00  0.00     0.008 C 
ENDBRANCH  28  29
ENDBRANCH  24  28
ENDBRANCH   4  22
TORSDOF 5
ENDMDL
