MODEL 1
REMARK VINA RESULT:      -9.8      0.000      0.000
REMARK  6 active torsions:
REMARK  status: ('A' for Active; 'I' for Inactive)
REMARK    1  A    between atoms: C_7  and  C_8 
REMARK    2  A    between atoms: C_8  and  O_9 
REMARK    3  A    between atoms: N_12  and  C_13 
REMARK    4  A    between atoms: C_13  and  C_14 
REMARK    5  A    between atoms: C_14  and  C_15 
REMARK    6  A    between atoms: C_15  and  C_16 
ROOT
HETATM    1  C   UNL     1      26.134  45.870  50.406  1.00  0.00     0.199 A 
HETATM    2  C   UNL     1      26.938  44.526  50.418  1.00  0.00     0.269 A 
HETATM    3  O   UNL     1      27.216  43.815  49.459  1.00  0.00    -0.269 OA
HETATM    4  N   UNL     1      27.334  44.293  51.750  1.00  0.00    -0.314 N 
HETATM    5  C   UNL     1      26.837  45.287  52.607  1.00  0.00     0.047 A 
HETATM    6  C   UNL     1      26.107  46.229  51.875  1.00  0.00     0.017 A 
HETATM    7  C   UNL     1      26.984  45.402  53.978  1.00  0.00     0.030 A 
HETATM    8  C   UNL     1      26.380  46.490  54.617  1.00  0.00     0.002 A 
HETATM    9  C   UNL     1      25.651  47.441  53.885  1.00  0.00     0.001 A 
HETATM   10  C   UNL     1      25.515  47.319  52.502  1.00  0.00     0.013 A 
ENDROOT
BRANCH   1  11
HETATM   11  C   UNL     1      24.699  45.697  49.954  1.00  0.00     0.025 A 
HETATM   12  C   UNL     1      23.909  44.556  50.097  1.00  0.00     0.016 A 
HETATM   13  C   UNL     1      24.209  43.226  50.698  1.00  0.00     0.069 C 
HETATM   14  N   UNL     1      22.668  44.824  49.585  1.00  0.00    -0.359 N 
HETATM   15  H   UNL     1      21.892  44.177  49.575  1.00  0.00     0.166 HD
HETATM   16  C   UNL     1      22.609  46.102  49.091  1.00  0.00     0.043 A 
HETATM   17  C   UNL     1      23.861  46.681  49.300  1.00  0.00     0.003 A 
HETATM   18  C   UNL     1      21.541  46.777  48.486  1.00  0.00     0.030 A 
HETATM   19  C   UNL     1      24.043  48.014  48.865  1.00  0.00     0.014 A 
HETATM   20  C   UNL     1      22.987  48.706  48.256  1.00  0.00     0.001 A 
HETATM   21  C   UNL     1      21.753  48.093  48.072  1.00  0.00     0.002 A 
ENDBRANCH   1  11
BRANCH   1  22
HETATM   22  O   UNL     1      26.843  46.886  49.699  1.00  0.00    -0.371 OA
HETATM   23  H   UNL     1      27.223  46.463  48.912  1.00  0.00     0.212 HD
ENDBRANCH   1  22
BRANCH   4  24
HETATM   24  C   UNL     1      28.023  43.092  52.165  1.00  0.00     0.133 C 
BRANCH  24  25
HETATM   25  C   UNL     1      29.449  43.332  52.659  1.00  0.00     0.025 C 
BRANCH  25  26
HETATM   26  C   UNL     1      29.803  42.501  53.894  1.00  0.00     0.040 C 
BRANCH  26  27
HETATM   27  C   UNL     1      30.166  43.387  55.062  1.00  0.00    -0.058 A 
HETATM   28  C   UNL     1      31.044  42.929  56.054  1.00  0.00     0.007 A 
HETATM   29  C   UNL     1      31.352  43.733  57.153  1.00  0.00     0.001 A 
HETATM   30  C   UNL     1      30.787  45.002  57.270  1.00  0.00     0.000 A 
HETATM   31  C   UNL     1      29.915  45.468  56.288  1.00  0.00     0.001 A 
HETATM   32  C   UNL     1      29.604  44.664  55.189  1.00  0.00     0.007 A 
ENDBRANCH  26  27
ENDBRANCH  25  26
ENDBRANCH  24  25
ENDBRANCH   4  24
TORSDOF 6
ENDMDL
MODEL 2
REMARK VINA RESULT:      -9.5      1.895      3.452
REMARK  6 active torsions:
REMARK  status: ('A' for Active; 'I' for Inactive)
REMARK    1  A    between atoms: C_7  and  C_8 
REMARK    2  A    between atoms: C_8  and  O_9 
REMARK    3  A    between atoms: N_12  and  C_13 
REMARK    4  A    between atoms: C_13  and  C_14 
REMARK    5  A    between atoms: C_14  and  C_15 
REMARK    6  A    between atoms: C_15  and  C_16 
ROOT
HETATM    1  C   UNL     1      25.074  43.680  51.179  1.00  0.00     0.199 A 
HETATM    2  C   UNL     1      26.230  44.106  52.146  1.00  0.00     0.269 A 
HETATM    3  O   UNL     1      26.154  44.847  53.118  1.00  0.00    -0.269 OA
HETATM    4  N   UNL     1      27.394  43.437  51.717  1.00  0.00    -0.314 N 
HETATM    5  C   UNL     1      27.147  42.680  50.562  1.00  0.00     0.047 A 
HETATM    6  C   UNL     1      25.804  42.802  50.188  1.00  0.00     0.017 A 
HETATM    7  C   UNL     1      28.028  41.906  49.827  1.00  0.00     0.030 A 
HETATM    8  C   UNL     1      27.539  41.245  48.695  1.00  0.00     0.002 A 
HETATM    9  C   UNL     1      26.191  41.361  48.320  1.00  0.00     0.001 A 
HETATM   10  C   UNL     1      25.310  42.138  49.072  1.00  0.00     0.013 A 
ENDROOT
BRANCH   1  11
HETATM   11  C   UNL     1      24.489  44.845  50.408  1.00  0.00     0.025 A 
HETATM   12  C   UNL     1      23.219  44.914  49.834  1.00  0.00     0.016 A 
HETATM   13  C   UNL     1      22.107  43.925  49.794  1.00  0.00     0.069 C 
HETATM   14  N   UNL     1      23.074  46.148  49.257  1.00  0.00    -0.359 N 
HETATM   15  H   UNL     1      22.242  46.473  48.784  1.00  0.00     0.166 HD
HETATM   16  C   UNL     1      24.211  46.898  49.415  1.00  0.00     0.043 A 
HETATM   17  C   UNL     1      25.122  46.117  50.127  1.00  0.00     0.003 A 
HETATM   18  C   UNL     1      24.487  48.201  48.983  1.00  0.00     0.030 A 
HETATM   19  C   UNL     1      26.385  46.687  50.411  1.00  0.00     0.014 A 
HETATM   20  C   UNL     1      26.681  47.989  49.987  1.00  0.00     0.001 A 
HETATM   21  C   UNL     1      25.742  48.735  49.285  1.00  0.00     0.002 A 
ENDBRANCH   1  11
BRANCH   1  22
HETATM   22  O   UNL     1      24.100  42.891  51.860  1.00  0.00    -0.371 OA
HETATM   23  H   UNL     1      24.047  43.237  52.766  1.00  0.00     0.212 HD
ENDBRANCH   1  22
BRANCH   4  24
HETATM   24  C   UNL     1      28.691  43.655  52.319  1.00  0.00     0.133 C 
BRANCH  24  25
HETATM   25  C   UNL     1      28.889  42.929  53.649  1.00  0.00     0.025 C 
BRANCH  25  26
HETATM   26  C   UNL     1      30.336  42.969  54.143  1.00  0.00     0.040 C 
BRANCH  26  27
HETATM   27  C   UNL     1      30.454  43.765  55.421  1.00  0.00    -0.058 A 
HETATM   28  C   UNL     1      31.265  43.310  56.469  1.00  0.00     0.007 A 
HETATM   29  C   UNL     1      31.346  44.025  57.664  1.00  0.00     0.001 A 
HETATM   30  C   UNL     1      30.620  45.205  57.823  1.00  0.00     0.000 A 
HETATM   31  C   UNL     1      29.812  45.668  56.786  1.00  0.00     0.001 A 
HETATM   32  C   UNL     1      29.728  44.952  55.591  1.00  0.00     0.007 A 
ENDBRANCH  26  27
ENDBRANCH  25  26
ENDBRANCH  24  25
ENDBRANCH   4  24
TORSDOF 6
ENDMDL
MODEL 3
REMARK VINA RESULT:      -9.4      1.932      3.393
REMARK  6 active torsions:
REMARK  status: ('A' for Active; 'I' for Inactive)
REMARK    1  A    between atoms: C_7  and  C_8 
REMARK    2  A    between atoms: C_8  and  O_9 
REMARK    3  A    between atoms: N_12  and  C_13 
REMARK    4  A    between atoms: C_13  and  C_14 
REMARK    5  A    between atoms: C_14  and  C_15 
REMARK    6  A    between atoms: C_15  and  C_16 
ROOT
HETATM    1  C   UNL     1      24.549  43.599  51.145  1.00  0.00     0.199 A 
HETATM    2  C   UNL     1      25.194  43.721  52.567  1.00  0.00     0.269 A 
HETATM    3  O   UNL     1      24.722  44.271  53.555  1.00  0.00    -0.269 OA
HETATM    4  N   UNL     1      26.423  43.035  52.522  1.00  0.00    -0.314 N 
HETATM    5  C   UNL     1      26.679  42.535  51.236  1.00  0.00     0.047 A 
HETATM    6  C   UNL     1      25.620  42.855  50.380  1.00  0.00     0.017 A 
HETATM    7  C   UNL     1      27.780  41.830  50.782  1.00  0.00     0.030 A 
HETATM    8  C   UNL     1      27.807  41.444  49.438  1.00  0.00     0.002 A 
HETATM    9  C   UNL     1      26.744  41.759  48.577  1.00  0.00     0.001 A 
HETATM   10  C   UNL     1      25.636  42.464  49.047  1.00  0.00     0.013 A 
ENDROOT
BRANCH   1  11
HETATM   11  C   UNL     1      24.354  44.939  50.466  1.00  0.00     0.025 A 
HETATM   12  C   UNL     1      25.153  46.073  50.611  1.00  0.00     0.016 A 
HETATM   13  C   UNL     1      26.373  46.314  51.431  1.00  0.00     0.069 C 
HETATM   14  N   UNL     1      24.651  47.059  49.803  1.00  0.00    -0.359 N 
HETATM   15  H   UNL     1      25.048  47.983  49.701  1.00  0.00     0.166 HD
HETATM   16  C   UNL     1      23.535  46.624  49.137  1.00  0.00     0.043 A 
HETATM   17  C   UNL     1      23.313  45.302  49.526  1.00  0.00     0.003 A 
HETATM   18  C   UNL     1      22.720  47.303  48.222  1.00  0.00     0.030 A 
HETATM   19  C   UNL     1      22.200  44.636  48.964  1.00  0.00     0.014 A 
HETATM   20  C   UNL     1      21.373  45.298  48.047  1.00  0.00     0.001 A 
HETATM   21  C   UNL     1      21.633  46.614  47.682  1.00  0.00     0.002 A 
ENDBRANCH   1  11
BRANCH   1  22
HETATM   22  O   UNL     1      23.371  42.795  51.183  1.00  0.00    -0.371 OA
HETATM   23  H   UNL     1      22.763  43.224  51.807  1.00  0.00     0.212 HD
ENDBRANCH   1  22
BRANCH   4  24
HETATM   24  C   UNL     1      27.348  43.009  53.634  1.00  0.00     0.133 C 
BRANCH  24  25
HETATM   25  C   UNL     1      28.502  44.003  53.507  1.00  0.00     0.025 C 
BRANCH  25  26
HETATM   26  C   UNL     1      29.842  43.427  53.968  1.00  0.00     0.040 C 
BRANCH  26  27
HETATM   27  C   UNL     1      30.225  43.960  55.328  1.00  0.00    -0.058 A 
HETATM   28  C   UNL     1      31.100  43.240  56.152  1.00  0.00     0.007 A 
HETATM   29  C   UNL     1      31.427  43.713  57.424  1.00  0.00     0.001 A 
HETATM   30  C   UNL     1      30.884  44.913  57.883  1.00  0.00     0.000 A 
HETATM   31  C   UNL     1      30.015  45.638  57.070  1.00  0.00     0.001 A 
HETATM   32  C   UNL     1      29.686  45.164  55.799  1.00  0.00     0.007 A 
ENDBRANCH  26  27
ENDBRANCH  25  26
ENDBRANCH  24  25
ENDBRANCH   4  24
TORSDOF 6
ENDMDL
MODEL 4
REMARK VINA RESULT:      -9.1      2.306      7.440
REMARK  6 active torsions:
REMARK  status: ('A' for Active; 'I' for Inactive)
REMARK    1  A    between atoms: C_7  and  C_8 
REMARK    2  A    between atoms: C_8  and  O_9 
REMARK    3  A    between atoms: N_12  and  C_13 
REMARK    4  A    between atoms: C_13  and  C_14 
REMARK    5  A    between atoms: C_14  and  C_15 
REMARK    6  A    between atoms: C_15  and  C_16 
ROOT
HETATM    1  C   UNL     1      26.353  44.818  53.560  1.00  0.00     0.199 A 
HETATM    2  C   UNL     1      26.701  43.358  53.112  1.00  0.00     0.269 A 
HETATM    3  O   UNL     1      26.813  42.367  53.822  1.00  0.00    -0.269 OA
HETATM    4  N   UNL     1      26.822  43.375  51.708  1.00  0.00    -0.314 N 
HETATM    5  C   UNL     1      26.654  44.673  51.201  1.00  0.00     0.047 A 
HETATM    6  C   UNL     1      26.396  45.565  52.247  1.00  0.00     0.017 A 
HETATM    7  C   UNL     1      26.722  45.107  49.889  1.00  0.00     0.030 A 
HETATM    8  C   UNL     1      26.525  46.468  49.633  1.00  0.00     0.002 A 
HETATM    9  C   UNL     1      26.260  47.366  50.679  1.00  0.00     0.001 A 
HETATM   10  C   UNL     1      26.187  46.917  51.998  1.00  0.00     0.013 A 
ENDROOT
BRANCH   1  11
HETATM   11  C   UNL     1      27.405  45.426  54.463  1.00  0.00     0.025 A 
HETATM   12  C   UNL     1      27.346  46.667  55.098  1.00  0.00     0.016 A 
HETATM   13  C   UNL     1      26.299  47.725  55.085  1.00  0.00     0.069 C 
HETATM   14  N   UNL     1      28.484  46.823  55.845  1.00  0.00    -0.359 N 
HETATM   15  H   UNL     1      28.694  47.626  56.421  1.00  0.00     0.166 HD
HETATM   16  C   UNL     1      29.305  45.732  55.717  1.00  0.00     0.043 A 
HETATM   17  C   UNL     1      28.668  44.836  54.859  1.00  0.00     0.003 A 
HETATM   18  C   UNL     1      30.553  45.482  56.303  1.00  0.00     0.030 A 
HETATM   19  C   UNL     1      29.335  43.623  54.572  1.00  0.00     0.014 A 
HETATM   20  C   UNL     1      30.585  43.354  55.147  1.00  0.00     0.001 A 
HETATM   21  C   UNL     1      31.182  44.272  56.002  1.00  0.00     0.002 A 
ENDBRANCH   1  11
BRANCH   1  22
HETATM   22  O   UNL     1      25.028  44.891  54.086  1.00  0.00    -0.371 OA
HETATM   23  H   UNL     1      24.948  45.759  54.515  1.00  0.00     0.212 HD
ENDBRANCH   1  22
BRANCH   4  24
HETATM   24  C   UNL     1      27.228  42.219  50.941  1.00  0.00     0.133 C 
BRANCH  24  25
HETATM   25  C   UNL     1      26.132  41.167  50.775  1.00  0.00     0.025 C 
BRANCH  25  26
HETATM   26  C   UNL     1      25.513  41.165  49.376  1.00  0.00     0.040 C 
BRANCH  26  27
HETATM   27  C   UNL     1      24.511  42.285  49.222  1.00  0.00    -0.058 A 
HETATM   28  C   UNL     1      24.394  42.971  48.005  1.00  0.00     0.007 A 
HETATM   29  C   UNL     1      23.494  44.029  47.872  1.00  0.00     0.001 A 
HETATM   30  C   UNL     1      22.701  44.412  48.953  1.00  0.00     0.000 A 
HETATM   31  C   UNL     1      22.808  43.735  50.167  1.00  0.00     0.001 A 
HETATM   32  C   UNL     1      23.709  42.677  50.302  1.00  0.00     0.007 A 
ENDBRANCH  26  27
ENDBRANCH  25  26
ENDBRANCH  24  25
ENDBRANCH   4  24
TORSDOF 6
ENDMDL
MODEL 5
REMARK VINA RESULT:      -9.0     17.148     19.236
REMARK  6 active torsions:
REMARK  status: ('A' for Active; 'I' for Inactive)
REMARK    1  A    between atoms: C_7  and  C_8 
REMARK    2  A    between atoms: C_8  and  O_9 
REMARK    3  A    between atoms: N_12  and  C_13 
REMARK    4  A    between atoms: C_13  and  C_14 
REMARK    5  A    between atoms: C_14  and  C_15 
REMARK    6  A    between atoms: C_15  and  C_16 
ROOT
HETATM    1  C   UNL     1      39.243  44.495  63.920  1.00  0.00     0.199 A 
HETATM    2  C   UNL     1      40.064  45.784  64.266  1.00  0.00     0.269 A 
HETATM    3  O   UNL     1      41.190  46.076  63.882  1.00  0.00    -0.269 OA
HETATM    4  N   UNL     1      39.244  46.589  65.081  1.00  0.00    -0.314 N 
HETATM    5  C   UNL     1      38.021  45.956  65.352  1.00  0.00     0.047 A 
HETATM    6  C   UNL     1      37.974  44.713  64.712  1.00  0.00     0.017 A 
HETATM    7  C   UNL     1      36.965  46.404  66.126  1.00  0.00     0.030 A 
HETATM    8  C   UNL     1      35.843  45.578  66.253  1.00  0.00     0.002 A 
HETATM    9  C   UNL     1      35.790  44.332  65.608  1.00  0.00     0.001 A 
HETATM   10  C   UNL     1      36.857  43.893  64.824  1.00  0.00     0.013 A 
ENDROOT
BRANCH   1  11
HETATM   11  C   UNL     1      39.889  43.227  64.437  1.00  0.00     0.025 A 
HETATM   12  C   UNL     1      40.668  43.093  65.587  1.00  0.00     0.016 A 
HETATM   13  C   UNL     1      41.090  44.094  66.605  1.00  0.00     0.069 C 
HETATM   14  N   UNL     1      41.032  41.778  65.711  1.00  0.00    -0.359 N 
HETATM   15  H   UNL     1      41.585  41.399  66.465  1.00  0.00     0.166 HD
HETATM   16  C   UNL     1      40.533  41.034  64.673  1.00  0.00     0.043 A 
HETATM   17  C   UNL     1      39.814  41.904  63.851  1.00  0.00     0.003 A 
HETATM   18  C   UNL     1      40.665  39.664  64.413  1.00  0.00     0.030 A 
HETATM   19  C   UNL     1      39.203  41.356  62.701  1.00  0.00     0.014 A 
HETATM   20  C   UNL     1      39.324  39.987  62.423  1.00  0.00     0.001 A 
HETATM   21  C   UNL     1      40.045  39.155  63.271  1.00  0.00     0.002 A 
ENDBRANCH   1  11
BRANCH   1  22
HETATM   22  O   UNL     1      38.916  44.452  62.532  1.00  0.00    -0.371 OA
HETATM   23  H   UNL     1      38.152  45.039  62.409  1.00  0.00     0.212 HD
ENDBRANCH   1  22
BRANCH   4  24
HETATM   24  C   UNL     1      39.700  47.827  65.674  1.00  0.00     0.133 C 
BRANCH  24  25
HETATM   25  C   UNL     1      39.354  49.072  64.858  1.00  0.00     0.025 C 
BRANCH  25  26
HETATM   26  C   UNL     1      37.890  49.492  65.000  1.00  0.00     0.040 C 
BRANCH  26  27
HETATM   27  C   UNL     1      37.691  50.369  66.214  1.00  0.00    -0.058 A 
HETATM   28  C   UNL     1      37.275  49.813  67.432  1.00  0.00     0.007 A 
HETATM   29  C   UNL     1      37.056  50.627  68.544  1.00  0.00     0.001 A 
HETATM   30  C   UNL     1      37.251  52.004  68.451  1.00  0.00     0.000 A 
HETATM   31  C   UNL     1      37.666  52.567  67.246  1.00  0.00     0.001 A 
HETATM   32  C   UNL     1      37.884  51.755  66.132  1.00  0.00     0.007 A 
ENDBRANCH  26  27
ENDBRANCH  25  26
ENDBRANCH  24  25
ENDBRANCH   4  24
TORSDOF 6
ENDMDL
MODEL 6
REMARK VINA RESULT:      -9.0      8.111     11.431
REMARK  6 active torsions:
REMARK  status: ('A' for Active; 'I' for Inactive)
REMARK    1  A    between atoms: C_7  and  C_8 
REMARK    2  A    between atoms: C_8  and  O_9 
REMARK    3  A    between atoms: N_12  and  C_13 
REMARK    4  A    between atoms: C_13  and  C_14 
REMARK    5  A    between atoms: C_14  and  C_15 
REMARK    6  A    between atoms: C_15  and  C_16 
ROOT
HETATM    1  C   UNL     1      20.008  47.887  48.547  1.00  0.00     0.199 A 
HETATM    2  C   UNL     1      18.931  48.693  49.350  1.00  0.00     0.269 A 
HETATM    3  O   UNL     1      17.817  48.315  49.689  1.00  0.00    -0.269 OA
HETATM    4  N   UNL     1      19.499  49.944  49.660  1.00  0.00    -0.314 N 
HETATM    5  C   UNL     1      20.784  50.069  49.109  1.00  0.00     0.047 A 
HETATM    6  C   UNL     1      21.127  48.897  48.426  1.00  0.00     0.017 A 
HETATM    7  C   UNL     1      21.653  51.145  49.168  1.00  0.00     0.030 A 
HETATM    8  C   UNL     1      22.888  51.030  48.524  1.00  0.00     0.002 A 
HETATM    9  C   UNL     1      23.239  49.854  47.842  1.00  0.00     0.001 A 
HETATM   10  C   UNL     1      22.358  48.773  47.794  1.00  0.00     0.013 A 
ENDROOT
BRANCH   1  11
HETATM   11  C   UNL     1      19.559  47.536  47.144  1.00  0.00     0.025 A 
HETATM   12  C   UNL     1      19.524  46.264  46.571  1.00  0.00     0.016 A 
HETATM   13  C   UNL     1      19.898  44.932  47.121  1.00  0.00     0.069 C 
HETATM   14  N   UNL     1      19.027  46.378  45.300  1.00  0.00    -0.359 N 
HETATM   15  H   UNL     1      18.878  45.607  44.664  1.00  0.00     0.166 HD
HETATM   16  C   UNL     1      18.744  47.686  45.002  1.00  0.00     0.043 A 
HETATM   17  C   UNL     1      19.066  48.444  46.128  1.00  0.00     0.003 A 
HETATM   18  C   UNL     1      18.226  48.241  43.824  1.00  0.00     0.030 A 
HETATM   19  C   UNL     1      18.859  49.840  46.054  1.00  0.00     0.014 A 
HETATM   20  C   UNL     1      18.343  50.415  44.886  1.00  0.00     0.001 A 
HETATM   21  C   UNL     1      18.030  49.623  43.787  1.00  0.00     0.002 A 
ENDBRANCH   1  11
BRANCH   1  22
HETATM   22  O   UNL     1      20.479  46.770  49.299  1.00  0.00    -0.371 OA
HETATM   23  H   UNL     1      20.117  45.976  48.872  1.00  0.00     0.212 HD
ENDBRANCH   1  22
BRANCH   4  24
HETATM   24  C   UNL     1      18.762  50.998  50.323  1.00  0.00     0.133 C 
BRANCH  24  25
HETATM   25  C   UNL     1      18.005  51.921  49.370  1.00  0.00     0.025 C 
BRANCH  25  26
HETATM   26  C   UNL     1      16.487  51.749  49.450  1.00  0.00     0.040 C 
BRANCH  26  27
HETATM   27  C   UNL     1      15.924  51.257  48.138  1.00  0.00    -0.058 A 
HETATM   28  C   UNL     1      15.623  52.161  47.111  1.00  0.00     0.007 A 
HETATM   29  C   UNL     1      15.069  51.712  45.911  1.00  0.00     0.001 A 
HETATM   30  C   UNL     1      14.811  50.355  45.726  1.00  0.00     0.000 A 
HETATM   31  C   UNL     1      15.108  49.447  46.740  1.00  0.00     0.001 A 
HETATM   32  C   UNL     1      15.661  49.895  47.942  1.00  0.00     0.007 A 
ENDBRANCH  26  27
ENDBRANCH  25  26
ENDBRANCH  24  25
ENDBRANCH   4  24
TORSDOF 6
ENDMDL
MODEL 7
REMARK VINA RESULT:      -8.9      3.243      7.297
REMARK  6 active torsions:
REMARK  status: ('A' for Active; 'I' for Inactive)
REMARK    1  A    between atoms: C_7  and  C_8 
REMARK    2  A    between atoms: C_8  and  O_9 
REMARK    3  A    between atoms: N_12  and  C_13 
REMARK    4  A    between atoms: C_13  and  C_14 
REMARK    5  A    between atoms: C_14  and  C_15 
REMARK    6  A    between atoms: C_15  and  C_16 
ROOT
HETATM    1  C   UNL     1      26.345  44.806  53.393  1.00  0.00     0.199 A 
HETATM    2  C   UNL     1      26.776  43.393  52.872  1.00  0.00     0.269 A 
HETATM    3  O   UNL     1      26.918  42.368  53.528  1.00  0.00    -0.269 OA
HETATM    4  N   UNL     1      26.932  43.499  51.476  1.00  0.00    -0.314 N 
HETATM    5  C   UNL     1      26.714  44.815  51.039  1.00  0.00     0.047 A 
HETATM    6  C   UNL     1      26.385  45.631  52.127  1.00  0.00     0.017 A 
HETATM    7  C   UNL     1      26.794  45.328  49.757  1.00  0.00     0.030 A 
HETATM    8  C   UNL     1      26.537  46.690  49.574  1.00  0.00     0.002 A 
HETATM    9  C   UNL     1      26.202  47.512  50.662  1.00  0.00     0.001 A 
HETATM   10  C   UNL     1      26.117  46.983  51.950  1.00  0.00     0.013 A 
ENDROOT
BRANCH   1  11
HETATM   11  C   UNL     1      27.343  45.409  54.360  1.00  0.00     0.025 A 
HETATM   12  C   UNL     1      27.224  46.625  55.035  1.00  0.00     0.016 A 
HETATM   13  C   UNL     1      26.148  47.654  55.015  1.00  0.00     0.069 C 
HETATM   14  N   UNL     1      28.326  46.784  55.833  1.00  0.00    -0.359 N 
HETATM   15  H   UNL     1      28.490  47.571  56.444  1.00  0.00     0.166 HD
HETATM   16  C   UNL     1      29.182  45.721  55.701  1.00  0.00     0.043 A 
HETATM   17  C   UNL     1      28.605  44.840  54.786  1.00  0.00     0.003 A 
HETATM   18  C   UNL     1      30.412  45.483  56.328  1.00  0.00     0.030 A 
HETATM   19  C   UNL     1      29.318  43.656  54.484  1.00  0.00     0.014 A 
HETATM   20  C   UNL     1      30.550  43.400  55.100  1.00  0.00     0.001 A 
HETATM   21  C   UNL     1      31.086  44.302  56.011  1.00  0.00     0.002 A 
ENDBRANCH   1  11
BRANCH   1  22
HETATM   22  O   UNL     1      25.006  44.785  53.885  1.00  0.00    -0.371 OA
HETATM   23  H   UNL     1      24.893  43.938  54.345  1.00  0.00     0.212 HD
ENDBRANCH   1  22
BRANCH   4  24
HETATM   24  C   UNL     1      27.414  42.409  50.656  1.00  0.00     0.133 C 
BRANCH  24  25
HETATM   25  C   UNL     1      26.305  41.574  50.017  1.00  0.00     0.025 C 
BRANCH  25  26
HETATM   26  C   UNL     1      26.343  40.105  50.441  1.00  0.00     0.040 C 
BRANCH  26  27
HETATM   27  C   UNL     1      27.251  39.302  49.541  1.00  0.00    -0.058 A 
HETATM   28  C   UNL     1      28.536  38.939  49.969  1.00  0.00     0.007 A 
HETATM   29  C   UNL     1      29.389  38.228  49.124  1.00  0.00     0.001 A 
HETATM   30  C   UNL     1      28.967  37.871  47.844  1.00  0.00     0.000 A 
HETATM   31  C   UNL     1      27.692  38.224  47.409  1.00  0.00     0.001 A 
HETATM   32  C   UNL     1      26.837  38.938  48.253  1.00  0.00     0.007 A 
ENDBRANCH  26  27
ENDBRANCH  25  26
ENDBRANCH  24  25
ENDBRANCH   4  24
TORSDOF 6
ENDMDL
MODEL 8
REMARK VINA RESULT:      -8.8      2.289      4.489
REMARK  6 active torsions:
REMARK  status: ('A' for Active; 'I' for Inactive)
REMARK    1  A    between atoms: C_7  and  C_8 
REMARK    2  A    between atoms: C_8  and  O_9 
REMARK    3  A    between atoms: N_12  and  C_13 
REMARK    4  A    between atoms: C_13  and  C_14 
REMARK    5  A    between atoms: C_14  and  C_15 
REMARK    6  A    between atoms: C_15  and  C_16 
ROOT
HETATM    1  C   UNL     1      22.976  44.503  49.678  1.00  0.00     0.199 A 
HETATM    2  C   UNL     1      23.959  44.086  50.825  1.00  0.00     0.269 A 
HETATM    3  O   UNL     1      24.011  44.536  51.962  1.00  0.00    -0.269 OA
HETATM    4  N   UNL     1      24.765  43.047  50.319  1.00  0.00    -0.314 N 
HETATM    5  C   UNL     1      24.465  42.781  48.974  1.00  0.00     0.047 A 
HETATM    6  C   UNL     1      23.435  43.621  48.539  1.00  0.00     0.017 A 
HETATM    7  C   UNL     1      25.045  41.858  48.121  1.00  0.00     0.030 A 
HETATM    8  C   UNL     1      24.574  41.787  46.807  1.00  0.00     0.002 A 
HETATM    9  C   UNL     1      23.537  42.625  46.367  1.00  0.00     0.001 A 
HETATM   10  C   UNL     1      22.954  43.547  47.237  1.00  0.00     0.013 A 
ENDROOT
BRANCH   1  11
HETATM   11  C   UNL     1      23.155  45.941  49.240  1.00  0.00     0.025 A 
HETATM   12  C   UNL     1      22.187  46.767  48.666  1.00  0.00     0.016 A 
HETATM   13  C   UNL     1      20.763  46.510  48.318  1.00  0.00     0.069 C 
HETATM   14  N   UNL     1      22.747  47.998  48.448  1.00  0.00    -0.359 N 
HETATM   15  H   UNL     1      22.263  48.793  48.056  1.00  0.00     0.166 HD
HETATM   16  C   UNL     1      24.059  48.015  48.844  1.00  0.00     0.043 A 
HETATM   17  C   UNL     1      24.355  46.747  49.343  1.00  0.00     0.003 A 
HETATM   18  C   UNL     1      24.991  49.060  48.799  1.00  0.00     0.030 A 
HETATM   19  C   UNL     1      25.669  46.522  49.815  1.00  0.00     0.014 A 
HETATM   20  C   UNL     1      26.616  47.555  49.777  1.00  0.00     0.001 A 
HETATM   21  C   UNL     1      26.277  48.806  49.278  1.00  0.00     0.002 A 
ENDBRANCH   1  11
BRANCH   1  22
HETATM   22  O   UNL     1      21.630  44.163  50.008  1.00  0.00    -0.371 OA
HETATM   23  H   UNL     1      21.347  43.495  49.362  1.00  0.00     0.212 HD
ENDBRANCH   1  22
BRANCH   4  24
HETATM   24  C   UNL     1      25.857  42.465  51.068  1.00  0.00     0.133 C 
BRANCH  24  25
HETATM   25  C   UNL     1      27.187  43.198  50.898  1.00  0.00     0.025 C 
BRANCH  25  26
HETATM   26  C   UNL     1      27.388  44.318  51.920  1.00  0.00     0.040 C 
BRANCH  26  27
HETATM   27  C   UNL     1      28.477  43.968  52.906  1.00  0.00    -0.058 A 
HETATM   28  C   UNL     1      29.466  43.034  52.569  1.00  0.00     0.007 A 
HETATM   29  C   UNL     1      30.452  42.682  53.492  1.00  0.00     0.001 A 
HETATM   30  C   UNL     1      30.460  43.262  54.760  1.00  0.00     0.000 A 
HETATM   31  C   UNL     1      29.483  44.193  55.104  1.00  0.00     0.001 A 
HETATM   32  C   UNL     1      28.495  44.544  54.183  1.00  0.00     0.007 A 
ENDBRANCH  26  27
ENDBRANCH  25  26
ENDBRANCH  24  25
ENDBRANCH   4  24
TORSDOF 6
ENDMDL
MODEL 9
REMARK VINA RESULT:      -8.6     12.630     14.200
REMARK  6 active torsions:
REMARK  status: ('A' for Active; 'I' for Inactive)
REMARK    1  A    between atoms: C_7  and  C_8 
REMARK    2  A    between atoms: C_8  and  O_9 
REMARK    3  A    between atoms: N_12  and  C_13 
REMARK    4  A    between atoms: C_13  and  C_14 
REMARK    5  A    between atoms: C_14  and  C_15 
REMARK    6  A    between atoms: C_15  and  C_16 
ROOT
HETATM    1  C   UNL     1      31.088  52.107  40.725  1.00  0.00     0.199 A 
HETATM    2  C   UNL     1      32.206  51.836  39.661  1.00  0.00     0.269 A 
HETATM    3  O   UNL     1      32.086  51.815  38.443  1.00  0.00    -0.269 OA
HETATM    4  N   UNL     1      33.412  51.660  40.368  1.00  0.00    -0.314 N 
HETATM    5  C   UNL     1      33.203  51.725  41.754  1.00  0.00     0.047 A 
HETATM    6  C   UNL     1      31.851  51.966  42.022  1.00  0.00     0.017 A 
HETATM    7  C   UNL     1      34.122  51.579  42.778  1.00  0.00     0.030 A 
HETATM    8  C   UNL     1      33.663  51.679  44.095  1.00  0.00     0.002 A 
HETATM    9  C   UNL     1      32.308  51.925  44.369  1.00  0.00     0.001 A 
HETATM   10  C   UNL     1      31.391  52.078  43.329  1.00  0.00     0.013 A 
ENDROOT
BRANCH   1  11
HETATM   11  C   UNL     1      30.000  51.054  40.721  1.00  0.00     0.025 A 
HETATM   12  C   UNL     1      28.640  51.255  40.959  1.00  0.00     0.016 A 
HETATM   13  C   UNL     1      27.875  52.491  41.279  1.00  0.00     0.069 C 
HETATM   14  N   UNL     1      27.998  50.051  40.831  1.00  0.00    -0.359 N 
HETATM   15  H   UNL     1      27.003  49.911  40.935  1.00  0.00     0.166 HD
HETATM   16  C   UNL     1      28.888  49.053  40.530  1.00  0.00     0.043 A 
HETATM   17  C   UNL     1      30.152  49.637  40.455  1.00  0.00     0.003 A 
HETATM   18  C   UNL     1      28.658  47.687  40.317  1.00  0.00     0.030 A 
HETATM   19  C   UNL     1      31.244  48.791  40.155  1.00  0.00     0.014 A 
HETATM   20  C   UNL     1      31.035  47.422  39.939  1.00  0.00     0.001 A 
HETATM   21  C   UNL     1      29.758  46.881  40.018  1.00  0.00     0.002 A 
ENDBRANCH   1  11
BRANCH   1  22
HETATM   22  O   UNL     1      30.598  53.443  40.625  1.00  0.00    -0.371 OA
HETATM   23  H   UNL     1      29.734  53.389  40.185  1.00  0.00     0.212 HD
ENDBRANCH   1  22
BRANCH   4  24
HETATM   24  C   UNL     1      34.655  51.300  39.721  1.00  0.00     0.133 C 
BRANCH  24  25
HETATM   25  C   UNL     1      35.585  52.484  39.459  1.00  0.00     0.025 C 
BRANCH  25  26
HETATM   26  C   UNL     1      37.051  52.173  39.767  1.00  0.00     0.040 C 
BRANCH  26  27
HETATM   27  C   UNL     1      37.307  52.179  41.255  1.00  0.00    -0.058 A 
HETATM   28  C   UNL     1      37.668  50.998  41.919  1.00  0.00     0.007 A 
HETATM   29  C   UNL     1      37.870  50.994  43.300  1.00  0.00     0.001 A 
HETATM   30  C   UNL     1      37.715  52.171  44.031  1.00  0.00     0.000 A 
HETATM   31  C   UNL     1      37.359  53.351  43.381  1.00  0.00     0.001 A 
HETATM   32  C   UNL     1      37.154  53.356  42.000  1.00  0.00     0.007 A 
ENDBRANCH  26  27
ENDBRANCH  25  26
ENDBRANCH  24  25
ENDBRANCH   4  24
TORSDOF 6
ENDMDL
MODEL 10
REMARK VINA RESULT:      -8.6      2.050      8.191
REMARK  6 active torsions:
REMARK  status: ('A' for Active; 'I' for Inactive)
REMARK    1  A    between atoms: C_7  and  C_8 
REMARK    2  A    between atoms: C_8  and  O_9 
REMARK    3  A    between atoms: N_12  and  C_13 
REMARK    4  A    between atoms: C_13  and  C_14 
REMARK    5  A    between atoms: C_14  and  C_15 
REMARK    6  A    between atoms: C_15  and  C_16 
ROOT
HETATM    1  C   UNL     1      25.071  44.303  51.719  1.00  0.00     0.199 A 
HETATM    2  C   UNL     1      23.948  43.696  50.810  1.00  0.00     0.269 A 
HETATM    3  O   UNL     1      23.420  42.595  50.913  1.00  0.00    -0.269 OA
HETATM    4  N   UNL     1      23.613  44.678  49.857  1.00  0.00    -0.314 N 
HETATM    5  C   UNL     1      24.417  45.819  50.000  1.00  0.00     0.047 A 
HETATM    6  C   UNL     1      25.307  45.646  51.066  1.00  0.00     0.017 A 
HETATM    7  C   UNL     1      24.415  46.982  49.250  1.00  0.00     0.030 A 
HETATM    8  C   UNL     1      25.329  47.985  49.586  1.00  0.00     0.002 A 
HETATM    9  C   UNL     1      26.220  47.818  50.658  1.00  0.00     0.001 A 
HETATM   10  C   UNL     1      26.210  46.645  51.412  1.00  0.00     0.013 A 
ENDROOT
BRANCH   1  11
HETATM   11  C   UNL     1      26.371  43.530  51.649  1.00  0.00     0.025 A 
HETATM   12  C   UNL     1      26.813  42.731  50.594  1.00  0.00     0.016 A 
HETATM   13  C   UNL     1      26.185  42.401  49.285  1.00  0.00     0.069 C 
HETATM   14  N   UNL     1      28.049  42.237  50.917  1.00  0.00    -0.359 N 
HETATM   15  H   UNL     1      28.609  41.641  50.323  1.00  0.00     0.166 HD
HETATM   16  C   UNL     1      28.439  42.668  52.159  1.00  0.00     0.043 A 
HETATM   17  C   UNL     1      27.415  43.477  52.652  1.00  0.00     0.003 A 
HETATM   18  C   UNL     1      29.618  42.402  52.866  1.00  0.00     0.030 A 
HETATM   19  C   UNL     1      27.593  44.041  53.936  1.00  0.00     0.014 A 
HETATM   20  C   UNL     1      28.765  43.786  54.661  1.00  0.00     0.001 A 
HETATM   21  C   UNL     1      29.763  42.979  54.129  1.00  0.00     0.002 A 
ENDBRANCH   1  11
BRANCH   1  22
HETATM   22  O   UNL     1      24.597  44.516  53.047  1.00  0.00    -0.371 OA
HETATM   23  H   UNL     1      24.289  45.436  53.088  1.00  0.00     0.212 HD
ENDBRANCH   1  22
BRANCH   4  24
HETATM   24  C   UNL     1      22.670  44.443  48.787  1.00  0.00     0.133 C 
BRANCH  24  25
HETATM   25  C   UNL     1      21.307  45.101  49.002  1.00  0.00     0.025 C 
BRANCH  25  26
HETATM   26  C   UNL     1      21.017  46.217  47.998  1.00  0.00     0.040 C 
BRANCH  26  27
HETATM   27  C   UNL     1      20.491  47.451  48.692  1.00  0.00    -0.058 A 
HETATM   28  C   UNL     1      21.272  48.613  48.763  1.00  0.00     0.007 A 
HETATM   29  C   UNL     1      20.802  49.742  49.436  1.00  0.00     0.001 A 
HETATM   30  C   UNL     1      19.546  49.722  50.042  1.00  0.00     0.000 A 
HETATM   31  C   UNL     1      18.761  48.573  49.975  1.00  0.00     0.001 A 
HETATM   32  C   UNL     1      19.231  47.442  49.305  1.00  0.00     0.007 A 
ENDBRANCH  26  27
ENDBRANCH  25  26
ENDBRANCH  24  25
ENDBRANCH   4  24
TORSDOF 6
ENDMDL
