MODEL 1
REMARK VINA RESULT:      -9.3      0.000      0.000
REMARK  8 active torsions:
REMARK  status: ('A' for Active; 'I' for Inactive)
REMARK    1  A    between atoms: C_7  and  S_8 
REMARK    2  A    between atoms: S_8  and  C_9 
REMARK    3  A    between atoms: C_9  and  C_10 
REMARK    4  A    between atoms: C_10  and  N_11 
REMARK       I    between atoms: N_11  and  C_12 
REMARK       I    between atoms: C_12  and  N_13 
REMARK    5  A    between atoms: N_13  and  C_14 
REMARK    6  A    between atoms: C_14  and  C_15 
REMARK    7  A    between atoms: C_17  and  O_18 
REMARK    8  A    between atoms: C_20  and  O_21 
ROOT
HETATM    1  N   UNL     1      25.311  43.616  50.639  1.00  0.00    -0.342 N 
HETATM    2  C   UNL     1      26.256  42.819  51.200  1.00  0.00     0.316 C 
HETATM    3  N   UNL     1      26.594  43.087  52.484  1.00  0.00    -0.339 N 
HETATM    4  O   UNL     1      26.736  41.903  50.540  1.00  0.00    -0.248 OA
HETATM    5  H   UNL     1      25.030  43.251  49.735  1.00  0.00     0.164 HD
HETATM    6  H   UNL     1      26.273  43.934  52.919  1.00  0.00     0.164 HD
ENDROOT
BRANCH   1   7
HETATM    7  C   UNL     1      24.478  44.624  51.279  1.00  0.00     0.139 C 
BRANCH   7   8
HETATM    8  C   UNL     1      24.344  45.865  50.418  1.00  0.00     0.165 C 
BRANCH   8   9
HETATM    9  S   UNL     1      25.795  46.872  50.587  1.00  0.00     0.179 S 
HETATM   10  O   UNL     1      26.935  46.169  50.037  1.00  0.00    -0.222 OA
HETATM   11  O   UNL     1      25.819  47.445  51.917  1.00  0.00    -0.222 OA
BRANCH   9  12
HETATM   12  C   UNL     1      25.488  48.193  49.506  1.00  0.00     0.093 A 
HETATM   13  C   UNL     1      26.429  49.058  48.966  1.00  0.00     0.028 A 
HETATM   14  C   UNL     1      27.910  49.115  49.085  1.00  0.00     0.070 C 
HETATM   15  N   UNL     1      25.742  49.966  48.197  1.00  0.00    -0.358 N 
HETATM   16  H   UNL     1      26.164  50.712  47.660  1.00  0.00     0.166 HD
HETATM   17  C   UNL     1      24.388  49.736  48.264  1.00  0.00     0.044 A 
HETATM   18  C   UNL     1      24.193  48.618  49.078  1.00  0.00     0.014 A 
HETATM   19  C   UNL     1      23.333  50.433  47.662  1.00  0.00     0.030 A 
HETATM   20  C   UNL     1      22.867  48.180  49.294  1.00  0.00     0.015 A 
HETATM   21  C   UNL     1      21.801  48.866  48.700  1.00  0.00     0.001 A 
HETATM   22  C   UNL     1      22.033  49.977  47.897  1.00  0.00     0.002 A 
ENDBRANCH   9  12
ENDBRANCH   8   9
ENDBRANCH   7   8
ENDBRANCH   1   7
BRANCH   3  23
HETATM   23  C   UNL     1      27.619  42.343  53.179  1.00  0.00     0.163 C 
BRANCH  23  24
HETATM   24  C   UNL     1      28.381  43.251  54.107  1.00  0.00    -0.038 A 
HETATM   25  C   UNL     1      27.810  44.469  54.509  1.00  0.00     0.048 A 
HETATM   26  C   UNL     1      28.503  45.348  55.349  1.00  0.00     0.102 A 
HETATM   27  C   UNL     1      29.795  45.005  55.794  1.00  0.00     0.101 A 
HETATM   28  C   UNL     1      30.366  43.794  55.390  1.00  0.00     0.040 A 
HETATM   29  C   UNL     1      29.665  42.924  54.550  1.00  0.00     0.012 A 
BRANCH  26  30
HETATM   30  O   UNL     1      28.012  46.553  55.784  1.00  0.00    -0.353 OA
HETATM   31  C   UNL     1      27.853  47.585  54.821  1.00  0.00     0.210 C 
ENDBRANCH  26  30
BRANCH  27  32
HETATM   32  O   UNL     1      30.411  45.918  56.615  1.00  0.00    -0.353 OA
HETATM   33  C   UNL     1      30.546  45.584  57.989  1.00  0.00     0.210 C 
ENDBRANCH  27  32
ENDBRANCH  23  24
ENDBRANCH   3  23
TORSDOF 8
ENDMDL
MODEL 2
REMARK VINA RESULT:      -9.1      2.668      9.129
REMARK  8 active torsions:
REMARK  status: ('A' for Active; 'I' for Inactive)
REMARK    1  A    between atoms: C_7  and  S_8 
REMARK    2  A    between atoms: S_8  and  C_9 
REMARK    3  A    between atoms: C_9  and  C_10 
REMARK    4  A    between atoms: C_10  and  N_11 
REMARK       I    between atoms: N_11  and  C_12 
REMARK       I    between atoms: C_12  and  N_13 
REMARK    5  A    between atoms: N_13  and  C_14 
REMARK    6  A    between atoms: C_14  and  C_15 
REMARK    7  A    between atoms: C_17  and  O_18 
REMARK    8  A    between atoms: C_20  and  O_21 
ROOT
HETATM    1  N   UNL     1      26.913  46.952  49.807  1.00  0.00    -0.342 N 
HETATM    2  C   UNL     1      26.620  48.200  49.360  1.00  0.00     0.316 C 
HETATM    3  N   UNL     1      25.311  48.479  49.150  1.00  0.00    -0.339 N 
HETATM    4  O   UNL     1      27.530  49.004  49.190  1.00  0.00    -0.248 OA
HETATM    5  H   UNL     1      27.892  46.887  50.064  1.00  0.00     0.164 HD
HETATM    6  H   UNL     1      24.633  47.738  49.169  1.00  0.00     0.164 HD
ENDROOT
BRANCH   1   7
HETATM    7  C   UNL     1      25.999  45.911  50.256  1.00  0.00     0.139 C 
BRANCH   7   8
HETATM    8  C   UNL     1      26.541  45.175  51.465  1.00  0.00     0.165 C 
BRANCH   8   9
HETATM    9  S   UNL     1      25.771  45.795  52.939  1.00  0.00     0.179 S 
HETATM   10  O   UNL     1      24.829  44.814  53.438  1.00  0.00    -0.222 OA
HETATM   11  O   UNL     1      25.395  47.178  52.729  1.00  0.00    -0.222 OA
BRANCH   9  12
HETATM   12  C   UNL     1      27.072  45.824  54.084  1.00  0.00     0.093 A 
HETATM   13  C   UNL     1      27.359  46.838  54.988  1.00  0.00     0.028 A 
HETATM   14  C   UNL     1      26.674  48.122  55.290  1.00  0.00     0.070 C 
HETATM   15  N   UNL     1      28.489  46.458  55.669  1.00  0.00    -0.358 N 
HETATM   16  H   UNL     1      28.929  46.988  56.409  1.00  0.00     0.166 HD
HETATM   17  C   UNL     1      28.961  45.254  55.199  1.00  0.00     0.044 A 
HETATM   18  C   UNL     1      28.084  44.823  54.201  1.00  0.00     0.014 A 
HETATM   19  C   UNL     1      30.090  44.523  55.588  1.00  0.00     0.030 A 
HETATM   20  C   UNL     1      28.360  43.591  53.564  1.00  0.00     0.015 A 
HETATM   21  C   UNL     1      29.486  42.849  53.942  1.00  0.00     0.001 A 
HETATM   22  C   UNL     1      30.337  43.311  54.939  1.00  0.00     0.002 A 
ENDBRANCH   9  12
ENDBRANCH   8   9
ENDBRANCH   7   8
ENDBRANCH   1   7
BRANCH   3  23
HETATM   23  C   UNL     1      24.873  49.754  48.631  1.00  0.00     0.163 C 
BRANCH  23  24
HETATM   24  C   UNL     1      23.373  49.862  48.720  1.00  0.00    -0.038 A 
HETATM   25  C   UNL     1      22.601  48.699  48.864  1.00  0.00     0.048 A 
HETATM   26  C   UNL     1      21.205  48.763  48.923  1.00  0.00     0.102 A 
HETATM   27  C   UNL     1      20.565  50.015  48.830  1.00  0.00     0.101 A 
HETATM   28  C   UNL     1      21.334  51.174  48.681  1.00  0.00     0.040 A 
HETATM   29  C   UNL     1      22.728  51.098  48.622  1.00  0.00     0.012 A 
BRANCH  26  30
HETATM   30  O   UNL     1      20.384  47.672  49.064  1.00  0.00    -0.353 OA
HETATM   31  C   UNL     1      20.750  46.481  48.382  1.00  0.00     0.210 C 
ENDBRANCH  26  30
BRANCH  27  32
HETATM   32  O   UNL     1      19.193  49.997  48.896  1.00  0.00    -0.353 OA
HETATM   33  C   UNL     1      18.568  50.817  49.873  1.00  0.00     0.210 C 
ENDBRANCH  27  32
ENDBRANCH  23  24
ENDBRANCH   3  23
TORSDOF 8
ENDMDL
MODEL 3
REMARK VINA RESULT:      -8.8      2.452      8.500
REMARK  8 active torsions:
REMARK  status: ('A' for Active; 'I' for Inactive)
REMARK    1  A    between atoms: C_7  and  S_8 
REMARK    2  A    between atoms: S_8  and  C_9 
REMARK    3  A    between atoms: C_9  and  C_10 
REMARK    4  A    between atoms: C_10  and  N_11 
REMARK       I    between atoms: N_11  and  C_12 
REMARK       I    between atoms: C_12  and  N_13 
REMARK    5  A    between atoms: N_13  and  C_14 
REMARK    6  A    between atoms: C_14  and  C_15 
REMARK    7  A    between atoms: C_17  and  O_18 
REMARK    8  A    between atoms: C_20  and  O_21 
ROOT
HETATM    1  N   UNL     1      24.575  43.614  50.966  1.00  0.00    -0.342 N 
HETATM    2  C   UNL     1      23.442  43.888  50.271  1.00  0.00     0.316 C 
HETATM    3  N   UNL     1      23.561  44.736  49.222  1.00  0.00    -0.339 N 
HETATM    4  O   UNL     1      22.390  43.353  50.606  1.00  0.00    -0.248 OA
HETATM    5  H   UNL     1      24.411  42.870  51.636  1.00  0.00     0.164 HD
HETATM    6  H   UNL     1      24.414  45.250  49.089  1.00  0.00     0.164 HD
ENDROOT
BRANCH   1   7
HETATM    7  C   UNL     1      25.948  43.975  50.641  1.00  0.00     0.139 C 
BRANCH   7   8
HETATM    8  C   UNL     1      26.790  44.150  51.888  1.00  0.00     0.165 C 
BRANCH   8   9
HETATM    9  S   UNL     1      25.873  45.054  53.109  1.00  0.00     0.179 S 
HETATM   10  O   UNL     1      25.016  44.142  53.839  1.00  0.00    -0.222 OA
HETATM   11  O   UNL     1      25.361  46.269  52.510  1.00  0.00    -0.222 OA
BRANCH   9  12
HETATM   12  C   UNL     1      27.095  45.555  54.232  1.00  0.00     0.093 A 
HETATM   13  C   UNL     1      27.169  46.777  54.886  1.00  0.00     0.028 A 
HETATM   14  C   UNL     1      26.271  47.962  54.882  1.00  0.00     0.070 C 
HETATM   15  N   UNL     1      28.312  46.754  55.648  1.00  0.00    -0.358 N 
HETATM   16  H   UNL     1      28.623  47.501  56.254  1.00  0.00     0.166 HD
HETATM   17  C   UNL     1      28.994  45.573  55.468  1.00  0.00     0.044 A 
HETATM   18  C   UNL     1      28.249  44.790  54.584  1.00  0.00     0.014 A 
HETATM   19  C   UNL     1      30.206  45.149  56.025  1.00  0.00     0.030 A 
HETATM   20  C   UNL     1      28.751  43.513  54.246  1.00  0.00     0.015 A 
HETATM   21  C   UNL     1      29.963  43.074  54.794  1.00  0.00     0.001 A 
HETATM   22  C   UNL     1      30.679  43.883  55.670  1.00  0.00     0.002 A 
ENDBRANCH   9  12
ENDBRANCH   8   9
ENDBRANCH   7   8
ENDBRANCH   1   7
BRANCH   3  23
HETATM   23  C   UNL     1      22.422  45.144  48.432  1.00  0.00     0.163 C 
BRANCH  23  24
HETATM   24  C   UNL     1      22.206  46.629  48.560  1.00  0.00    -0.038 A 
HETATM   25  C   UNL     1      23.291  47.462  48.876  1.00  0.00     0.048 A 
HETATM   26  C   UNL     1      23.118  48.842  49.029  1.00  0.00     0.102 A 
HETATM   27  C   UNL     1      21.835  49.402  48.868  1.00  0.00     0.101 A 
HETATM   28  C   UNL     1      20.754  48.571  48.557  1.00  0.00     0.040 A 
HETATM   29  C   UNL     1      20.937  47.193  48.409  1.00  0.00     0.012 A 
BRANCH  26  30
HETATM   30  O   UNL     1      24.128  49.720  49.335  1.00  0.00    -0.353 OA
HETATM   31  C   UNL     1      25.189  49.855  48.400  1.00  0.00     0.210 C 
ENDBRANCH  26  30
BRANCH  27  32
HETATM   32  O   UNL     1      21.746  50.763  49.033  1.00  0.00    -0.353 OA
HETATM   33  C   UNL     1      20.448  51.338  49.081  1.00  0.00     0.210 C 
ENDBRANCH  27  32
ENDBRANCH  23  24
ENDBRANCH   3  23
TORSDOF 8
ENDMDL
MODEL 4
REMARK VINA RESULT:      -8.8      2.768      9.398
REMARK  8 active torsions:
REMARK  status: ('A' for Active; 'I' for Inactive)
REMARK    1  A    between atoms: C_7  and  S_8 
REMARK    2  A    between atoms: S_8  and  C_9 
REMARK    3  A    between atoms: C_9  and  C_10 
REMARK    4  A    between atoms: C_10  and  N_11 
REMARK       I    between atoms: N_11  and  C_12 
REMARK       I    between atoms: C_12  and  N_13 
REMARK    5  A    between atoms: N_13  and  C_14 
REMARK    6  A    between atoms: C_14  and  C_15 
REMARK    7  A    between atoms: C_17  and  O_18 
REMARK    8  A    between atoms: C_20  and  O_21 
ROOT
HETATM    1  N   UNL     1      26.347  47.023  50.311  1.00  0.00    -0.342 N 
HETATM    2  C   UNL     1      26.110  48.171  49.627  1.00  0.00     0.316 C 
HETATM    3  N   UNL     1      24.814  48.468  49.367  1.00  0.00    -0.339 N 
HETATM    4  O   UNL     1      27.056  48.880  49.301  1.00  0.00    -0.248 OA
HETATM    5  H   UNL     1      27.324  46.962  50.576  1.00  0.00     0.164 HD
HETATM    6  H   UNL     1      24.101  47.780  49.532  1.00  0.00     0.164 HD
ENDROOT
BRANCH   1   7
HETATM    7  C   UNL     1      25.389  46.137  50.957  1.00  0.00     0.139 C 
BRANCH   7   8
HETATM    8  C   UNL     1      25.689  45.970  52.433  1.00  0.00     0.165 C 
BRANCH   8   9
HETATM    9  S   UNL     1      25.334  44.305  52.933  1.00  0.00     0.179 S 
HETATM   10  O   UNL     1      24.622  43.625  51.871  1.00  0.00    -0.222 OA
HETATM   11  O   UNL     1      24.844  44.317  54.296  1.00  0.00    -0.222 OA
BRANCH   9  12
HETATM   12  C   UNL     1      26.902  43.568  52.998  1.00  0.00     0.093 A 
HETATM   13  C   UNL     1      27.345  42.493  52.240  1.00  0.00     0.028 A 
HETATM   14  C   UNL     1      26.692  41.700  51.165  1.00  0.00     0.070 C 
HETATM   15  N   UNL     1      28.630  42.223  52.642  1.00  0.00    -0.358 N 
HETATM   16  H   UNL     1      29.222  41.501  52.254  1.00  0.00     0.166 HD
HETATM   17  C   UNL     1      29.007  43.062  53.665  1.00  0.00     0.044 A 
HETATM   18  C   UNL     1      27.940  43.929  53.910  1.00  0.00     0.014 A 
HETATM   19  C   UNL     1      30.210  43.113  54.379  1.00  0.00     0.030 A 
HETATM   20  C   UNL     1      28.095  44.898  54.926  1.00  0.00     0.015 A 
HETATM   21  C   UNL     1      29.292  44.962  55.651  1.00  0.00     0.001 A 
HETATM   22  C   UNL     1      30.333  44.081  55.380  1.00  0.00     0.002 A 
ENDBRANCH   9  12
ENDBRANCH   8   9
ENDBRANCH   7   8
ENDBRANCH   1   7
BRANCH   3  23
HETATM   23  C   UNL     1      24.433  49.636  48.607  1.00  0.00     0.163 C 
BRANCH  23  24
HETATM   24  C   UNL     1      22.944  49.846  48.691  1.00  0.00    -0.038 A 
HETATM   25  C   UNL     1      22.109  48.768  49.025  1.00  0.00     0.048 A 
HETATM   26  C   UNL     1      20.720  48.924  49.085  1.00  0.00     0.102 A 
HETATM   27  C   UNL     1      20.151  50.182  48.802  1.00  0.00     0.101 A 
HETATM   28  C   UNL     1      20.983  51.255  48.465  1.00  0.00     0.040 A 
HETATM   29  C   UNL     1      22.369  51.088  48.407  1.00  0.00     0.012 A 
BRANCH  26  30
HETATM   30  O   UNL     1      19.840  47.920  49.404  1.00  0.00    -0.353 OA
HETATM   31  C   UNL     1      19.810  46.779  48.559  1.00  0.00     0.210 C 
ENDBRANCH  26  30
BRANCH  27  32
HETATM   32  O   UNL     1      18.782  50.256  48.882  1.00  0.00    -0.353 OA
HETATM   33  C   UNL     1      18.224  51.011  49.948  1.00  0.00     0.210 C 
ENDBRANCH  27  32
ENDBRANCH  23  24
ENDBRANCH   3  23
TORSDOF 8
ENDMDL
MODEL 5
REMARK VINA RESULT:      -8.3      2.469      8.294
REMARK  8 active torsions:
REMARK  status: ('A' for Active; 'I' for Inactive)
REMARK    1  A    between atoms: C_7  and  S_8 
REMARK    2  A    between atoms: S_8  and  C_9 
REMARK    3  A    between atoms: C_9  and  C_10 
REMARK    4  A    between atoms: C_10  and  N_11 
REMARK       I    between atoms: N_11  and  C_12 
REMARK       I    between atoms: C_12  and  N_13 
REMARK    5  A    between atoms: N_13  and  C_14 
REMARK    6  A    between atoms: C_14  and  C_15 
REMARK    7  A    between atoms: C_17  and  O_18 
REMARK    8  A    between atoms: C_20  and  O_21 
ROOT
HETATM    1  N   UNL     1      27.974  41.911  51.702  1.00  0.00    -0.342 N 
HETATM    2  C   UNL     1      26.859  42.095  50.950  1.00  0.00     0.316 C 
HETATM    3  N   UNL     1      26.741  43.287  50.318  1.00  0.00    -0.339 N 
HETATM    4  O   UNL     1      26.037  41.188  50.866  1.00  0.00    -0.248 OA
HETATM    5  H   UNL     1      28.036  40.948  52.016  1.00  0.00     0.164 HD
HETATM    6  H   UNL     1      27.372  44.036  50.542  1.00  0.00     0.164 HD
ENDROOT
BRANCH   1   7
HETATM    7  C   UNL     1      29.156  42.757  51.794  1.00  0.00     0.139 C 
BRANCH   7   8
HETATM    8  C   UNL     1      29.401  43.221  53.215  1.00  0.00     0.165 C 
BRANCH   8   9
HETATM    9  S   UNL     1      27.934  43.985  53.858  1.00  0.00     0.179 S 
HETATM   10  O   UNL     1      27.079  42.970  54.439  1.00  0.00    -0.222 OA
HETATM   11  O   UNL     1      27.437  44.941  52.890  1.00  0.00    -0.222 OA
BRANCH   9  12
HETATM   12  C   UNL     1      28.526  44.922  55.191  1.00  0.00     0.093 A 
HETATM   13  C   UNL     1      28.080  46.175  55.588  1.00  0.00     0.028 A 
HETATM   14  C   UNL     1      26.994  47.051  55.073  1.00  0.00     0.070 C 
HETATM   15  N   UNL     1      28.850  46.553  56.661  1.00  0.00    -0.358 N 
HETATM   16  H   UNL     1      28.744  47.415  57.178  1.00  0.00     0.166 HD
HETATM   17  C   UNL     1      29.804  45.601  56.935  1.00  0.00     0.044 A 
HETATM   18  C   UNL     1      29.624  44.554  56.028  1.00  0.00     0.014 A 
HETATM   19  C   UNL     1      30.803  45.595  57.916  1.00  0.00     0.030 A 
HETATM   20  C   UNL     1      30.493  43.444  56.118  1.00  0.00     0.015 A 
HETATM   21  C   UNL     1      31.498  43.423  57.094  1.00  0.00     0.001 A 
HETATM   22  C   UNL     1      31.649  44.485  57.978  1.00  0.00     0.002 A 
ENDBRANCH   9  12
ENDBRANCH   8   9
ENDBRANCH   7   8
ENDBRANCH   1   7
BRANCH   3  23
HETATM   23  C   UNL     1      25.580  43.624  49.527  1.00  0.00     0.163 C 
BRANCH  23  24
HETATM   24  C   UNL     1      25.350  45.112  49.550  1.00  0.00    -0.038 A 
HETATM   25  C   UNL     1      24.058  45.618  49.339  1.00  0.00     0.048 A 
HETATM   26  C   UNL     1      23.816  46.996  49.328  1.00  0.00     0.102 A 
HETATM   27  C   UNL     1      24.888  47.888  49.525  1.00  0.00     0.101 A 
HETATM   28  C   UNL     1      26.177  47.384  49.730  1.00  0.00     0.040 A 
HETATM   29  C   UNL     1      26.407  46.006  49.738  1.00  0.00     0.012 A 
BRANCH  26  30
HETATM   30  O   UNL     1      22.583  47.565  49.130  1.00  0.00    -0.353 OA
HETATM   31  C   UNL     1      21.756  47.007  48.119  1.00  0.00     0.210 C 
ENDBRANCH  26  30
BRANCH  27  32
HETATM   32  O   UNL     1      24.573  49.225  49.501  1.00  0.00    -0.353 OA
HETATM   33  C   UNL     1      24.913  49.962  48.335  1.00  0.00     0.210 C 
ENDBRANCH  27  32
ENDBRANCH  23  24
ENDBRANCH   3  23
TORSDOF 8
ENDMDL
MODEL 6
REMARK VINA RESULT:      -8.3      2.021      3.146
REMARK  8 active torsions:
REMARK  status: ('A' for Active; 'I' for Inactive)
REMARK    1  A    between atoms: C_7  and  S_8 
REMARK    2  A    between atoms: S_8  and  C_9 
REMARK    3  A    between atoms: C_9  and  C_10 
REMARK    4  A    between atoms: C_10  and  N_11 
REMARK       I    between atoms: N_11  and  C_12 
REMARK       I    between atoms: C_12  and  N_13 
REMARK    5  A    between atoms: N_13  and  C_14 
REMARK    6  A    between atoms: C_14  and  C_15 
REMARK    7  A    between atoms: C_17  and  O_18 
REMARK    8  A    between atoms: C_20  and  O_21 
ROOT
HETATM    1  N   UNL     1      26.743  40.964  49.739  1.00  0.00    -0.342 N 
HETATM    2  C   UNL     1      27.600  40.733  50.766  1.00  0.00     0.316 C 
HETATM    3  N   UNL     1      27.143  41.003  52.012  1.00  0.00    -0.339 N 
HETATM    4  O   UNL     1      28.716  40.285  50.525  1.00  0.00    -0.248 OA
HETATM    5  H   UNL     1      27.123  40.604  48.870  1.00  0.00     0.164 HD
HETATM    6  H   UNL     1      26.279  41.501  52.131  1.00  0.00     0.164 HD
ENDROOT
BRANCH   1   7
HETATM    7  C   UNL     1      25.328  41.306  49.797  1.00  0.00     0.139 C 
BRANCH   7   8
HETATM    8  C   UNL     1      25.068  42.699  49.261  1.00  0.00     0.165 C 
BRANCH   8   9
HETATM    9  S   UNL     1      25.258  43.888  50.565  1.00  0.00     0.179 S 
HETATM   10  O   UNL     1      26.652  44.268  50.670  1.00  0.00    -0.222 OA
HETATM   11  O   UNL     1      24.496  43.452  51.716  1.00  0.00    -0.222 OA
BRANCH   9  12
HETATM   12  C   UNL     1      24.434  45.285  49.951  1.00  0.00     0.093 A 
HETATM   13  C   UNL     1      23.114  45.351  49.530  1.00  0.00     0.028 A 
HETATM   14  C   UNL     1      22.027  44.336  49.509  1.00  0.00     0.070 C 
HETATM   15  N   UNL     1      22.896  46.634  49.094  1.00  0.00    -0.358 N 
HETATM   16  H   UNL     1      22.016  46.989  48.745  1.00  0.00     0.166 HD
HETATM   17  C   UNL     1      24.048  47.380  49.179  1.00  0.00     0.044 A 
HETATM   18  C   UNL     1      25.039  46.559  49.723  1.00  0.00     0.014 A 
HETATM   19  C   UNL     1      24.278  48.714  48.819  1.00  0.00     0.030 A 
HETATM   20  C   UNL     1      26.325  47.112  49.915  1.00  0.00     0.015 A 
HETATM   21  C   UNL     1      26.571  48.444  49.559  1.00  0.00     0.001 A 
HETATM   22  C   UNL     1      25.560  49.231  49.018  1.00  0.00     0.002 A 
ENDBRANCH   9  12
ENDBRANCH   8   9
ENDBRANCH   7   8
ENDBRANCH   1   7
BRANCH   3  23
HETATM   23  C   UNL     1      27.974  40.845  53.184  1.00  0.00     0.163 C 
BRANCH  23  24
HETATM   24  C   UNL     1      28.259  42.188  53.803  1.00  0.00    -0.038 A 
HETATM   25  C   UNL     1      27.208  43.097  54.002  1.00  0.00     0.048 A 
HETATM   26  C   UNL     1      27.444  44.362  54.550  1.00  0.00     0.102 A 
HETATM   27  C   UNL     1      28.758  44.731  54.902  1.00  0.00     0.101 A 
HETATM   28  C   UNL     1      29.806  43.827  54.698  1.00  0.00     0.040 A 
HETATM   29  C   UNL     1      29.559  42.565  54.149  1.00  0.00     0.012 A 
BRANCH  26  30
HETATM   30  O   UNL     1      26.470  45.303  54.776  1.00  0.00    -0.353 OA
HETATM   31  C   UNL     1      25.922  45.967  53.646  1.00  0.00     0.210 C 
ENDBRANCH  26  30
BRANCH  27  32
HETATM   32  O   UNL     1      28.909  45.989  55.433  1.00  0.00    -0.353 OA
HETATM   33  C   UNL     1      29.242  46.087  56.811  1.00  0.00     0.210 C 
ENDBRANCH  27  32
ENDBRANCH  23  24
ENDBRANCH   3  23
TORSDOF 8
ENDMDL
MODEL 7
REMARK VINA RESULT:      -8.2      3.465      7.637
REMARK  8 active torsions:
REMARK  status: ('A' for Active; 'I' for Inactive)
REMARK    1  A    between atoms: C_7  and  S_8 
REMARK    2  A    between atoms: S_8  and  C_9 
REMARK    3  A    between atoms: C_9  and  C_10 
REMARK    4  A    between atoms: C_10  and  N_11 
REMARK       I    between atoms: N_11  and  C_12 
REMARK       I    between atoms: C_12  and  N_13 
REMARK    5  A    between atoms: N_13  and  C_14 
REMARK    6  A    between atoms: C_14  and  C_15 
REMARK    7  A    between atoms: C_17  and  O_18 
REMARK    8  A    between atoms: C_20  and  O_21 
ROOT
HETATM    1  N   UNL     1      24.241  44.834  51.462  1.00  0.00    -0.342 N 
HETATM    2  C   UNL     1      24.065  43.734  50.686  1.00  0.00     0.316 C 
HETATM    3  N   UNL     1      24.723  43.713  49.502  1.00  0.00    -0.339 N 
HETATM    4  O   UNL     1      23.351  42.823  51.091  1.00  0.00    -0.248 OA
HETATM    5  H   UNL     1      23.825  44.694  52.377  1.00  0.00     0.164 HD
HETATM    6  H   UNL     1      25.173  44.546  49.166  1.00  0.00     0.164 HD
ENDROOT
BRANCH   1   7
HETATM    7  C   UNL     1      25.177  45.934  51.278  1.00  0.00     0.139 C 
BRANCH   7   8
HETATM    8  C   UNL     1      26.471  45.699  52.031  1.00  0.00     0.165 C 
BRANCH   8   9
HETATM    9  S   UNL     1      26.125  44.922  53.589  1.00  0.00     0.179 S 
HETATM   10  O   UNL     1      26.329  43.493  53.469  1.00  0.00    -0.222 OA
HETATM   11  O   UNL     1      24.903  45.478  54.132  1.00  0.00    -0.222 OA
BRANCH   9  12
HETATM   12  C   UNL     1      27.403  45.497  54.610  1.00  0.00     0.093 A 
HETATM   13  C   UNL     1      27.501  46.754  55.189  1.00  0.00     0.028 A 
HETATM   14  C   UNL     1      26.589  47.929  55.170  1.00  0.00     0.070 C 
HETATM   15  N   UNL     1      28.685  46.784  55.884  1.00  0.00    -0.358 N 
HETATM   16  H   UNL     1      29.021  47.567  56.428  1.00  0.00     0.166 HD
HETATM   17  C   UNL     1      29.370  45.601  55.731  1.00  0.00     0.044 A 
HETATM   18  C   UNL     1      28.585  44.763  54.936  1.00  0.00     0.014 A 
HETATM   19  C   UNL     1      30.617  45.219  56.240  1.00  0.00     0.030 A 
HETATM   20  C   UNL     1      29.082  43.473  54.642  1.00  0.00     0.015 A 
HETATM   21  C   UNL     1      30.328  43.077  55.143  1.00  0.00     0.001 A 
HETATM   22  C   UNL     1      31.083  43.939  55.929  1.00  0.00     0.002 A 
ENDBRANCH   9  12
ENDBRANCH   8   9
ENDBRANCH   7   8
ENDBRANCH   1   7
BRANCH   3  23
HETATM   23  C   UNL     1      24.582  42.622  48.565  1.00  0.00     0.163 C 
BRANCH  23  24
HETATM   24  C   UNL     1      25.592  41.546  48.867  1.00  0.00    -0.038 A 
HETATM   25  C   UNL     1      26.623  41.801  49.785  1.00  0.00     0.048 A 
HETATM   26  C   UNL     1      27.592  40.832  50.066  1.00  0.00     0.102 A 
HETATM   27  C   UNL     1      27.534  39.584  49.415  1.00  0.00     0.101 A 
HETATM   28  C   UNL     1      26.508  39.332  48.498  1.00  0.00     0.040 A 
HETATM   29  C   UNL     1      25.546  40.307  48.222  1.00  0.00     0.012 A 
BRANCH  26  30
HETATM   30  O   UNL     1      28.628  41.006  50.951  1.00  0.00    -0.353 OA
HETATM   31  C   UNL     1      28.336  40.895  52.336  1.00  0.00     0.210 C 
ENDBRANCH  26  30
BRANCH  27  32
HETATM   32  O   UNL     1      28.519  38.685  49.745  1.00  0.00    -0.353 OA
HETATM   33  C   UNL     1      29.218  38.053  48.681  1.00  0.00     0.210 C 
ENDBRANCH  27  32
ENDBRANCH  23  24
ENDBRANCH   3  23
TORSDOF 8
ENDMDL
MODEL 8
REMARK VINA RESULT:      -8.2      2.573      8.150
REMARK  8 active torsions:
REMARK  status: ('A' for Active; 'I' for Inactive)
REMARK    1  A    between atoms: C_7  and  S_8 
REMARK    2  A    between atoms: S_8  and  C_9 
REMARK    3  A    between atoms: C_9  and  C_10 
REMARK    4  A    between atoms: C_10  and  N_11 
REMARK       I    between atoms: N_11  and  C_12 
REMARK       I    between atoms: C_12  and  N_13 
REMARK    5  A    between atoms: N_13  and  C_14 
REMARK    6  A    between atoms: C_14  and  C_15 
REMARK    7  A    between atoms: C_17  and  O_18 
REMARK    8  A    between atoms: C_20  and  O_21 
ROOT
HETATM    1  N   UNL     1      24.117  41.605  49.168  1.00  0.00    -0.342 N 
HETATM    2  C   UNL     1      23.135  42.339  48.586  1.00  0.00     0.316 C 
HETATM    3  N   UNL     1      23.361  43.670  48.466  1.00  0.00    -0.339 N 
HETATM    4  O   UNL     1      22.121  41.775  48.190  1.00  0.00    -0.248 OA
HETATM    5  H   UNL     1      23.917  40.614  49.086  1.00  0.00     0.164 HD
HETATM    6  H   UNL     1      24.143  44.089  48.937  1.00  0.00     0.164 HD
ENDROOT
BRANCH   1   7
HETATM    7  C   UNL     1      25.465  42.020  49.535  1.00  0.00     0.139 C 
BRANCH   7   8
HETATM    8  C   UNL     1      25.538  42.461  50.983  1.00  0.00     0.165 C 
BRANCH   8   9
HETATM    9  S   UNL     1      26.665  43.823  51.138  1.00  0.00     0.179 S 
HETATM   10  O   UNL     1      26.073  44.844  51.977  1.00  0.00    -0.222 OA
HETATM   11  O   UNL     1      27.216  44.131  49.834  1.00  0.00    -0.222 OA
BRANCH   9  12
HETATM   12  C   UNL     1      27.972  43.154  52.060  1.00  0.00     0.093 A 
HETATM   13  C   UNL     1      28.612  41.944  51.834  1.00  0.00     0.028 A 
HETATM   14  C   UNL     1      28.439  40.911  50.778  1.00  0.00     0.070 C 
HETATM   15  N   UNL     1      29.557  41.800  52.820  1.00  0.00    -0.358 N 
HETATM   16  H   UNL     1      30.196  41.022  52.906  1.00  0.00     0.166 HD
HETATM   17  C   UNL     1      29.511  42.859  53.697  1.00  0.00     0.044 A 
HETATM   18  C   UNL     1      28.524  43.737  53.242  1.00  0.00     0.014 A 
HETATM   19  C   UNL     1      30.271  43.099  54.848  1.00  0.00     0.030 A 
HETATM   20  C   UNL     1      28.294  44.917  53.984  1.00  0.00     0.015 A 
HETATM   21  C   UNL     1      29.045  45.171  55.138  1.00  0.00     0.001 A 
HETATM   22  C   UNL     1      30.019  44.273  55.562  1.00  0.00     0.002 A 
ENDBRANCH   9  12
ENDBRANCH   8   9
ENDBRANCH   7   8
ENDBRANCH   1   7
BRANCH   3  23
HETATM   23  C   UNL     1      22.375  44.567  47.907  1.00  0.00     0.163 C 
BRANCH  23  24
HETATM   24  C   UNL     1      22.666  45.983  48.329  1.00  0.00    -0.038 A 
HETATM   25  C   UNL     1      23.689  46.235  49.256  1.00  0.00     0.048 A 
HETATM   26  C   UNL     1      23.965  47.537  49.688  1.00  0.00     0.102 A 
HETATM   27  C   UNL     1      23.202  48.610  49.188  1.00  0.00     0.101 A 
HETATM   28  C   UNL     1      22.179  48.358  48.267  1.00  0.00     0.040 A 
HETATM   29  C   UNL     1      21.910  47.054  47.843  1.00  0.00     0.012 A 
BRANCH  26  30
HETATM   30  O   UNL     1      24.949  47.862  50.590  1.00  0.00    -0.353 OA
HETATM   31  C   UNL     1      26.296  47.789  50.147  1.00  0.00     0.210 C 
ENDBRANCH  26  30
BRANCH  27  32
HETATM   32  O   UNL     1      23.533  49.857  49.659  1.00  0.00    -0.353 OA
HETATM   33  C   UNL     1      23.006  50.983  48.972  1.00  0.00     0.210 C 
ENDBRANCH  27  32
ENDBRANCH  23  24
ENDBRANCH   3  23
TORSDOF 8
ENDMDL
MODEL 9
REMARK VINA RESULT:      -8.0     11.775     13.493
REMARK  8 active torsions:
REMARK  status: ('A' for Active; 'I' for Inactive)
REMARK    1  A    between atoms: C_7  and  S_8 
REMARK    2  A    between atoms: S_8  and  C_9 
REMARK    3  A    between atoms: C_9  and  C_10 
REMARK    4  A    between atoms: C_10  and  N_11 
REMARK       I    between atoms: N_11  and  C_12 
REMARK       I    between atoms: C_12  and  N_13 
REMARK    5  A    between atoms: N_13  and  C_14 
REMARK    6  A    between atoms: C_14  and  C_15 
REMARK    7  A    between atoms: C_17  and  O_18 
REMARK    8  A    between atoms: C_20  and  O_21 
ROOT
HETATM    1  N   UNL     1      27.900  45.728  38.100  1.00  0.00    -0.342 N 
HETATM    2  C   UNL     1      28.813  45.831  39.099  1.00  0.00     0.316 C 
HETATM    3  N   UNL     1      29.374  47.050  39.287  1.00  0.00    -0.339 N 
HETATM    4  O   UNL     1      29.068  44.845  39.781  1.00  0.00    -0.248 OA
HETATM    5  H   UNL     1      27.441  44.824  38.130  1.00  0.00     0.164 HD
HETATM    6  H   UNL     1      29.231  47.776  38.607  1.00  0.00     0.164 HD
ENDROOT
BRANCH   1   7
HETATM    7  C   UNL     1      27.306  46.790  37.299  1.00  0.00     0.139 C 
BRANCH   7   8
HETATM    8  C   UNL     1      25.899  47.114  37.757  1.00  0.00     0.165 C 
BRANCH   8   9
HETATM    9  S   UNL     1      25.702  48.873  37.891  1.00  0.00     0.179 S 
HETATM   10  O   UNL     1      24.303  49.186  38.095  1.00  0.00    -0.222 OA
HETATM   11  O   UNL     1      26.486  49.516  36.857  1.00  0.00    -0.222 OA
BRANCH   9  12
HETATM   12  C   UNL     1      26.492  49.246  39.389  1.00  0.00     0.093 A 
HETATM   13  C   UNL     1      26.389  48.542  40.580  1.00  0.00     0.028 A 
HETATM   14  C   UNL     1      25.658  47.297  40.937  1.00  0.00     0.070 C 
HETATM   15  N   UNL     1      27.152  49.209  41.507  1.00  0.00    -0.358 N 
HETATM   16  H   UNL     1      27.287  48.921  42.466  1.00  0.00     0.166 HD
HETATM   17  C   UNL     1      27.704  50.343  40.958  1.00  0.00     0.044 A 
HETATM   18  C   UNL     1      27.312  50.394  39.618  1.00  0.00     0.014 A 
HETATM   19  C   UNL     1      28.519  51.316  41.550  1.00  0.00     0.030 A 
HETATM   20  C   UNL     1      27.767  51.479  38.836  1.00  0.00     0.015 A 
HETATM   21  C   UNL     1      28.582  52.460  39.414  1.00  0.00     0.001 A 
HETATM   22  C   UNL     1      28.950  52.378  40.752  1.00  0.00     0.002 A 
ENDBRANCH   9  12
ENDBRANCH   8   9
ENDBRANCH   7   8
ENDBRANCH   1   7
BRANCH   3  23
HETATM   23  C   UNL     1      30.393  47.280  40.285  1.00  0.00     0.163 C 
BRANCH  23  24
HETATM   24  C   UNL     1      31.014  48.638  40.089  1.00  0.00    -0.038 A 
HETATM   25  C   UNL     1      31.600  49.297  41.182  1.00  0.00     0.048 A 
HETATM   26  C   UNL     1      32.162  50.570  41.038  1.00  0.00     0.102 A 
HETATM   27  C   UNL     1      32.135  51.201  39.779  1.00  0.00     0.101 A 
HETATM   28  C   UNL     1      31.547  50.546  38.691  1.00  0.00     0.040 A 
HETATM   29  C   UNL     1      30.987  49.275  38.846  1.00  0.00     0.012 A 
BRANCH  26  30
HETATM   30  O   UNL     1      32.753  51.276  42.057  1.00  0.00    -0.353 OA
HETATM   31  C   UNL     1      31.924  51.700  43.130  1.00  0.00     0.210 C 
ENDBRANCH  26  30
BRANCH  27  32
HETATM   32  O   UNL     1      32.706  52.449  39.717  1.00  0.00    -0.353 OA
HETATM   33  C   UNL     1      34.063  52.534  39.307  1.00  0.00     0.210 C 
ENDBRANCH  27  32
ENDBRANCH  23  24
ENDBRANCH   3  23
TORSDOF 8
ENDMDL
MODEL 10
REMARK VINA RESULT:      -8.0      3.980      8.187
REMARK  8 active torsions:
REMARK  status: ('A' for Active; 'I' for Inactive)
REMARK    1  A    between atoms: C_7  and  S_8 
REMARK    2  A    between atoms: S_8  and  C_9 
REMARK    3  A    between atoms: C_9  and  C_10 
REMARK    4  A    between atoms: C_10  and  N_11 
REMARK       I    between atoms: N_11  and  C_12 
REMARK       I    between atoms: C_12  and  N_13 
REMARK    5  A    between atoms: N_13  and  C_14 
REMARK    6  A    between atoms: C_14  and  C_15 
REMARK    7  A    between atoms: C_17  and  O_18 
REMARK    8  A    between atoms: C_20  and  O_21 
ROOT
HETATM    1  N   UNL     1      24.257  44.173  51.015  1.00  0.00    -0.342 N 
HETATM    2  C   UNL     1      24.170  43.041  50.269  1.00  0.00     0.316 C 
HETATM    3  N   UNL     1      25.334  42.528  49.805  1.00  0.00    -0.339 N 
HETATM    4  O   UNL     1      23.069  42.538  50.071  1.00  0.00    -0.248 OA
HETATM    5  H   UNL     1      23.358  44.397  51.427  1.00  0.00     0.164 HD
HETATM    6  H   UNL     1      26.182  43.062  49.880  1.00  0.00     0.164 HD
ENDROOT
BRANCH   1   7
HETATM    7  C   UNL     1      25.450  44.829  51.532  1.00  0.00     0.139 C 
BRANCH   7   8
HETATM    8  C   UNL     1      25.773  44.370  52.940  1.00  0.00     0.165 C 
BRANCH   8   9
HETATM    9  S   UNL     1      27.450  43.792  53.012  1.00  0.00     0.179 S 
HETATM   10  O   UNL     1      28.142  44.173  51.798  1.00  0.00    -0.222 OA
HETATM   11  O   UNL     1      27.457  42.428  53.501  1.00  0.00    -0.222 OA
BRANCH   9  12
HETATM   12  C   UNL     1      28.147  44.753  54.275  1.00  0.00     0.093 A 
HETATM   13  C   UNL     1      27.790  46.048  54.625  1.00  0.00     0.028 A 
HETATM   14  C   UNL     1      26.739  46.963  54.106  1.00  0.00     0.070 C 
HETATM   15  N   UNL     1      28.621  46.429  55.650  1.00  0.00    -0.358 N 
HETATM   16  H   UNL     1      28.586  47.319  56.128  1.00  0.00     0.166 HD
HETATM   17  C   UNL     1      29.528  45.435  55.937  1.00  0.00     0.044 A 
HETATM   18  C   UNL     1      29.252  44.359  55.090  1.00  0.00     0.014 A 
HETATM   19  C   UNL     1      30.562  45.415  56.881  1.00  0.00     0.030 A 
HETATM   20  C   UNL     1      30.058  43.204  55.203  1.00  0.00     0.015 A 
HETATM   21  C   UNL     1      31.096  43.169  56.142  1.00  0.00     0.001 A 
HETATM   22  C   UNL     1      31.343  44.260  56.968  1.00  0.00     0.002 A 
ENDBRANCH   9  12
ENDBRANCH   8   9
ENDBRANCH   7   8
ENDBRANCH   1   7
BRANCH   3  23
HETATM   23  C   UNL     1      25.373  41.355  48.962  1.00  0.00     0.163 C 
BRANCH  23  24
HETATM   24  C   UNL     1      26.595  40.532  49.274  1.00  0.00    -0.038 A 
HETATM   25  C   UNL     1      26.988  39.512  48.393  1.00  0.00     0.048 A 
HETATM   26  C   UNL     1      28.103  38.713  48.667  1.00  0.00     0.102 A 
HETATM   27  C   UNL     1      28.839  38.932  49.848  1.00  0.00     0.101 A 
HETATM   28  C   UNL     1      28.444  39.945  50.729  1.00  0.00     0.040 A 
HETATM   29  C   UNL     1      27.328  40.737  50.446  1.00  0.00     0.012 A 
BRANCH  26  30
HETATM   30  O   UNL     1      28.549  37.699  47.855  1.00  0.00    -0.353 OA
HETATM   31  C   UNL     1      27.577  36.975  47.114  1.00  0.00     0.210 C 
ENDBRANCH  26  30
BRANCH  27  32
HETATM   32  O   UNL     1      29.919  38.107  50.048  1.00  0.00    -0.353 OA
HETATM   33  C   UNL     1      29.837  37.154  51.097  1.00  0.00     0.210 C 
ENDBRANCH  27  32
ENDBRANCH  23  24
ENDBRANCH   3  23
TORSDOF 8
ENDMDL
