MODEL 1
REMARK VINA RESULT:      -9.6      0.000      0.000
REMARK  8 active torsions:
REMARK  status: ('A' for Active; 'I' for Inactive)
REMARK    1  A    between atoms: C_2  and  O_3 
REMARK    2  A    between atoms: O_3  and  C_4 
REMARK    3  A    between atoms: C_5  and  N_6 
REMARK       I    between atoms: N_9  and  C_10 
REMARK    4  A    between atoms: C_10  and  C_11 
REMARK    5  A    between atoms: C_14  and  C_15 
REMARK       I    between atoms: C_15  and  N_16 
REMARK    6  A    between atoms: N_16  and  C_17 
REMARK    7  A    between atoms: C_17  and  C_18 
REMARK    8  A    between atoms: N_23  and  C_24 
ROOT
HETATM    1  C   UNL     1      23.630  45.048  49.640  1.00  0.00     0.098 A 
HETATM    2  C   UNL     1      22.391  45.113  48.810  1.00  0.00     0.206 A 
HETATM    3  O   UNL     1      21.822  44.096  48.416  1.00  0.00    -0.286 OA
HETATM    4  C   UNL     1      21.875  46.462  48.439  1.00  0.00     0.098 A 
HETATM    5  C   UNL     1      22.632  47.522  48.777  1.00  0.00     0.112 A 
HETATM    6  N   UNL     1      23.826  47.468  49.495  1.00  0.00    -0.360 N 
HETATM    7  C   UNL     1      24.220  46.213  49.950  1.00  0.00     0.112 A 
ENDROOT
BRANCH   1   8
HETATM    8  C   UNL     1      24.104  43.754  50.199  1.00  0.00     0.259 C 
HETATM    9  N   UNL     1      25.395  43.315  49.916  1.00  0.00    -0.346 N 
HETATM   10  C   UNL     1      26.551  44.167  49.631  1.00  0.00     0.141 C 
HETATM   11  C   UNL     1      25.816  42.033  50.486  1.00  0.00     0.141 C 
HETATM   12  C   UNL     1      27.307  44.478  50.949  1.00  0.00     0.115 C 
HETATM   13  N   UNL     1      27.722  43.216  51.629  1.00  0.00    -0.278 NA
HETATM   14  C   UNL     1      26.591  42.251  51.801  1.00  0.00     0.115 C 
HETATM   15  O   UNL     1      23.322  43.086  50.876  1.00  0.00    -0.267 OA
BRANCH  13  16
HETATM   16  C   UNL     1      28.563  43.414  52.757  1.00  0.00     0.044 A 
HETATM   17  C   UNL     1      28.253  44.319  53.800  1.00  0.00     0.090 A 
HETATM   18  C   UNL     1      29.067  44.466  54.934  1.00  0.00     0.038 A 
HETATM   19  C   UNL     1      30.258  43.763  55.039  1.00  0.00     0.003 A 
HETATM   20  C   UNL     1      30.628  42.907  54.012  1.00  0.00     0.002 A 
HETATM   21  C   UNL     1      29.796  42.739  52.896  1.00  0.00     0.026 A 
BRANCH  17  22
HETATM   22  O   UNL     1      27.138  45.124  53.802  1.00  0.00    -0.350 OA
BRANCH  22  23
HETATM   23  C   UNL     1      27.395  46.356  54.487  1.00  0.00     0.171 C 
HETATM   24  C   UNL     1      26.259  47.306  54.151  1.00  0.00     0.034 C 
ENDBRANCH  22  23
ENDBRANCH  17  22
ENDBRANCH  13  16
ENDBRANCH   1   8
BRANCH   4  25
HETATM   25  C   UNL     1      20.595  46.719  47.719  1.00  0.00     0.257 C 
HETATM   26  N   UNL     1      19.471  46.200  48.308  1.00  0.00    -0.356 N 
HETATM   27  H   UNL     1      19.581  45.615  49.136  1.00  0.00     0.162 HD
HETATM   28  O   UNL     1      20.563  47.372  46.679  1.00  0.00    -0.267 OA
BRANCH  26  29
HETATM   29  C   UNL     1      18.142  46.410  47.773  1.00  0.00     0.126 C 
BRANCH  29  30
HETATM   30  C   UNL     1      17.237  47.208  48.721  1.00  0.00    -0.005 C 
HETATM   31  C   UNL     1      18.033  48.248  49.511  1.00  0.00     0.011 C 
HETATM   32  C   UNL     1      16.124  47.894  47.926  1.00  0.00     0.011 C 
ENDBRANCH  29  30
ENDBRANCH  26  29
ENDBRANCH   4  25
BRANCH   6  33
HETATM   33  C   UNL     1      24.717  48.652  49.498  1.00  0.00     0.088 C 
HETATM   34  C   UNL     1      26.211  48.373  49.317  1.00  0.00     0.026 C 
HETATM   35  C   UNL     1      26.732  49.675  48.725  1.00  0.00     0.002 C 
HETATM   36  C   UNL     1      25.654  50.055  47.721  1.00  0.00     0.002 C 
HETATM   37  C   UNL     1      24.340  49.633  48.373  1.00  0.00     0.026 C 
ENDBRANCH   6  33
TORSDOF 8
ENDMDL
MODEL 2
REMARK VINA RESULT:      -9.1      2.230      3.603
REMARK  8 active torsions:
REMARK  status: ('A' for Active; 'I' for Inactive)
REMARK    1  A    between atoms: C_2  and  O_3 
REMARK    2  A    between atoms: O_3  and  C_4 
REMARK    3  A    between atoms: C_5  and  N_6 
REMARK       I    between atoms: N_9  and  C_10 
REMARK    4  A    between atoms: C_10  and  C_11 
REMARK    5  A    between atoms: C_14  and  C_15 
REMARK       I    between atoms: C_15  and  N_16 
REMARK    6  A    between atoms: N_16  and  C_17 
REMARK    7  A    between atoms: C_17  and  C_18 
REMARK    8  A    between atoms: N_23  and  C_24 
ROOT
HETATM    1  C   UNL     1      23.700  44.189  49.363  1.00  0.00     0.098 A 
HETATM    2  C   UNL     1      23.828  45.558  49.944  1.00  0.00     0.206 A 
HETATM    3  O   UNL     1      24.240  45.739  51.089  1.00  0.00    -0.286 OA
HETATM    4  C   UNL     1      23.405  46.712  49.100  1.00  0.00     0.098 A 
HETATM    5  C   UNL     1      22.825  46.428  47.920  1.00  0.00     0.112 A 
HETATM    6  N   UNL     1      22.640  45.149  47.396  1.00  0.00    -0.360 N 
HETATM    7  C   UNL     1      23.163  44.094  48.136  1.00  0.00     0.112 A 
ENDROOT
BRANCH   1   8
HETATM    8  C   UNL     1      24.264  43.007  50.068  1.00  0.00     0.259 C 
HETATM    9  N   UNL     1      25.609  42.684  49.898  1.00  0.00    -0.346 N 
HETATM   10  C   UNL     1      26.688  43.624  49.593  1.00  0.00     0.141 C 
HETATM   11  C   UNL     1      26.119  41.510  50.611  1.00  0.00     0.141 C 
HETATM   12  C   UNL     1      27.325  44.131  50.913  1.00  0.00     0.115 C 
HETATM   13  N   UNL     1      27.822  42.986  51.733  1.00  0.00    -0.278 NA
HETATM   14  C   UNL     1      26.784  41.928  51.938  1.00  0.00     0.115 C 
HETATM   15  O   UNL     1      23.513  42.325  50.764  1.00  0.00    -0.267 OA
BRANCH  13  16
HETATM   16  C   UNL     1      28.566  43.373  52.879  1.00  0.00     0.044 A 
HETATM   17  C   UNL     1      28.093  44.315  53.825  1.00  0.00     0.090 A 
HETATM   18  C   UNL     1      28.816  44.649  54.980  1.00  0.00     0.038 A 
HETATM   19  C   UNL     1      30.073  44.105  55.203  1.00  0.00     0.003 A 
HETATM   20  C   UNL     1      30.599  43.221  54.272  1.00  0.00     0.002 A 
HETATM   21  C   UNL     1      29.859  42.866  53.135  1.00  0.00     0.026 A 
BRANCH  17  22
HETATM   22  O   UNL     1      26.894  44.978  53.702  1.00  0.00    -0.350 OA
BRANCH  22  23
HETATM   23  C   UNL     1      26.925  46.228  54.401  1.00  0.00     0.171 C 
HETATM   24  C   UNL     1      26.399  47.290  53.452  1.00  0.00     0.034 C 
ENDBRANCH  22  23
ENDBRANCH  17  22
ENDBRANCH  13  16
ENDBRANCH   1   8
BRANCH   4  25
HETATM   25  C   UNL     1      23.569  48.147  49.470  1.00  0.00     0.257 C 
HETATM   26  N   UNL     1      22.431  48.908  49.405  1.00  0.00    -0.356 N 
HETATM   27  H   UNL     1      21.580  48.482  49.039  1.00  0.00     0.162 HD
HETATM   28  O   UNL     1      24.654  48.598  49.829  1.00  0.00    -0.267 OA
BRANCH  26  29
HETATM   29  C   UNL     1      22.403  50.303  49.791  1.00  0.00     0.126 C 
BRANCH  29  30
HETATM   30  C   UNL     1      21.388  51.125  48.984  1.00  0.00    -0.005 C 
HETATM   31  C   UNL     1      21.084  50.470  47.635  1.00  0.00     0.011 C 
HETATM   32  C   UNL     1      20.096  51.292  49.787  1.00  0.00     0.011 C 
ENDBRANCH  29  30
ENDBRANCH  26  29
ENDBRANCH   4  25
BRANCH   6  33
HETATM   33  C   UNL     1      21.695  44.964  46.269  1.00  0.00     0.088 C 
HETATM   34  C   UNL     1      20.772  46.147  45.961  1.00  0.00     0.026 C 
HETATM   35  C   UNL     1      20.447  45.950  44.486  1.00  0.00     0.002 C 
HETATM   36  C   UNL     1      21.784  45.538  43.888  1.00  0.00     0.002 C 
HETATM   37  C   UNL     1      22.445  44.672  44.957  1.00  0.00     0.026 C 
ENDBRANCH   6  33
TORSDOF 8
ENDMDL
MODEL 3
REMARK VINA RESULT:      -9.0      2.937      7.111
REMARK  8 active torsions:
REMARK  status: ('A' for Active; 'I' for Inactive)
REMARK    1  A    between atoms: C_2  and  O_3 
REMARK    2  A    between atoms: O_3  and  C_4 
REMARK    3  A    between atoms: C_5  and  N_6 
REMARK       I    between atoms: N_9  and  C_10 
REMARK    4  A    between atoms: C_10  and  C_11 
REMARK    5  A    between atoms: C_14  and  C_15 
REMARK       I    between atoms: C_15  and  N_16 
REMARK    6  A    between atoms: N_16  and  C_17 
REMARK    7  A    between atoms: C_17  and  C_18 
REMARK    8  A    between atoms: N_23  and  C_24 
ROOT
HETATM    1  C   UNL     1      24.498  44.753  50.975  1.00  0.00     0.098 A 
HETATM    2  C   UNL     1      25.120  44.951  52.318  1.00  0.00     0.206 A 
HETATM    3  O   UNL     1      25.256  44.021  53.111  1.00  0.00    -0.286 OA
HETATM    4  C   UNL     1      25.545  46.332  52.688  1.00  0.00     0.098 A 
HETATM    5  C   UNL     1      25.227  47.320  51.833  1.00  0.00     0.112 A 
HETATM    6  N   UNL     1      24.587  47.155  50.605  1.00  0.00    -0.360 N 
HETATM    7  C   UNL     1      24.321  45.846  50.217  1.00  0.00     0.112 A 
ENDROOT
BRANCH   1   8
HETATM    8  C   UNL     1      24.213  43.386  50.464  1.00  0.00     0.259 C 
HETATM    9  N   UNL     1      24.941  42.891  49.384  1.00  0.00    -0.346 N 
HETATM   10  C   UNL     1      26.311  43.264  49.027  1.00  0.00     0.141 C 
HETATM   11  C   UNL     1      24.624  41.540  48.913  1.00  0.00     0.141 C 
HETATM   12  C   UNL     1      27.310  42.294  49.711  1.00  0.00     0.115 C 
HETATM   13  N   UNL     1      27.018  40.881  49.329  1.00  0.00    -0.278 NA
HETATM   14  C   UNL     1      25.583  40.508  49.539  1.00  0.00     0.115 C 
HETATM   15  O   UNL     1      23.313  42.736  50.994  1.00  0.00    -0.267 OA
BRANCH  13  16
HETATM   16  C   UNL     1      27.987  39.945  49.781  1.00  0.00     0.044 A 
HETATM   17  C   UNL     1      28.474  38.889  48.973  1.00  0.00     0.090 A 
HETATM   18  C   UNL     1      29.470  38.004  49.414  1.00  0.00     0.038 A 
HETATM   19  C   UNL     1      29.971  38.097  50.705  1.00  0.00     0.003 A 
HETATM   20  C   UNL     1      29.478  39.082  51.549  1.00  0.00     0.002 A 
HETATM   21  C   UNL     1      28.507  39.985  51.093  1.00  0.00     0.026 A 
BRANCH  17  22
HETATM   22  O   UNL     1      28.027  38.640  47.696  1.00  0.00    -0.350 OA
BRANCH  22  23
HETATM   23  C   UNL     1      27.649  37.267  47.545  1.00  0.00     0.171 C 
HETATM   24  C   UNL     1      26.223  37.132  48.050  1.00  0.00     0.034 C 
ENDBRANCH  22  23
ENDBRANCH  17  22
ENDBRANCH  13  16
ENDBRANCH   1   8
BRANCH   4  25
HETATM   25  C   UNL     1      26.284  46.693  53.931  1.00  0.00     0.257 C 
HETATM   26  N   UNL     1      27.541  46.158  54.049  1.00  0.00    -0.356 N 
HETATM   27  H   UNL     1      27.857  45.497  53.339  1.00  0.00     0.162 HD
HETATM   28  O   UNL     1      25.795  47.440  54.775  1.00  0.00    -0.267 OA
BRANCH  26  29
HETATM   29  C   UNL     1      28.415  46.459  55.163  1.00  0.00     0.126 C 
BRANCH  29  30
HETATM   30  C   UNL     1      28.955  45.200  55.853  1.00  0.00    -0.005 C 
HETATM   31  C   UNL     1      29.476  44.183  54.836  1.00  0.00     0.011 C 
HETATM   32  C   UNL     1      30.070  45.578  56.831  1.00  0.00     0.011 C 
ENDBRANCH  29  30
ENDBRANCH  26  29
ENDBRANCH   4  25
BRANCH   6  33
HETATM   33  C   UNL     1      23.998  48.340  49.936  1.00  0.00     0.088 C 
HETATM   34  C   UNL     1      24.885  49.041  48.904  1.00  0.00     0.026 C 
HETATM   35  C   UNL     1      23.873  49.712  47.985  1.00  0.00     0.002 C 
HETATM   36  C   UNL     1      22.794  48.652  47.825  1.00  0.00     0.002 C 
HETATM   37  C   UNL     1      22.706  47.969  49.187  1.00  0.00     0.026 C 
ENDBRANCH   6  33
TORSDOF 8
ENDMDL
MODEL 4
REMARK VINA RESULT:      -8.7      2.334      9.447
REMARK  8 active torsions:
REMARK  status: ('A' for Active; 'I' for Inactive)
REMARK    1  A    between atoms: C_2  and  O_3 
REMARK    2  A    between atoms: O_3  and  C_4 
REMARK    3  A    between atoms: C_5  and  N_6 
REMARK       I    between atoms: N_9  and  C_10 
REMARK    4  A    between atoms: C_10  and  C_11 
REMARK    5  A    between atoms: C_14  and  C_15 
REMARK       I    between atoms: C_15  and  N_16 
REMARK    6  A    between atoms: N_16  and  C_17 
REMARK    7  A    between atoms: C_17  and  C_18 
REMARK    8  A    between atoms: N_23  and  C_24 
ROOT
HETATM    1  C   UNL     1      22.640  45.581  49.096  1.00  0.00     0.098 A 
HETATM    2  C   UNL     1      23.162  44.644  50.135  1.00  0.00     0.206 A 
HETATM    3  O   UNL     1      22.525  43.653  50.491  1.00  0.00    -0.286 OA
HETATM    4  C   UNL     1      24.476  44.965  50.761  1.00  0.00     0.098 A 
HETATM    5  C   UNL     1      25.041  46.141  50.432  1.00  0.00     0.112 A 
HETATM    6  N   UNL     1      24.530  47.054  49.511  1.00  0.00    -0.360 N 
HETATM    7  C   UNL     1      23.374  46.675  48.837  1.00  0.00     0.112 A 
ENDROOT
BRANCH   1   8
HETATM    8  C   UNL     1      21.432  45.238  48.301  1.00  0.00     0.259 C 
HETATM    9  N   UNL     1      20.218  45.857  48.593  1.00  0.00    -0.346 N 
HETATM   10  C   UNL     1      20.051  47.191  49.172  1.00  0.00     0.141 C 
HETATM   11  C   UNL     1      19.055  45.485  47.785  1.00  0.00     0.141 C 
HETATM   12  C   UNL     1      19.928  48.240  48.037  1.00  0.00     0.115 C 
HETATM   13  N   UNL     1      18.795  47.901  47.126  1.00  0.00    -0.278 NA
HETATM   14  C   UNL     1      18.850  46.489  46.633  1.00  0.00     0.115 C 
HETATM   15  O   UNL     1      21.531  44.384  47.419  1.00  0.00    -0.267 OA
BRANCH  13  16
HETATM   16  C   UNL     1      18.510  48.900  46.156  1.00  0.00     0.044 A 
HETATM   17  C   UNL     1      18.158  50.228  46.498  1.00  0.00     0.090 A 
HETATM   18  C   UNL     1      17.931  51.218  45.529  1.00  0.00     0.038 A 
HETATM   19  C   UNL     1      17.980  50.903  44.179  1.00  0.00     0.003 A 
HETATM   20  C   UNL     1      18.264  49.598  43.801  1.00  0.00     0.002 A 
HETATM   21  C   UNL     1      18.523  48.620  44.772  1.00  0.00     0.026 A 
BRANCH  17  22
HETATM   22  O   UNL     1      18.014  50.667  47.793  1.00  0.00    -0.350 OA
BRANCH  22  23
HETATM   23  C   UNL     1      18.524  51.998  47.943  1.00  0.00     0.171 C 
HETATM   24  C   UNL     1      19.915  51.884  48.541  1.00  0.00     0.034 C 
ENDBRANCH  22  23
ENDBRANCH  17  22
ENDBRANCH  13  16
ENDBRANCH   1   8
BRANCH   4  25
HETATM   25  C   UNL     1      25.200  44.088  51.725  1.00  0.00     0.257 C 
HETATM   26  N   UNL     1      26.423  43.631  51.306  1.00  0.00    -0.356 N 
HETATM   27  H   UNL     1      26.723  43.844  50.355  1.00  0.00     0.162 HD
HETATM   28  O   UNL     1      24.729  43.818  52.828  1.00  0.00    -0.267 OA
BRANCH  26  29
HETATM   29  C   UNL     1      27.282  42.822  52.144  1.00  0.00     0.126 C 
BRANCH  29  30
HETATM   30  C   UNL     1      28.518  43.583  52.642  1.00  0.00    -0.005 C 
HETATM   31  C   UNL     1      28.223  44.344  53.936  1.00  0.00     0.011 C 
HETATM   32  C   UNL     1      29.678  42.609  52.861  1.00  0.00     0.011 C 
ENDBRANCH  29  30
ENDBRANCH  26  29
ENDBRANCH   4  25
BRANCH   6  33
HETATM   33  C   UNL     1      25.062  48.438  49.501  1.00  0.00     0.088 C 
HETATM   34  C   UNL     1      26.542  48.589  49.138  1.00  0.00     0.026 C 
HETATM   35  C   UNL     1      26.615  50.006  48.586  1.00  0.00     0.002 C 
HETATM   36  C   UNL     1      25.358  50.112  47.736  1.00  0.00     0.002 C 
HETATM   37  C   UNL     1      24.299  49.319  48.496  1.00  0.00     0.026 C 
ENDBRANCH   6  33
TORSDOF 8
ENDMDL
MODEL 5
REMARK VINA RESULT:      -8.6      1.935      2.988
REMARK  8 active torsions:
REMARK  status: ('A' for Active; 'I' for Inactive)
REMARK    1  A    between atoms: C_2  and  O_3 
REMARK    2  A    between atoms: O_3  and  C_4 
REMARK    3  A    between atoms: C_5  and  N_6 
REMARK       I    between atoms: N_9  and  C_10 
REMARK    4  A    between atoms: C_10  and  C_11 
REMARK    5  A    between atoms: C_14  and  C_15 
REMARK       I    between atoms: C_15  and  N_16 
REMARK    6  A    between atoms: N_16  and  C_17 
REMARK    7  A    between atoms: C_17  and  C_18 
REMARK    8  A    between atoms: N_23  and  C_24 
ROOT
HETATM    1  C   UNL     1      23.232  45.296  49.152  1.00  0.00     0.098 A 
HETATM    2  C   UNL     1      22.743  44.908  47.796  1.00  0.00     0.206 A 
HETATM    3  O   UNL     1      22.919  43.778  47.343  1.00  0.00    -0.286 OA
HETATM    4  C   UNL     1      22.056  45.952  46.982  1.00  0.00     0.098 A 
HETATM    5  C   UNL     1      22.034  47.201  47.480  1.00  0.00     0.112 A 
HETATM    6  N   UNL     1      22.547  47.588  48.717  1.00  0.00    -0.360 N 
HETATM    7  C   UNL     1      23.061  46.575  49.520  1.00  0.00     0.112 A 
ENDROOT
BRANCH   1   8
HETATM    8  C   UNL     1      23.763  44.271  50.090  1.00  0.00     0.259 C 
HETATM    9  N   UNL     1      25.140  44.118  50.233  1.00  0.00    -0.346 N 
HETATM   10  C   UNL     1      26.146  45.165  50.043  1.00  0.00     0.141 C 
HETATM   11  C   UNL     1      25.616  43.095  51.166  1.00  0.00     0.141 C 
HETATM   12  C   UNL     1      26.424  45.872  51.395  1.00  0.00     0.115 C 
HETATM   13  N   UNL     1      26.860  44.884  52.426  1.00  0.00    -0.278 NA
HETATM   14  C   UNL     1      25.930  43.717  52.541  1.00  0.00     0.115 C 
HETATM   15  O   UNL     1      22.962  43.559  50.696  1.00  0.00    -0.267 OA
BRANCH  13  16
HETATM   16  C   UNL     1      27.293  45.471  53.646  1.00  0.00     0.044 A 
HETATM   17  C   UNL     1      28.049  44.768  54.614  1.00  0.00     0.090 A 
HETATM   18  C   UNL     1      28.515  45.375  55.791  1.00  0.00     0.038 A 
HETATM   19  C   UNL     1      28.185  46.692  56.078  1.00  0.00     0.003 A 
HETATM   20  C   UNL     1      27.396  47.400  55.183  1.00  0.00     0.002 A 
HETATM   21  C   UNL     1      26.961  46.799  53.994  1.00  0.00     0.026 A 
BRANCH  17  22
HETATM   22  O   UNL     1      28.399  43.443  54.491  1.00  0.00    -0.350 OA
BRANCH  22  23
HETATM   23  C   UNL     1      29.805  43.304  54.255  1.00  0.00     0.171 C 
HETATM   24  C   UNL     1      29.980  42.858  52.813  1.00  0.00     0.034 C 
ENDBRANCH  22  23
ENDBRANCH  17  22
ENDBRANCH  13  16
ENDBRANCH   1   8
BRANCH   4  25
HETATM   25  C   UNL     1      21.405  45.714  45.662  1.00  0.00     0.257 C 
HETATM   26  N   UNL     1      20.074  45.386  45.710  1.00  0.00    -0.356 N 
HETATM   27  H   UNL     1      19.639  45.247  46.622  1.00  0.00     0.162 HD
HETATM   28  O   UNL     1      22.026  45.830  44.608  1.00  0.00    -0.267 OA
BRANCH  26  29
HETATM   29  C   UNL     1      19.277  45.185  44.518  1.00  0.00     0.126 C 
BRANCH  29  30
HETATM   30  C   UNL     1      18.121  46.187  44.397  1.00  0.00    -0.005 C 
HETATM   31  C   UNL     1      17.331  46.289  45.703  1.00  0.00     0.011 C 
HETATM   32  C   UNL     1      18.662  47.563  44.004  1.00  0.00     0.011 C 
ENDBRANCH  29  30
ENDBRANCH  26  29
ENDBRANCH   4  25
BRANCH   6  33
HETATM   33  C   UNL     1      22.762  49.030  48.987  1.00  0.00     0.088 C 
HETATM   34  C   UNL     1      23.493  49.818  47.896  1.00  0.00     0.026 C 
HETATM   35  C   UNL     1      23.000  51.241  48.116  1.00  0.00     0.002 C 
HETATM   36  C   UNL     1      21.516  51.055  48.395  1.00  0.00     0.002 C 
HETATM   37  C   UNL     1      21.425  49.761  49.199  1.00  0.00     0.026 C 
ENDBRANCH   6  33
TORSDOF 8
ENDMDL
MODEL 6
REMARK VINA RESULT:      -8.6      2.476      9.303
REMARK  8 active torsions:
REMARK  status: ('A' for Active; 'I' for Inactive)
REMARK    1  A    between atoms: C_2  and  O_3 
REMARK    2  A    between atoms: O_3  and  C_4 
REMARK    3  A    between atoms: C_5  and  N_6 
REMARK       I    between atoms: N_9  and  C_10 
REMARK    4  A    between atoms: C_10  and  C_11 
REMARK    5  A    between atoms: C_14  and  C_15 
REMARK       I    between atoms: C_15  and  N_16 
REMARK    6  A    between atoms: N_16  and  C_17 
REMARK    7  A    between atoms: C_17  and  C_18 
REMARK    8  A    between atoms: N_23  and  C_24 
ROOT
HETATM    1  C   UNL     1      22.688  45.437  48.225  1.00  0.00     0.098 A 
HETATM    2  C   UNL     1      23.459  46.319  49.151  1.00  0.00     0.206 A 
HETATM    3  O   UNL     1      23.485  47.541  49.009  1.00  0.00    -0.286 OA
HETATM    4  C   UNL     1      24.234  45.666  50.245  1.00  0.00     0.098 A 
HETATM    5  C   UNL     1      24.280  44.322  50.245  1.00  0.00     0.112 A 
HETATM    6  N   UNL     1      23.617  43.489  49.345  1.00  0.00    -0.360 N 
HETATM    7  C   UNL     1      22.790  44.113  48.416  1.00  0.00     0.112 A 
ENDROOT
BRANCH   1   8
HETATM    8  C   UNL     1      21.752  46.018  47.226  1.00  0.00     0.259 C 
HETATM    9  N   UNL     1      20.404  46.162  47.549  1.00  0.00    -0.346 N 
HETATM   10  C   UNL     1      19.858  46.360  48.893  1.00  0.00     0.141 C 
HETATM   11  C   UNL     1      19.520  46.736  46.532  1.00  0.00     0.141 C 
HETATM   12  C   UNL     1      19.744  47.877  49.190  1.00  0.00     0.115 C 
HETATM   13  N   UNL     1      18.902  48.554  48.159  1.00  0.00    -0.278 NA
HETATM   14  C   UNL     1      19.341  48.250  46.761  1.00  0.00     0.115 C 
HETATM   15  O   UNL     1      22.193  46.330  46.120  1.00  0.00    -0.267 OA
BRANCH  13  16
HETATM   16  C   UNL     1      18.611  49.915  48.450  1.00  0.00     0.044 A 
HETATM   17  C   UNL     1      19.562  50.954  48.306  1.00  0.00     0.090 A 
HETATM   18  C   UNL     1      19.246  52.300  48.546  1.00  0.00     0.038 A 
HETATM   19  C   UNL     1      17.985  52.654  49.005  1.00  0.00     0.003 A 
HETATM   20  C   UNL     1      17.041  51.660  49.214  1.00  0.00     0.002 A 
HETATM   21  C   UNL     1      17.351  50.320  48.942  1.00  0.00     0.026 A 
BRANCH  17  22
HETATM   22  O   UNL     1      20.865  50.744  47.918  1.00  0.00    -0.350 OA
BRANCH  22  23
HETATM   23  C   UNL     1      21.764  50.932  49.017  1.00  0.00     0.171 C 
HETATM   24  C   UNL     1      23.173  50.954  48.450  1.00  0.00     0.034 C 
ENDBRANCH  22  23
ENDBRANCH  17  22
ENDBRANCH  13  16
ENDBRANCH   1   8
BRANCH   4  25
HETATM   25  C   UNL     1      24.963  46.390  51.325  1.00  0.00     0.257 C 
HETATM   26  N   UNL     1      25.296  45.637  52.421  1.00  0.00    -0.356 N 
HETATM   27  H   UNL     1      24.963  44.674  52.470  1.00  0.00     0.162 HD
HETATM   28  O   UNL     1      25.259  47.578  51.216  1.00  0.00    -0.267 OA
BRANCH  26  29
HETATM   29  C   UNL     1      26.059  46.169  53.531  1.00  0.00     0.126 C 
BRANCH  29  30
HETATM   30  C   UNL     1      26.728  45.075  54.373  1.00  0.00    -0.005 C 
HETATM   31  C   UNL     1      26.556  43.695  53.737  1.00  0.00     0.011 C 
HETATM   32  C   UNL     1      28.215  45.388  54.550  1.00  0.00     0.011 C 
ENDBRANCH  29  30
ENDBRANCH  26  29
ENDBRANCH   4  25
BRANCH   6  33
HETATM   33  C   UNL     1      24.024  42.067  49.247  1.00  0.00     0.088 C 
HETATM   34  C   UNL     1      24.492  41.591  47.869  1.00  0.00     0.026 C 
HETATM   35  C   UNL     1      25.405  40.420  48.204  1.00  0.00     0.002 C 
HETATM   36  C   UNL     1      26.185  40.922  49.409  1.00  0.00     0.002 C 
HETATM   37  C   UNL     1      25.186  41.755  50.208  1.00  0.00     0.026 C 
ENDBRANCH   6  33
TORSDOF 8
ENDMDL
MODEL 7
REMARK VINA RESULT:      -8.5      3.424      5.733
REMARK  8 active torsions:
REMARK  status: ('A' for Active; 'I' for Inactive)
REMARK    1  A    between atoms: C_2  and  O_3 
REMARK    2  A    between atoms: O_3  and  C_4 
REMARK    3  A    between atoms: C_5  and  N_6 
REMARK       I    between atoms: N_9  and  C_10 
REMARK    4  A    between atoms: C_10  and  C_11 
REMARK    5  A    between atoms: C_14  and  C_15 
REMARK       I    between atoms: C_15  and  N_16 
REMARK    6  A    between atoms: N_16  and  C_17 
REMARK    7  A    between atoms: C_17  and  C_18 
REMARK    8  A    between atoms: N_23  and  C_24 
ROOT
HETATM    1  C   UNL     1      25.763  44.472  50.533  1.00  0.00     0.098 A 
HETATM    2  C   UNL     1      24.410  44.135  49.998  1.00  0.00     0.206 A 
HETATM    3  O   UNL     1      23.410  44.777  50.317  1.00  0.00    -0.286 OA
HETATM    4  C   UNL     1      24.299  42.965  49.081  1.00  0.00     0.098 A 
HETATM    5  C   UNL     1      25.406  42.223  48.898  1.00  0.00     0.112 A 
HETATM    6  N   UNL     1      26.660  42.490  49.446  1.00  0.00    -0.360 N 
HETATM    7  C   UNL     1      26.775  43.661  50.188  1.00  0.00     0.112 A 
ENDROOT
BRANCH   1   8
HETATM    8  C   UNL     1      25.985  45.724  51.305  1.00  0.00     0.259 C 
HETATM    9  N   UNL     1      25.585  45.789  52.638  1.00  0.00    -0.346 N 
HETATM   10  C   UNL     1      25.497  44.661  53.566  1.00  0.00     0.141 C 
HETATM   11  C   UNL     1      25.822  47.044  53.356  1.00  0.00     0.141 C 
HETATM   12  C   UNL     1      26.840  44.506  54.327  1.00  0.00     0.115 C 
HETATM   13  N   UNL     1      27.188  45.769  55.043  1.00  0.00    -0.278 NA
HETATM   14  C   UNL     1      27.139  46.972  54.154  1.00  0.00     0.115 C 
HETATM   15  O   UNL     1      26.491  46.686  50.729  1.00  0.00    -0.267 OA
BRANCH  13  16
HETATM   16  C   UNL     1      28.318  45.659  55.898  1.00  0.00     0.044 A 
HETATM   17  C   UNL     1      29.535  45.059  55.493  1.00  0.00     0.090 A 
HETATM   18  C   UNL     1      30.660  45.004  56.331  1.00  0.00     0.038 A 
HETATM   19  C   UNL     1      30.593  45.487  57.629  1.00  0.00     0.003 A 
HETATM   20  C   UNL     1      29.401  46.031  58.085  1.00  0.00     0.002 A 
HETATM   21  C   UNL     1      28.289  46.113  57.234  1.00  0.00     0.026 A 
BRANCH  17  22
HETATM   22  O   UNL     1      29.727  44.487  54.257  1.00  0.00    -0.350 OA
BRANCH  22  23
HETATM   23  C   UNL     1      30.235  43.153  54.383  1.00  0.00     0.171 C 
HETATM   24  C   UNL     1      29.906  42.421  53.094  1.00  0.00     0.034 C 
ENDBRANCH  22  23
ENDBRANCH  17  22
ENDBRANCH  13  16
ENDBRANCH   1   8
BRANCH   4  25
HETATM   25  C   UNL     1      23.057  42.555  48.365  1.00  0.00     0.257 C 
HETATM   26  N   UNL     1      22.541  43.484  47.498  1.00  0.00    -0.356 N 
HETATM   27  H   UNL     1      22.976  44.406  47.456  1.00  0.00     0.162 HD
HETATM   28  O   UNL     1      22.553  41.448  48.534  1.00  0.00    -0.267 OA
BRANCH  26  29
HETATM   29  C   UNL     1      21.377  43.224  46.679  1.00  0.00     0.126 C 
BRANCH  29  30
HETATM   30  C   UNL     1      21.696  43.203  45.178  1.00  0.00    -0.005 C 
HETATM   31  C   UNL     1      22.211  44.561  44.697  1.00  0.00     0.011 C 
HETATM   32  C   UNL     1      22.731  42.116  44.880  1.00  0.00     0.011 C 
ENDBRANCH  29  30
ENDBRANCH  26  29
ENDBRANCH   4  25
BRANCH   6  33
HETATM   33  C   UNL     1      27.687  41.421  49.445  1.00  0.00     0.088 C 
HETATM   34  C   UNL     1      27.472  40.278  50.440  1.00  0.00     0.026 C 
HETATM   35  C   UNL     1      28.217  39.119  49.793  1.00  0.00     0.002 C 
HETATM   36  C   UNL     1      27.853  39.250  48.322  1.00  0.00     0.002 C 
HETATM   37  C   UNL     1      27.792  40.753  48.063  1.00  0.00     0.026 C 
ENDBRANCH   6  33
TORSDOF 8
ENDMDL
MODEL 8
REMARK VINA RESULT:      -8.3      2.586      5.903
REMARK  8 active torsions:
REMARK  status: ('A' for Active; 'I' for Inactive)
REMARK    1  A    between atoms: C_2  and  O_3 
REMARK    2  A    between atoms: O_3  and  C_4 
REMARK    3  A    between atoms: C_5  and  N_6 
REMARK       I    between atoms: N_9  and  C_10 
REMARK    4  A    between atoms: C_10  and  C_11 
REMARK    5  A    between atoms: C_14  and  C_15 
REMARK       I    between atoms: C_15  and  N_16 
REMARK    6  A    between atoms: N_16  and  C_17 
REMARK    7  A    between atoms: C_17  and  C_18 
REMARK    8  A    between atoms: N_23  and  C_24 
ROOT
HETATM    1  C   UNL     1      23.935  44.979  49.145  1.00  0.00     0.098 A 
HETATM    2  C   UNL     1      24.603  43.735  48.661  1.00  0.00     0.206 A 
HETATM    3  O   UNL     1      25.800  43.525  48.855  1.00  0.00    -0.286 OA
HETATM    4  C   UNL     1      23.777  42.757  47.896  1.00  0.00     0.098 A 
HETATM    5  C   UNL     1      22.518  43.123  47.594  1.00  0.00     0.112 A 
HETATM    6  N   UNL     1      21.905  44.313  47.984  1.00  0.00    -0.360 N 
HETATM    7  C   UNL     1      22.647  45.150  48.811  1.00  0.00     0.112 A 
ENDROOT
BRANCH   1   8
HETATM    8  C   UNL     1      24.641  45.913  50.063  1.00  0.00     0.259 C 
HETATM    9  N   UNL     1      24.646  45.657  51.432  1.00  0.00    -0.346 N 
HETATM   10  C   UNL     1      24.557  44.338  52.061  1.00  0.00     0.141 C 
HETATM   11  C   UNL     1      25.351  46.606  52.297  1.00  0.00     0.141 C 
HETATM   12  C   UNL     1      25.983  43.774  52.292  1.00  0.00     0.115 C 
HETATM   13  N   UNL     1      26.794  44.714  53.121  1.00  0.00    -0.278 NA
HETATM   14  C   UNL     1      26.783  46.113  52.589  1.00  0.00     0.115 C 
HETATM   15  O   UNL     1      25.179  46.911  49.585  1.00  0.00    -0.267 OA
BRANCH  13  16
HETATM   16  C   UNL     1      28.057  44.198  53.517  1.00  0.00     0.044 A 
HETATM   17  C   UNL     1      28.624  44.439  54.792  1.00  0.00     0.090 A 
HETATM   18  C   UNL     1      29.848  43.879  55.188  1.00  0.00     0.038 A 
HETATM   19  C   UNL     1      30.588  43.111  54.302  1.00  0.00     0.003 A 
HETATM   20  C   UNL     1      30.097  42.897  53.022  1.00  0.00     0.002 A 
HETATM   21  C   UNL     1      28.857  43.431  52.642  1.00  0.00     0.026 A 
BRANCH  17  22
HETATM   22  O   UNL     1      28.032  45.229  55.750  1.00  0.00    -0.350 OA
BRANCH  22  23
HETATM   23  C   UNL     1      28.750  46.457  55.917  1.00  0.00     0.171 C 
HETATM   24  C   UNL     1      27.930  47.555  55.262  1.00  0.00     0.034 C 
ENDBRANCH  22  23
ENDBRANCH  17  22
ENDBRANCH  13  16
ENDBRANCH   1   8
BRANCH   4  25
HETATM   25  C   UNL     1      24.244  41.417  47.439  1.00  0.00     0.257 C 
HETATM   26  N   UNL     1      25.510  41.380  46.913  1.00  0.00    -0.356 N 
HETATM   27  H   UNL     1      26.013  42.259  46.792  1.00  0.00     0.162 HD
HETATM   28  O   UNL     1      23.539  40.417  47.553  1.00  0.00    -0.267 OA
BRANCH  26  29
HETATM   29  C   UNL     1      26.139  40.150  46.480  1.00  0.00     0.126 C 
BRANCH  29  30
HETATM   30  C   UNL     1      27.209  39.651  47.461  1.00  0.00    -0.005 C 
HETATM   31  C   UNL     1      28.101  38.586  46.820  1.00  0.00     0.011 C 
HETATM   32  C   UNL     1      28.062  40.825  47.945  1.00  0.00     0.011 C 
ENDBRANCH  29  30
ENDBRANCH  26  29
ENDBRANCH   4  25
BRANCH   6  33
HETATM   33  C   UNL     1      20.657  44.735  47.304  1.00  0.00     0.088 C 
HETATM   34  C   UNL     1      19.841  45.823  48.006  1.00  0.00     0.026 C 
HETATM   35  C   UNL     1      19.080  46.472  46.859  1.00  0.00     0.002 C 
HETATM   36  C   UNL     1      20.122  46.557  45.754  1.00  0.00     0.002 C 
HETATM   37  C   UNL     1      20.951  45.283  45.896  1.00  0.00     0.026 C 
ENDBRANCH   6  33
TORSDOF 8
ENDMDL
MODEL 9
REMARK VINA RESULT:      -8.3     19.537     22.244
REMARK  8 active torsions:
REMARK  status: ('A' for Active; 'I' for Inactive)
REMARK    1  A    between atoms: C_2  and  O_3 
REMARK    2  A    between atoms: O_3  and  C_4 
REMARK    3  A    between atoms: C_5  and  N_6 
REMARK       I    between atoms: N_9  and  C_10 
REMARK    4  A    between atoms: C_10  and  C_11 
REMARK    5  A    between atoms: C_14  and  C_15 
REMARK       I    between atoms: C_15  and  N_16 
REMARK    6  A    between atoms: N_16  and  C_17 
REMARK    7  A    between atoms: C_17  and  C_18 
REMARK    8  A    between atoms: N_23  and  C_24 
ROOT
HETATM    1  C   UNL     1      38.415  44.286  64.289  1.00  0.00     0.098 A 
HETATM    2  C   UNL     1      38.401  42.803  64.115  1.00  0.00     0.206 A 
HETATM    3  O   UNL     1      37.400  42.132  64.363  1.00  0.00    -0.286 OA
HETATM    4  C   UNL     1      39.660  42.146  63.660  1.00  0.00     0.098 A 
HETATM    5  C   UNL     1      40.753  42.923  63.555  1.00  0.00     0.112 A 
HETATM    6  N   UNL     1      40.793  44.299  63.779  1.00  0.00    -0.360 N 
HETATM    7  C   UNL     1      39.580  44.915  64.070  1.00  0.00     0.112 A 
ENDROOT
BRANCH   1   8
HETATM    8  C   UNL     1      37.158  45.031  64.565  1.00  0.00     0.259 C 
HETATM    9  N   UNL     1      36.867  45.430  65.867  1.00  0.00    -0.346 N 
HETATM   10  C   UNL     1      37.846  45.734  66.912  1.00  0.00     0.141 C 
HETATM   11  C   UNL     1      35.616  46.158  66.091  1.00  0.00     0.141 C 
HETATM   12  C   UNL     1      38.186  47.247  66.884  1.00  0.00     0.115 C 
HETATM   13  N   UNL     1      36.950  48.068  67.046  1.00  0.00    -0.278 NA
HETATM   14  C   UNL     1      35.866  47.680  66.089  1.00  0.00     0.115 C 
HETATM   15  O   UNL     1      36.387  45.247  63.630  1.00  0.00    -0.267 OA
BRANCH  13  16
HETATM   16  C   UNL     1      37.193  49.460  67.196  1.00  0.00     0.044 A 
HETATM   17  C   UNL     1      36.881  50.174  68.378  1.00  0.00     0.090 A 
HETATM   18  C   UNL     1      37.175  51.538  68.532  1.00  0.00     0.038 A 
HETATM   19  C   UNL     1      37.730  52.258  67.484  1.00  0.00     0.003 A 
HETATM   20  C   UNL     1      37.998  51.610  66.287  1.00  0.00     0.002 A 
HETATM   21  C   UNL     1      37.733  50.240  66.150  1.00  0.00     0.026 A 
BRANCH  17  22
HETATM   22  O   UNL     1      36.275  49.604  69.473  1.00  0.00    -0.350 OA
BRANCH  22  23
HETATM   23  C   UNL     1      34.881  49.933  69.517  1.00  0.00     0.171 C 
HETATM   24  C   UNL     1      34.106  48.648  69.281  1.00  0.00     0.034 C 
ENDBRANCH  22  23
ENDBRANCH  17  22
ENDBRANCH  13  16
ENDBRANCH   1   8
BRANCH   4  25
HETATM   25  C   UNL     1      39.796  40.700  63.324  1.00  0.00     0.257 C 
HETATM   26  N   UNL     1      40.529  39.953  64.210  1.00  0.00    -0.356 N 
HETATM   27  H   UNL     1      40.994  40.431  64.982  1.00  0.00     0.162 HD
HETATM   28  O   UNL     1      39.263  40.219  62.327  1.00  0.00    -0.267 OA
BRANCH  26  29
HETATM   29  C   UNL     1      40.705  38.524  64.066  1.00  0.00     0.126 C 
BRANCH  29  30
HETATM   30  C   UNL     1      40.471  37.759  65.376  1.00  0.00    -0.005 C 
HETATM   31  C   UNL     1      41.497  36.639  65.561  1.00  0.00     0.011 C 
HETATM   32  C   UNL     1      40.531  38.724  66.562  1.00  0.00     0.011 C 
ENDBRANCH  29  30
ENDBRANCH  26  29
ENDBRANCH   4  25
BRANCH   6  33
HETATM   33  C   UNL     1      42.108  44.959  63.964  1.00  0.00     0.088 C 
HETATM   34  C   UNL     1      42.071  46.419  64.423  1.00  0.00     0.026 C 
HETATM   35  C   UNL     1      43.412  46.590  65.122  1.00  0.00     0.002 C 
HETATM   36  C   UNL     1      43.563  45.295  65.906  1.00  0.00     0.002 C 
HETATM   37  C   UNL     1      42.960  44.218  65.009  1.00  0.00     0.026 C 
ENDBRANCH   6  33
TORSDOF 8
ENDMDL
MODEL 10
REMARK VINA RESULT:      -8.3      3.383      8.644
REMARK  8 active torsions:
REMARK  status: ('A' for Active; 'I' for Inactive)
REMARK    1  A    between atoms: C_2  and  O_3 
REMARK    2  A    between atoms: O_3  and  C_4 
REMARK    3  A    between atoms: C_5  and  N_6 
REMARK       I    between atoms: N_9  and  C_10 
REMARK    4  A    between atoms: C_10  and  C_11 
REMARK    5  A    between atoms: C_14  and  C_15 
REMARK       I    between atoms: C_15  and  N_16 
REMARK    6  A    between atoms: N_16  and  C_17 
REMARK    7  A    between atoms: C_17  and  C_18 
REMARK    8  A    between atoms: N_23  and  C_24 
ROOT
HETATM    1  C   UNL     1      25.615  44.717  50.466  1.00  0.00     0.098 A 
HETATM    2  C   UNL     1      26.026  44.864  51.894  1.00  0.00     0.206 A 
HETATM    3  O   UNL     1      26.417  43.905  52.557  1.00  0.00    -0.286 OA
HETATM    4  C   UNL     1      25.915  46.217  52.511  1.00  0.00     0.098 A 
HETATM    5  C   UNL     1      25.338  47.182  51.772  1.00  0.00     0.112 A 
HETATM    6  N   UNL     1      24.890  47.038  50.460  1.00  0.00    -0.360 N 
HETATM    7  C   UNL     1      25.126  45.808  49.855  1.00  0.00     0.112 A 
ENDROOT
BRANCH   1   8
HETATM    8  C   UNL     1      25.864  43.449  49.730  1.00  0.00     0.259 C 
HETATM    9  N   UNL     1      24.914  42.431  49.775  1.00  0.00    -0.346 N 
HETATM   10  C   UNL     1      23.472  42.608  49.956  1.00  0.00     0.141 C 
HETATM   11  C   UNL     1      25.204  41.199  49.037  1.00  0.00     0.141 C 
HETATM   12  C   UNL     1      22.784  42.730  48.571  1.00  0.00     0.115 C 
HETATM   13  N   UNL     1      23.080  41.534  47.728  1.00  0.00    -0.278 NA
HETATM   14  C   UNL     1      24.543  41.231  47.645  1.00  0.00     0.115 C 
HETATM   15  O   UNL     1      26.927  43.321  49.124  1.00  0.00    -0.267 OA
BRANCH  13  16
HETATM   16  C   UNL     1      22.354  41.490  46.507  1.00  0.00     0.044 A 
HETATM   17  C   UNL     1      21.171  40.730  46.340  1.00  0.00     0.090 A 
HETATM   18  C   UNL     1      20.436  40.738  45.145  1.00  0.00     0.038 A 
HETATM   19  C   UNL     1      20.890  41.452  44.046  1.00  0.00     0.003 A 
HETATM   20  C   UNL     1      22.076  42.164  44.148  1.00  0.00     0.002 A 
HETATM   21  C   UNL     1      22.791  42.180  45.355  1.00  0.00     0.026 A 
BRANCH  17  22
HETATM   22  O   UNL     1      20.637  39.930  47.323  1.00  0.00    -0.350 OA
BRANCH  22  23
HETATM   23  C   UNL     1      20.853  38.545  47.030  1.00  0.00     0.171 C 
HETATM   24  C   UNL     1      19.579  37.801  47.391  1.00  0.00     0.034 C 
ENDBRANCH  22  23
ENDBRANCH  17  22
ENDBRANCH  13  16
ENDBRANCH   1   8
BRANCH   4  25
HETATM   25  C   UNL     1      26.385  46.573  53.880  1.00  0.00     0.257 C 
HETATM   26  N   UNL     1      27.575  46.007  54.262  1.00  0.00    -0.356 N 
HETATM   27  H   UNL     1      28.015  45.331  53.638  1.00  0.00     0.162 HD
HETATM   28  O   UNL     1      25.750  47.340  54.599  1.00  0.00    -0.267 OA
BRANCH  26  29
HETATM   29  C   UNL     1      28.203  46.296  55.533  1.00  0.00     0.126 C 
BRANCH  29  30
HETATM   30  C   UNL     1      29.145  45.179  56.001  1.00  0.00    -0.005 C 
HETATM   31  C   UNL     1      29.423  44.176  54.880  1.00  0.00     0.011 C 
HETATM   32  C   UNL     1      30.460  45.780  56.503  1.00  0.00     0.011 C 
ENDBRANCH  29  30
ENDBRANCH  26  29
ENDBRANCH   4  25
BRANCH   6  33
HETATM   33  C   UNL     1      23.978  48.062  49.895  1.00  0.00     0.088 C 
HETATM   34  C   UNL     1      24.599  49.040  48.894  1.00  0.00     0.026 C 
HETATM   35  C   UNL     1      23.405  49.472  48.055  1.00  0.00     0.002 C 
HETATM   36  C   UNL     1      22.640  48.174  47.846  1.00  0.00     0.002 C 
HETATM   37  C   UNL     1      22.798  47.407  49.155  1.00  0.00     0.026 C 
ENDBRANCH   6  33
TORSDOF 8
ENDMDL
