MODEL 1
REMARK VINA RESULT:     -10.2      0.000      0.000
REMARK  3 active torsions:
REMARK  status: ('A' for Active; 'I' for Inactive)
REMARK    1  A    between atoms: C_5  and  C_6 
REMARK    2  A    between atoms: C_10  and  C_11 
REMARK       I    between atoms: C_11  and  N_12 
REMARK    3  A    between atoms: N_12  and  N_13 
ROOT
HETATM    1  C   UNL     1      26.303  45.407  50.516  1.00  0.00     0.289 C 
HETATM    2  N   UNL     1      26.236  45.079  51.861  1.00  0.00    -0.241 N 
HETATM    3  O   UNL     1      27.263  45.151  49.792  1.00  0.00    -0.264 OA
HETATM    4  H   UNL     1      25.419  45.329  52.416  1.00  0.00     0.192 HD
ENDROOT
BRANCH   1   5
HETATM    5  C   UNL     1      25.148  46.098  50.003  1.00  0.00     0.121 A 
HETATM    6  N   UNL     1      24.230  45.451  49.224  1.00  0.00    -0.272 N 
HETATM    7  N   UNL     1      23.225  46.226  48.797  1.00  0.00    -0.174 NA
HETATM    8  H   UNL     1      24.254  44.474  48.947  1.00  0.00     0.189 HD
HETATM    9  C   UNL     1      23.473  47.432  49.333  1.00  0.00     0.089 A 
HETATM   10  C   UNL     1      24.674  47.392  50.099  1.00  0.00     0.071 A 
BRANCH   9  11
HETATM   11  C   UNL     1      22.583  48.574  49.096  1.00  0.00    -0.006 A 
HETATM   12  C   UNL     1      21.199  48.402  48.961  1.00  0.00     0.014 A 
HETATM   13  C   UNL     1      20.361  49.501  48.739  1.00  0.00     0.007 A 
HETATM   14  C   UNL     1      20.890  50.791  48.640  1.00  0.00    -0.062 A 
HETATM   15  C   UNL     1      19.997  51.977  48.432  1.00  0.00     0.048 C 
HETATM   16  C   UNL     1      22.270  50.970  48.784  1.00  0.00     0.007 A 
HETATM   17  C   UNL     1      23.106  49.871  49.002  1.00  0.00     0.014 A 
ENDBRANCH   9  11
ENDBRANCH   1   5
BRANCH   2  18
HETATM   18  N   UNL     1      27.286  44.453  52.475  1.00  0.00    -0.165 NA
HETATM   19  C   UNL     1      27.742  45.008  53.552  1.00  0.00     0.157 A 
HETATM   20  C   UNL     1      27.257  46.284  54.246  1.00  0.00     0.277 A 
HETATM   21  C   UNL     1      28.855  44.516  54.355  1.00  0.00     0.027 A 
HETATM   22  O   UNL     1      26.336  46.972  53.857  1.00  0.00    -0.266 OA
HETATM   23  N   UNL     1      28.073  46.444  55.343  1.00  0.00    -0.321 N 
HETATM   24  C   UNL     1      29.010  45.414  55.411  1.00  0.00     0.048 A 
HETATM   25  H   UNL     1      27.990  47.210  55.994  1.00  0.00     0.169 HD
HETATM   26  C   UNL     1      29.993  45.236  56.361  1.00  0.00     0.030 A 
HETATM   27  C   UNL     1      30.826  44.118  56.221  1.00  0.00     0.002 A 
HETATM   28  C   UNL     1      30.663  43.215  55.148  1.00  0.00     0.001 A 
HETATM   29  C   UNL     1      29.662  43.410  54.195  1.00  0.00     0.016 A 
ENDBRANCH   2  18
TORSDOF 3
ENDMDL
MODEL 2
REMARK VINA RESULT:     -10.0      1.743      9.528
REMARK  3 active torsions:
REMARK  status: ('A' for Active; 'I' for Inactive)
REMARK    1  A    between atoms: C_5  and  C_6 
REMARK    2  A    between atoms: C_10  and  C_11 
REMARK       I    between atoms: C_11  and  N_12 
REMARK    3  A    between atoms: N_12  and  N_13 
ROOT
HETATM    1  C   UNL     1      24.948  45.034  51.467  1.00  0.00     0.289 C 
HETATM    2  N   UNL     1      25.029  46.021  50.499  1.00  0.00    -0.241 N 
HETATM    3  O   UNL     1      23.900  44.493  51.814  1.00  0.00    -0.264 OA
HETATM    4  H   UNL     1      25.926  46.443  50.262  1.00  0.00     0.192 HD
ENDROOT
BRANCH   1   5
HETATM    5  C   UNL     1      26.205  44.674  52.072  1.00  0.00     0.121 A 
HETATM    6  N   UNL     1      27.151  43.981  51.371  1.00  0.00    -0.272 N 
HETATM    7  N   UNL     1      28.255  43.692  52.070  1.00  0.00    -0.174 NA
HETATM    8  H   UNL     1      27.080  43.670  50.406  1.00  0.00     0.189 HD
HETATM    9  C   UNL     1      28.045  44.237  53.280  1.00  0.00     0.089 A 
HETATM   10  C   UNL     1      26.766  44.864  53.320  1.00  0.00     0.071 A 
BRANCH   9  11
HETATM   11  C   UNL     1      29.045  44.138  54.349  1.00  0.00    -0.006 A 
HETATM   12  C   UNL     1      29.911  43.040  54.436  1.00  0.00     0.014 A 
HETATM   13  C   UNL     1      30.863  42.960  55.459  1.00  0.00     0.007 A 
HETATM   14  C   UNL     1      30.962  43.972  56.419  1.00  0.00    -0.062 A 
HETATM   15  C   UNL     1      31.998  43.908  57.502  1.00  0.00     0.048 C 
HETATM   16  C   UNL     1      30.107  45.074  56.332  1.00  0.00     0.007 A 
HETATM   17  C   UNL     1      29.154  45.151  55.311  1.00  0.00     0.014 A 
ENDBRANCH   9  11
ENDBRANCH   1   5
BRANCH   2  18
HETATM   18  N   UNL     1      23.899  46.476  49.876  1.00  0.00    -0.165 NA
HETATM   19  C   UNL     1      23.950  47.671  49.383  1.00  0.00     0.157 A 
HETATM   20  C   UNL     1      25.121  48.659  49.397  1.00  0.00     0.277 A 
HETATM   21  C   UNL     1      22.863  48.352  48.690  1.00  0.00     0.027 A 
HETATM   22  O   UNL     1      26.205  48.436  49.895  1.00  0.00    -0.266 OA
HETATM   23  N   UNL     1      24.664  49.786  48.751  1.00  0.00    -0.321 N 
HETATM   24  C   UNL     1      23.345  49.612  48.337  1.00  0.00     0.048 A 
HETATM   25  H   UNL     1      25.223  50.614  48.610  1.00  0.00     0.169 HD
HETATM   26  C   UNL     1      22.551  50.516  47.664  1.00  0.00     0.030 A 
HETATM   27  C   UNL     1      21.244  50.117  47.352  1.00  0.00     0.002 A 
HETATM   28  C   UNL     1      20.765  48.839  47.715  1.00  0.00     0.001 A 
HETATM   29  C   UNL     1      21.582  47.936  48.396  1.00  0.00     0.016 A 
ENDBRANCH   2  18
TORSDOF 3
ENDMDL
MODEL 3
REMARK VINA RESULT:      -9.6      1.915      9.440
REMARK  3 active torsions:
REMARK  status: ('A' for Active; 'I' for Inactive)
REMARK    1  A    between atoms: C_5  and  C_6 
REMARK    2  A    between atoms: C_10  and  C_11 
REMARK       I    between atoms: C_11  and  N_12 
REMARK    3  A    between atoms: N_12  and  N_13 
ROOT
HETATM    1  C   UNL     1      24.966  44.120  50.919  1.00  0.00     0.289 C 
HETATM    2  N   UNL     1      24.989  45.049  49.892  1.00  0.00    -0.241 N 
HETATM    3  O   UNL     1      23.977  43.459  51.229  1.00  0.00    -0.264 OA
HETATM    4  H   UNL     1      25.836  45.577  49.689  1.00  0.00     0.192 HD
ENDROOT
BRANCH   1   5
HETATM    5  C   UNL     1      26.209  43.977  51.635  1.00  0.00     0.121 A 
HETATM    6  N   UNL     1      27.305  43.420  51.037  1.00  0.00    -0.272 N 
HETATM    7  N   UNL     1      28.378  43.327  51.832  1.00  0.00    -0.174 NA
HETATM    8  H   UNL     1      27.363  43.075  50.084  1.00  0.00     0.189 HD
HETATM    9  C   UNL     1      27.988  43.866  52.998  1.00  0.00     0.089 A 
HETATM   10  C   UNL     1      26.629  44.287  52.914  1.00  0.00     0.071 A 
BRANCH   9  11
HETATM   11  C   UNL     1      28.898  43.953  54.145  1.00  0.00    -0.006 A 
HETATM   12  C   UNL     1      29.830  42.942  54.414  1.00  0.00     0.014 A 
HETATM   13  C   UNL     1      30.696  43.040  55.509  1.00  0.00     0.007 A 
HETATM   14  C   UNL     1      30.641  44.147  56.361  1.00  0.00    -0.062 A 
HETATM   15  C   UNL     1      31.584  44.275  57.521  1.00  0.00     0.048 C 
HETATM   16  C   UNL     1      29.720  45.165  56.093  1.00  0.00     0.007 A 
HETATM   17  C   UNL     1      28.854  45.063  55.000  1.00  0.00     0.014 A 
ENDBRANCH   9  11
ENDBRANCH   1   5
BRANCH   2  18
HETATM   18  N   UNL     1      23.861  45.302  49.161  1.00  0.00    -0.165 NA
HETATM   19  C   UNL     1      23.407  46.513  49.196  1.00  0.00     0.157 A 
HETATM   20  C   UNL     1      23.971  47.721  49.951  1.00  0.00     0.277 A 
HETATM   21  C   UNL     1      22.219  46.996  48.503  1.00  0.00     0.027 A 
HETATM   22  O   UNL     1      24.966  47.696  50.645  1.00  0.00    -0.266 OA
HETATM   23  N   UNL     1      23.122  48.767  49.666  1.00  0.00    -0.321 N 
HETATM   24  C   UNL     1      22.096  48.348  48.821  1.00  0.00     0.048 A 
HETATM   25  H   UNL     1      23.243  49.700  50.031  1.00  0.00     0.169 HD
HETATM   26  C   UNL     1      21.058  49.107  48.322  1.00  0.00     0.030 A 
HETATM   27  C   UNL     1      20.136  48.463  47.486  1.00  0.00     0.002 A 
HETATM   28  C   UNL     1      20.268  47.094  47.170  1.00  0.00     0.001 A 
HETATM   29  C   UNL     1      21.325  46.340  47.684  1.00  0.00     0.016 A 
ENDBRANCH   2  18
TORSDOF 3
ENDMDL
MODEL 4
REMARK VINA RESULT:      -9.6      2.202      9.433
REMARK  3 active torsions:
REMARK  status: ('A' for Active; 'I' for Inactive)
REMARK    1  A    between atoms: C_5  and  C_6 
REMARK    2  A    between atoms: C_10  and  C_11 
REMARK       I    between atoms: C_11  and  N_12 
REMARK    3  A    between atoms: N_12  and  N_13 
ROOT
HETATM    1  C   UNL     1      24.290  44.884  48.943  1.00  0.00     0.289 C 
HETATM    2  N   UNL     1      23.667  45.995  49.486  1.00  0.00    -0.241 N 
HETATM    3  O   UNL     1      23.918  44.317  47.918  1.00  0.00    -0.264 OA
HETATM    4  H   UNL     1      24.013  46.415  50.348  1.00  0.00     0.192 HD
ENDROOT
BRANCH   1   5
HETATM    5  C   UNL     1      25.432  44.408  49.683  1.00  0.00     0.121 A 
HETATM    6  N   UNL     1      26.278  43.477  49.149  1.00  0.00    -0.272 N 
HETATM    7  N   UNL     1      27.277  43.109  49.962  1.00  0.00    -0.174 NA
HETATM    8  H   UNL     1      26.206  43.052  48.230  1.00  0.00     0.189 HD
HETATM    9  C   UNL     1      27.101  43.843  51.073  1.00  0.00     0.089 A 
HETATM   10  C   UNL     1      25.950  44.673  50.936  1.00  0.00     0.071 A 
BRANCH   9  11
HETATM   11  C   UNL     1      28.009  43.728  52.218  1.00  0.00    -0.006 A 
HETATM   12  C   UNL     1      27.764  44.416  53.414  1.00  0.00     0.014 A 
HETATM   13  C   UNL     1      28.637  44.294  54.501  1.00  0.00     0.007 A 
HETATM   14  C   UNL     1      29.776  43.488  54.412  1.00  0.00    -0.062 A 
HETATM   15  C   UNL     1      30.701  43.328  55.581  1.00  0.00     0.048 C 
HETATM   16  C   UNL     1      30.021  42.791  53.225  1.00  0.00     0.007 A 
HETATM   17  C   UNL     1      29.149  42.916  52.138  1.00  0.00     0.014 A 
ENDBRANCH   9  11
ENDBRANCH   1   5
BRANCH   2  18
HETATM   18  N   UNL     1      22.550  46.521  48.897  1.00  0.00    -0.165 NA
HETATM   19  C   UNL     1      22.463  47.812  48.867  1.00  0.00     0.157 A 
HETATM   20  C   UNL     1      23.456  48.847  49.403  1.00  0.00     0.277 A 
HETATM   21  C   UNL     1      21.359  48.576  48.298  1.00  0.00     0.027 A 
HETATM   22  O   UNL     1      24.505  48.576  49.951  1.00  0.00    -0.266 OA
HETATM   23  N   UNL     1      22.897  50.075  49.129  1.00  0.00    -0.321 N 
HETATM   24  C   UNL     1      21.671  49.922  48.485  1.00  0.00     0.048 A 
HETATM   25  H   UNL     1      23.330  50.952  49.373  1.00  0.00     0.169 HD
HETATM   26  C   UNL     1      20.818  50.918  48.058  1.00  0.00     0.030 A 
HETATM   27  C   UNL     1      19.630  50.520  47.431  1.00  0.00     0.002 A 
HETATM   28  C   UNL     1      19.322  49.155  47.246  1.00  0.00     0.001 A 
HETATM   29  C   UNL     1      20.197  48.159  47.685  1.00  0.00     0.016 A 
ENDBRANCH   2  18
TORSDOF 3
ENDMDL
MODEL 5
REMARK VINA RESULT:      -9.1      5.809      9.841
REMARK  3 active torsions:
REMARK  status: ('A' for Active; 'I' for Inactive)
REMARK    1  A    between atoms: C_5  and  C_6 
REMARK    2  A    between atoms: C_10  and  C_11 
REMARK       I    between atoms: C_11  and  N_12 
REMARK    3  A    between atoms: N_12  and  N_13 
ROOT
HETATM    1  C   UNL     1      27.393  42.599  50.131  1.00  0.00     0.289 C 
HETATM    2  N   UNL     1      27.726  41.287  49.837  1.00  0.00    -0.241 N 
HETATM    3  O   UNL     1      26.952  43.399  49.309  1.00  0.00    -0.264 OA
HETATM    4  H   UNL     1      28.101  40.672  50.558  1.00  0.00     0.192 HD
ENDROOT
BRANCH   1   5
HETATM    5  C   UNL     1      27.614  42.987  51.501  1.00  0.00     0.121 A 
HETATM    6  N   UNL     1      26.577  43.053  52.389  1.00  0.00    -0.272 N 
HETATM    7  N   UNL     1      26.928  43.455  53.618  1.00  0.00    -0.174 NA
HETATM    8  H   UNL     1      25.603  42.841  52.197  1.00  0.00     0.189 HD
HETATM    9  C   UNL     1      28.256  43.642  53.549  1.00  0.00     0.089 A 
HETATM   10  C   UNL     1      28.725  43.358  52.234  1.00  0.00     0.071 A 
BRANCH   9  11
HETATM   11  C   UNL     1      29.028  44.089  54.714  1.00  0.00    -0.006 A 
HETATM   12  C   UNL     1      28.650  45.223  55.446  1.00  0.00     0.014 A 
HETATM   13  C   UNL     1      29.393  45.636  56.557  1.00  0.00     0.007 A 
HETATM   14  C   UNL     1      30.532  44.929  56.954  1.00  0.00    -0.062 A 
HETATM   15  C   UNL     1      31.318  45.348  58.161  1.00  0.00     0.048 C 
HETATM   16  C   UNL     1      30.909  43.792  56.234  1.00  0.00     0.007 A 
HETATM   17  C   UNL     1      30.167  43.382  55.121  1.00  0.00     0.014 A 
ENDBRANCH   9  11
ENDBRANCH   1   5
BRANCH   2  18
HETATM   18  N   UNL     1      27.596  40.808  48.562  1.00  0.00    -0.165 NA
HETATM   19  C   UNL     1      28.096  39.637  48.329  1.00  0.00     0.157 A 
HETATM   20  C   UNL     1      28.819  38.699  49.300  1.00  0.00     0.277 A 
HETATM   21  C   UNL     1      28.078  38.946  47.046  1.00  0.00     0.027 A 
HETATM   22  O   UNL     1      29.023  38.943  50.471  1.00  0.00    -0.266 OA
HETATM   23  N   UNL     1      29.155  37.587  48.561  1.00  0.00    -0.321 N 
HETATM   24  C   UNL     1      28.726  37.727  47.242  1.00  0.00     0.048 A 
HETATM   25  H   UNL     1      29.648  36.793  48.940  1.00  0.00     0.169 HD
HETATM   26  C   UNL     1      28.883  36.828  46.209  1.00  0.00     0.030 A 
HETATM   27  C   UNL     1      28.366  37.190  44.958  1.00  0.00     0.002 A 
HETATM   28  C   UNL     1      27.712  38.426  44.768  1.00  0.00     0.001 A 
HETATM   29  C   UNL     1      27.561  39.326  45.825  1.00  0.00     0.016 A 
ENDBRANCH   2  18
TORSDOF 3
ENDMDL
MODEL 6
REMARK VINA RESULT:      -8.9      3.101      9.464
REMARK  3 active torsions:
REMARK  status: ('A' for Active; 'I' for Inactive)
REMARK    1  A    between atoms: C_5  and  C_6 
REMARK    2  A    between atoms: C_10  and  C_11 
REMARK       I    between atoms: C_11  and  N_12 
REMARK    3  A    between atoms: N_12  and  N_13 
ROOT
HETATM    1  C   UNL     1      25.137  46.552  51.534  1.00  0.00     0.289 C 
HETATM    2  N   UNL     1      24.644  45.404  50.937  1.00  0.00    -0.241 N 
HETATM    3  O   UNL     1      24.865  47.692  51.165  1.00  0.00    -0.264 OA
HETATM    4  H   UNL     1      24.916  44.483  51.279  1.00  0.00     0.192 HD
ENDROOT
BRANCH   1   5
HETATM    5  C   UNL     1      26.028  46.324  52.643  1.00  0.00     0.121 A 
HETATM    6  N   UNL     1      25.923  47.056  53.793  1.00  0.00    -0.272 N 
HETATM    7  N   UNL     1      26.835  46.753  54.725  1.00  0.00    -0.174 NA
HETATM    8  H   UNL     1      25.245  47.788  53.983  1.00  0.00     0.189 HD
HETATM    9  C   UNL     1      27.562  45.763  54.183  1.00  0.00     0.089 A 
HETATM   10  C   UNL     1      27.085  45.464  52.873  1.00  0.00     0.071 A 
BRANCH   9  11
HETATM   11  C   UNL     1      28.678  45.146  54.907  1.00  0.00    -0.006 A 
HETATM   12  C   UNL     1      29.165  43.880  54.554  1.00  0.00     0.014 A 
HETATM   13  C   UNL     1      30.234  43.306  55.252  1.00  0.00     0.007 A 
HETATM   14  C   UNL     1      30.832  43.982  56.320  1.00  0.00    -0.062 A 
HETATM   15  C   UNL     1      31.996  43.387  57.054  1.00  0.00     0.048 C 
HETATM   16  C   UNL     1      30.357  45.250  56.670  1.00  0.00     0.007 A 
HETATM   17  C   UNL     1      29.287  45.821  55.975  1.00  0.00     0.014 A 
ENDBRANCH   9  11
ENDBRANCH   1   5
BRANCH   2  18
HETATM   18  N   UNL     1      23.817  45.487  49.851  1.00  0.00    -0.165 NA
HETATM   19  C   UNL     1      23.924  44.548  48.967  1.00  0.00     0.157 A 
HETATM   20  C   UNL     1      24.861  43.336  48.973  1.00  0.00     0.277 A 
HETATM   21  C   UNL     1      23.151  44.448  47.735  1.00  0.00     0.027 A 
HETATM   22  O   UNL     1      25.659  43.087  49.852  1.00  0.00    -0.266 OA
HETATM   23  N   UNL     1      24.588  42.650  47.811  1.00  0.00    -0.321 N 
HETATM   24  C   UNL     1      23.591  43.297  47.083  1.00  0.00     0.048 A 
HETATM   25  H   UNL     1      25.059  41.800  47.540  1.00  0.00     0.169 HD
HETATM   26  C   UNL     1      23.056  42.915  45.871  1.00  0.00     0.030 A 
HETATM   27  C   UNL     1      22.056  43.730  45.325  1.00  0.00     0.002 A 
HETATM   28  C   UNL     1      21.617  44.895  45.992  1.00  0.00     0.001 A 
HETATM   29  C   UNL     1      22.170  45.267  47.219  1.00  0.00     0.016 A 
ENDBRANCH   2  18
TORSDOF 3
ENDMDL
MODEL 7
REMARK VINA RESULT:      -8.9      1.538      2.143
REMARK  3 active torsions:
REMARK  status: ('A' for Active; 'I' for Inactive)
REMARK    1  A    between atoms: C_5  and  C_6 
REMARK    2  A    between atoms: C_10  and  C_11 
REMARK       I    between atoms: C_11  and  N_12 
REMARK    3  A    between atoms: N_12  and  N_13 
ROOT
HETATM    1  C   UNL     1      24.684  46.306  49.847  1.00  0.00     0.289 C 
HETATM    2  N   UNL     1      25.063  46.214  51.176  1.00  0.00    -0.241 N 
HETATM    3  O   UNL     1      24.968  45.472  48.990  1.00  0.00    -0.264 OA
HETATM    4  H   UNL     1      24.809  46.944  51.840  1.00  0.00     0.192 HD
ENDROOT
BRANCH   1   5
HETATM    5  C   UNL     1      23.922  47.483  49.515  1.00  0.00     0.121 A 
HETATM    6  N   UNL     1      24.468  48.731  49.628  1.00  0.00    -0.272 N 
HETATM    7  N   UNL     1      23.633  49.729  49.313  1.00  0.00    -0.174 NA
HETATM    8  H   UNL     1      25.412  48.951  49.931  1.00  0.00     0.189 HD
HETATM    9  C   UNL     1      22.492  49.119  48.953  1.00  0.00     0.089 A 
HETATM   10  C   UNL     1      22.634  47.706  49.066  1.00  0.00     0.071 A 
BRANCH   9  11
HETATM   11  C   UNL     1      21.315  49.885  48.530  1.00  0.00    -0.006 A 
HETATM   12  C   UNL     1      20.523  49.466  47.452  1.00  0.00     0.014 A 
HETATM   13  C   UNL     1      19.399  50.204  47.062  1.00  0.00     0.007 A 
HETATM   14  C   UNL     1      19.051  51.378  47.736  1.00  0.00    -0.062 A 
HETATM   15  C   UNL     1      17.833  52.160  47.342  1.00  0.00     0.048 C 
HETATM   16  C   UNL     1      19.831  51.796  48.818  1.00  0.00     0.007 A 
HETATM   17  C   UNL     1      20.955  51.059  49.205  1.00  0.00     0.014 A 
ENDBRANCH   9  11
ENDBRANCH   1   5
BRANCH   2  18
HETATM   18  N   UNL     1      25.822  45.161  51.609  1.00  0.00    -0.165 NA
HETATM   19  C   UNL     1      26.581  45.377  52.635  1.00  0.00     0.157 A 
HETATM   20  C   UNL     1      26.745  46.667  53.445  1.00  0.00     0.277 A 
HETATM   21  C   UNL     1      27.474  44.403  53.252  1.00  0.00     0.027 A 
HETATM   22  O   UNL     1      26.153  47.702  53.219  1.00  0.00    -0.266 OA
HETATM   23  N   UNL     1      27.670  46.376  54.423  1.00  0.00    -0.321 N 
HETATM   24  C   UNL     1      28.100  45.055  54.313  1.00  0.00     0.048 A 
HETATM   25  H   UNL     1      27.982  47.043  55.112  1.00  0.00     0.169 HD
HETATM   26  C   UNL     1      29.020  44.404  55.107  1.00  0.00     0.030 A 
HETATM   27  C   UNL     1      29.297  43.065  54.803  1.00  0.00     0.002 A 
HETATM   28  C   UNL     1      28.659  42.413  53.725  1.00  0.00     0.001 A 
HETATM   29  C   UNL     1      27.730  43.087  52.931  1.00  0.00     0.016 A 
ENDBRANCH   2  18
TORSDOF 3
ENDMDL
MODEL 8
REMARK VINA RESULT:      -8.8      2.545     10.027
REMARK  3 active torsions:
REMARK  status: ('A' for Active; 'I' for Inactive)
REMARK    1  A    between atoms: C_5  and  C_6 
REMARK    2  A    between atoms: C_10  and  C_11 
REMARK       I    between atoms: C_11  and  N_12 
REMARK    3  A    between atoms: N_12  and  N_13 
ROOT
HETATM    1  C   UNL     1      23.244  46.745  49.209  1.00  0.00     0.289 C 
HETATM    2  N   UNL     1      22.531  47.925  49.346  1.00  0.00    -0.241 N 
HETATM    3  O   UNL     1      23.042  45.917  48.324  1.00  0.00    -0.264 OA
HETATM    4  H   UNL     1      22.734  48.569  50.108  1.00  0.00     0.192 HD
ENDROOT
BRANCH   1   5
HETATM    5  C   UNL     1      24.262  46.534  50.206  1.00  0.00     0.121 A 
HETATM    6  N   UNL     1      24.664  47.551  51.027  1.00  0.00    -0.272 N 
HETATM    7  N   UNL     1      25.637  47.216  51.884  1.00  0.00    -0.174 NA
HETATM    8  H   UNL     1      24.307  48.502  51.030  1.00  0.00     0.189 HD
HETATM    9  C   UNL     1      25.875  45.917  51.639  1.00  0.00     0.089 A 
HETATM   10  C   UNL     1      25.030  45.452  50.590  1.00  0.00     0.071 A 
BRANCH   9  11
HETATM   11  C   UNL     1      26.891  45.170  52.388  1.00  0.00    -0.006 A 
HETATM   12  C   UNL     1      27.664  44.175  51.774  1.00  0.00     0.014 A 
HETATM   13  C   UNL     1      28.633  43.473  52.500  1.00  0.00     0.007 A 
HETATM   14  C   UNL     1      28.842  43.746  53.856  1.00  0.00    -0.062 A 
HETATM   15  C   UNL     1      29.898  43.018  54.634  1.00  0.00     0.048 C 
HETATM   16  C   UNL     1      28.081  44.743  54.472  1.00  0.00     0.007 A 
HETATM   17  C   UNL     1      27.111  45.442  53.746  1.00  0.00     0.014 A 
ENDBRANCH   9  11
ENDBRANCH   1   5
BRANCH   2  18
HETATM   18  N   UNL     1      21.512  48.224  48.482  1.00  0.00    -0.165 NA
HETATM   19  C   UNL     1      21.020  49.419  48.557  1.00  0.00     0.157 A 
HETATM   20  C   UNL     1      21.431  50.562  49.490  1.00  0.00     0.277 A 
HETATM   21  C   UNL     1      19.931  49.941  47.742  1.00  0.00     0.027 A 
HETATM   22  O   UNL     1      22.316  50.492  50.317  1.00  0.00    -0.266 OA
HETATM   23  N   UNL     1      20.600  51.614  49.176  1.00  0.00    -0.321 N 
HETATM   24  C   UNL     1      19.721  51.256  48.156  1.00  0.00     0.048 A 
HETATM   25  H   UNL     1      20.638  52.511  49.635  1.00  0.00     0.169 HD
HETATM   26  C   UNL     1      18.743  52.038  47.579  1.00  0.00     0.030 A 
HETATM   27  C   UNL     1      17.972  51.457  46.563  1.00  0.00     0.002 A 
HETATM   28  C   UNL     1      18.191  50.125  46.150  1.00  0.00     0.001 A 
HETATM   29  C   UNL     1      19.186  49.347  46.746  1.00  0.00     0.016 A 
ENDBRANCH   2  18
TORSDOF 3
ENDMDL
MODEL 9
REMARK VINA RESULT:      -8.7      2.550     10.052
REMARK  3 active torsions:
REMARK  status: ('A' for Active; 'I' for Inactive)
REMARK    1  A    between atoms: C_5  and  C_6 
REMARK    2  A    between atoms: C_10  and  C_11 
REMARK       I    between atoms: C_11  and  N_12 
REMARK    3  A    between atoms: N_12  and  N_13 
ROOT
HETATM    1  C   UNL     1      23.881  48.568  49.343  1.00  0.00     0.289 C 
HETATM    2  N   UNL     1      22.674  48.831  49.968  1.00  0.00    -0.241 N 
HETATM    3  O   UNL     1      24.340  49.238  48.420  1.00  0.00    -0.264 OA
HETATM    4  H   UNL     1      22.337  48.232  50.721  1.00  0.00     0.192 HD
ENDROOT
BRANCH   1   5
HETATM    5  C   UNL     1      24.585  47.416  49.846  1.00  0.00     0.121 A 
HETATM    6  N   UNL     1      24.365  46.173  49.323  1.00  0.00    -0.272 N 
HETATM    7  N   UNL     1      25.069  45.196  49.909  1.00  0.00    -0.174 NA
HETATM    8  H   UNL     1      23.730  45.940  48.566  1.00  0.00     0.189 HD
HETATM    9  C   UNL     1      25.804  45.818  50.845  1.00  0.00     0.089 A 
HETATM   10  C   UNL     1      25.528  47.216  50.836  1.00  0.00     0.071 A 
BRANCH   9  11
HETATM   11  C   UNL     1      26.724  45.078  51.715  1.00  0.00    -0.006 A 
HETATM   12  C   UNL     1      26.815  45.356  53.085  1.00  0.00     0.014 A 
HETATM   13  C   UNL     1      27.694  44.639  53.904  1.00  0.00     0.007 A 
HETATM   14  C   UNL     1      28.505  43.634  53.368  1.00  0.00    -0.062 A 
HETATM   15  C   UNL     1      29.429  42.840  54.243  1.00  0.00     0.048 C 
HETATM   16  C   UNL     1      28.412  43.344  52.003  1.00  0.00     0.007 A 
HETATM   17  C   UNL     1      27.536  44.064  51.185  1.00  0.00     0.014 A 
ENDBRANCH   9  11
ENDBRANCH   1   5
BRANCH   2  18
HETATM   18  N   UNL     1      21.893  49.877  49.556  1.00  0.00    -0.165 NA
HETATM   19  C   UNL     1      20.830  49.576  48.882  1.00  0.00     0.157 A 
HETATM   20  C   UNL     1      20.317  48.190  48.480  1.00  0.00     0.277 A 
HETATM   21  C   UNL     1      19.868  50.529  48.341  1.00  0.00     0.027 A 
HETATM   22  O   UNL     1      20.866  47.144  48.759  1.00  0.00    -0.266 OA
HETATM   23  N   UNL     1      19.158  48.414  47.771  1.00  0.00    -0.321 N 
HETATM   24  C   UNL     1      18.892  49.779  47.686  1.00  0.00     0.048 A 
HETATM   25  H   UNL     1      18.595  47.677  47.374  1.00  0.00     0.169 HD
HETATM   26  C   UNL     1      17.829  50.389  47.055  1.00  0.00     0.030 A 
HETATM   27  C   UNL     1      17.772  51.789  47.100  1.00  0.00     0.002 A 
HETATM   28  C   UNL     1      18.765  52.540  47.765  1.00  0.00     0.001 A 
HETATM   29  C   UNL     1      19.836  51.906  48.399  1.00  0.00     0.016 A 
ENDBRANCH   2  18
TORSDOF 3
ENDMDL
MODEL 10
REMARK VINA RESULT:      -8.5      3.353     10.318
REMARK  3 active torsions:
REMARK  status: ('A' for Active; 'I' for Inactive)
REMARK    1  A    between atoms: C_5  and  C_6 
REMARK    2  A    between atoms: C_10  and  C_11 
REMARK       I    between atoms: C_11  and  N_12 
REMARK    3  A    between atoms: N_12  and  N_13 
ROOT
HETATM    1  C   UNL     1      21.909  48.013  48.566  1.00  0.00     0.289 C 
HETATM    2  N   UNL     1      20.857  48.268  49.431  1.00  0.00    -0.241 N 
HETATM    3  O   UNL     1      21.826  48.081  47.341  1.00  0.00    -0.264 OA
HETATM    4  H   UNL     1      20.981  48.183  50.439  1.00  0.00     0.192 HD
ENDROOT
BRANCH   1   5
HETATM    5  C   UNL     1      23.144  47.640  49.207  1.00  0.00     0.121 A 
HETATM    6  N   UNL     1      24.119  48.567  49.448  1.00  0.00    -0.272 N 
HETATM    7  N   UNL     1      25.222  48.070  50.024  1.00  0.00    -0.174 NA
HETATM    8  H   UNL     1      24.081  49.556  49.224  1.00  0.00     0.189 HD
HETATM    9  C   UNL     1      24.959  46.764  50.194  1.00  0.00     0.089 A 
HETATM   10  C   UNL     1      23.661  46.455  49.693  1.00  0.00     0.071 A 
BRANCH   9  11
HETATM   11  C   UNL     1      25.937  45.859  50.807  1.00  0.00    -0.006 A 
HETATM   12  C   UNL     1      26.107  45.804  52.197  1.00  0.00     0.014 A 
HETATM   13  C   UNL     1      27.041  44.933  52.769  1.00  0.00     0.007 A 
HETATM   14  C   UNL     1      27.829  44.106  51.963  1.00  0.00    -0.062 A 
HETATM   15  C   UNL     1      28.812  43.148  52.569  1.00  0.00     0.048 C 
HETATM   16  C   UNL     1      27.657  44.149  50.576  1.00  0.00     0.007 A 
HETATM   17  C   UNL     1      26.725  45.022  50.006  1.00  0.00     0.014 A 
ENDBRANCH   9  11
ENDBRANCH   1   5
BRANCH   2  18
HETATM   18  N   UNL     1      19.622  48.596  48.943  1.00  0.00    -0.165 NA
HETATM   19  C   UNL     1      19.189  49.785  49.214  1.00  0.00     0.157 A 
HETATM   20  C   UNL     1      19.882  50.893  50.013  1.00  0.00     0.277 A 
HETATM   21  C   UNL     1      17.903  50.336  48.803  1.00  0.00     0.027 A 
HETATM   22  O   UNL     1      20.981  50.794  50.517  1.00  0.00    -0.266 OA
HETATM   23  N   UNL     1      19.004  51.954  50.016  1.00  0.00    -0.321 N 
HETATM   24  C   UNL     1      17.845  51.632  49.311  1.00  0.00     0.048 A 
HETATM   25  H   UNL     1      19.192  52.833  50.474  1.00  0.00     0.169 HD
HETATM   26  C   UNL     1      16.743  52.433  49.101  1.00  0.00     0.030 A 
HETATM   27  C   UNL     1      15.687  51.889  48.357  1.00  0.00     0.002 A 
HETATM   28  C   UNL     1      15.753  50.575  47.847  1.00  0.00     0.001 A 
HETATM   29  C   UNL     1      16.878  49.778  48.069  1.00  0.00     0.016 A 
ENDBRANCH   2  18
TORSDOF 3
ENDMDL
