MODEL 1
REMARK VINA RESULT:      -9.8      0.000      0.000
REMARK  6 active torsions:
REMARK  status: ('A' for Active; 'I' for Inactive)
REMARK    1  A    between atoms: C_2  and  C_3 
REMARK    2  A    between atoms: C_2  and  C_9 
REMARK    3  A    between atoms: C_9  and  C_10 
REMARK    4  A    between atoms: C_10  and  C_11 
REMARK       I    between atoms: C_11  and  N_12 
REMARK    5  A    between atoms: N_12  and  C_13 
REMARK    6  A    between atoms: C_20  and  C_21 
REMARK       I    between atoms: C_21  and  N_22 
ROOT
HETATM    1  C   UNL     1      25.943  47.541  50.329  1.00  0.00     0.035 A 
HETATM    2  C   UNL     1      24.622  47.722  49.885  1.00  0.00     0.046 A 
HETATM    3  C   UNL     1      24.334  48.716  48.926  1.00  0.00     0.030 A 
HETATM    4  C   UNL     1      25.373  49.499  48.442  1.00  0.00     0.063 A 
HETATM    5  N   UNL     1      24.797  50.352  47.543  1.00  0.00    -0.277 N 
HETATM    6  H   UNL     1      25.260  51.066  46.992  1.00  0.00     0.189 HD
HETATM    7  N   UNL     1      23.470  50.196  47.399  1.00  0.00    -0.168 NA
HETATM    8  C   UNL     1      23.169  49.188  48.250  1.00  0.00     0.156 A 
HETATM    9  C   UNL     1      26.695  49.349  48.861  1.00  0.00     0.034 A 
HETATM   10  C   UNL     1      26.957  48.355  49.814  1.00  0.00     0.032 A 
ENDROOT
BRANCH   1  11
HETATM   11  N   UNL     1      26.163  46.519  51.279  1.00  0.00    -0.327 N 
HETATM   12  C   UNL     1      26.095  46.622  52.655  1.00  0.00     0.222 C 
HETATM   13  O   UNL     1      25.787  47.620  53.300  1.00  0.00    -0.273 OA
HETATM   14  H   UNL     1      26.378  45.605  50.898  1.00  0.00     0.169 HD
BRANCH  12  15
HETATM   15  C   UNL     1      26.458  45.330  53.368  1.00  0.00     0.103 C 
BRANCH  15  16
HETATM   16  C   UNL     1      27.615  45.535  54.349  1.00  0.00     0.018 C 
BRANCH  16  17
HETATM   17  C   UNL     1      28.751  44.499  54.190  1.00  0.00     0.015 C 
HETATM   18  C   UNL     1      28.171  43.113  53.888  1.00  0.00     0.015 C 
BRANCH  17  19
HETATM   19  C   UNL     1      29.665  44.441  55.404  1.00  0.00    -0.054 A 
HETATM   20  C   UNL     1      30.575  43.387  55.589  1.00  0.00     0.007 A 
HETATM   21  C   UNL     1      31.399  43.348  56.715  1.00  0.00     0.001 A 
HETATM   22  C   UNL     1      31.329  44.361  57.668  1.00  0.00     0.000 A 
HETATM   23  C   UNL     1      30.436  45.416  57.494  1.00  0.00     0.001 A 
HETATM   24  C   UNL     1      29.610  45.457  56.370  1.00  0.00     0.007 A 
ENDBRANCH  17  19
ENDBRANCH  16  17
ENDBRANCH  15  16
ENDBRANCH  12  15
ENDBRANCH   1  11
BRANCH   8  25
HETATM   25  C   UNL     1      21.794  48.697  48.402  1.00  0.00     0.270 C 
HETATM   26  N   UNL     1      21.292  48.824  49.668  1.00  0.00    -0.365 N 
HETATM   27  H   UNL     1      21.880  49.232  50.384  1.00  0.00     0.159 HD
HETATM   28  H   UNL     1      20.353  48.516  49.870  1.00  0.00     0.159 HD
HETATM   29  O   UNL     1      21.127  48.211  47.494  1.00  0.00    -0.266 OA
ENDBRANCH   8  25
TORSDOF 6
ENDMDL
MODEL 2
REMARK VINA RESULT:      -9.5      1.244      1.271
REMARK  6 active torsions:
REMARK  status: ('A' for Active; 'I' for Inactive)
REMARK    1  A    between atoms: C_2  and  C_3 
REMARK    2  A    between atoms: C_2  and  C_9 
REMARK    3  A    between atoms: C_9  and  C_10 
REMARK    4  A    between atoms: C_10  and  C_11 
REMARK       I    between atoms: C_11  and  N_12 
REMARK    5  A    between atoms: N_12  and  C_13 
REMARK    6  A    between atoms: C_20  and  C_21 
REMARK       I    between atoms: C_21  and  N_22 
ROOT
HETATM    1  C   UNL     1      25.932  47.307  50.292  1.00  0.00     0.035 A 
HETATM    2  C   UNL     1      24.621  47.504  49.825  1.00  0.00     0.046 A 
HETATM    3  C   UNL     1      24.346  48.557  48.928  1.00  0.00     0.030 A 
HETATM    4  C   UNL     1      25.389  49.382  48.526  1.00  0.00     0.063 A 
HETATM    5  N   UNL     1      24.826  50.288  47.671  1.00  0.00    -0.277 N 
HETATM    6  H   UNL     1      25.296  51.043  47.182  1.00  0.00     0.189 HD
HETATM    7  N   UNL     1      23.506  50.128  47.481  1.00  0.00    -0.168 NA
HETATM    8  C   UNL     1      23.195  49.063  48.254  1.00  0.00     0.156 A 
HETATM    9  C   UNL     1      26.701  49.218  48.970  1.00  0.00     0.034 A 
HETATM   10  C   UNL     1      26.950  48.164  49.861  1.00  0.00     0.032 A 
ENDROOT
BRANCH   1  11
HETATM   11  N   UNL     1      26.139  46.225  51.176  1.00  0.00    -0.327 N 
HETATM   12  C   UNL     1      26.790  45.035  50.910  1.00  0.00     0.222 C 
HETATM   13  O   UNL     1      27.346  44.724  49.861  1.00  0.00    -0.273 OA
HETATM   14  H   UNL     1      25.781  46.351  52.115  1.00  0.00     0.169 HD
BRANCH  12  15
HETATM   15  C   UNL     1      26.766  44.068  52.082  1.00  0.00     0.103 C 
BRANCH  15  16
HETATM   16  C   UNL     1      27.668  44.547  53.223  1.00  0.00     0.018 C 
BRANCH  16  17
HETATM   17  C   UNL     1      28.848  43.596  53.520  1.00  0.00     0.015 C 
HETATM   18  C   UNL     1      28.362  42.143  53.575  1.00  0.00     0.015 C 
BRANCH  17  19
HETATM   19  C   UNL     1      29.587  43.959  54.799  1.00  0.00    -0.054 A 
HETATM   20  C   UNL     1      30.565  43.114  55.348  1.00  0.00     0.007 A 
HETATM   21  C   UNL     1      31.226  43.462  56.527  1.00  0.00     0.001 A 
HETATM   22  C   UNL     1      30.922  44.659  57.171  1.00  0.00     0.000 A 
HETATM   23  C   UNL     1      29.959  45.511  56.634  1.00  0.00     0.001 A 
HETATM   24  C   UNL     1      29.296  45.164  55.455  1.00  0.00     0.007 A 
ENDBRANCH  17  19
ENDBRANCH  16  17
ENDBRANCH  15  16
ENDBRANCH  12  15
ENDBRANCH   1  11
BRANCH   8  25
HETATM   25  C   UNL     1      21.822  48.548  48.334  1.00  0.00     0.270 C 
HETATM   26  N   UNL     1      21.253  48.664  49.573  1.00  0.00    -0.365 N 
HETATM   27  H   UNL     1      21.798  49.081  50.319  1.00  0.00     0.159 HD
HETATM   28  H   UNL     1      20.311  48.340  49.727  1.00  0.00     0.159 HD
HETATM   29  O   UNL     1      21.211  48.053  47.393  1.00  0.00    -0.266 OA
ENDBRANCH   8  25
TORSDOF 6
ENDMDL
MODEL 3
REMARK VINA RESULT:      -9.4      2.490      3.580
REMARK  6 active torsions:
REMARK  status: ('A' for Active; 'I' for Inactive)
REMARK    1  A    between atoms: C_2  and  C_3 
REMARK    2  A    between atoms: C_2  and  C_9 
REMARK    3  A    between atoms: C_9  and  C_10 
REMARK    4  A    between atoms: C_10  and  C_11 
REMARK       I    between atoms: C_11  and  N_12 
REMARK    5  A    between atoms: N_12  and  C_13 
REMARK    6  A    between atoms: C_20  and  C_21 
REMARK       I    between atoms: C_21  and  N_22 
ROOT
HETATM    1  C   UNL     1      25.034  43.810  51.542  1.00  0.00     0.035 A 
HETATM    2  C   UNL     1      24.852  45.144  51.139  1.00  0.00     0.046 A 
HETATM    3  C   UNL     1      24.010  45.439  50.046  1.00  0.00     0.030 A 
HETATM    4  C   UNL     1      23.378  44.393  49.388  1.00  0.00     0.063 A 
HETATM    5  N   UNL     1      22.642  44.979  48.396  1.00  0.00    -0.277 N 
HETATM    6  H   UNL     1      22.048  44.515  47.718  1.00  0.00     0.189 HD
HETATM    7  N   UNL     1      22.741  46.318  48.348  1.00  0.00    -0.168 NA
HETATM    8  C   UNL     1      23.585  46.617  49.361  1.00  0.00     0.156 A 
HETATM    9  C   UNL     1      23.536  43.057  49.758  1.00  0.00     0.034 A 
HETATM   10  C   UNL     1      24.377  42.789  50.848  1.00  0.00     0.032 A 
ENDROOT
BRANCH   1  11
HETATM   11  N   UNL     1      25.877  43.588  52.653  1.00  0.00    -0.327 N 
HETATM   12  C   UNL     1      25.641  43.935  53.970  1.00  0.00     0.222 C 
HETATM   13  O   UNL     1      24.628  44.463  54.417  1.00  0.00    -0.273 OA
HETATM   14  H   UNL     1      26.745  43.103  52.455  1.00  0.00     0.169 HD
BRANCH  12  15
HETATM   15  C   UNL     1      26.803  43.599  54.891  1.00  0.00     0.103 C 
BRANCH  15  16
HETATM   16  C   UNL     1      27.918  42.863  54.143  1.00  0.00     0.018 C 
BRANCH  16  17
HETATM   17  C   UNL     1      29.197  43.709  53.954  1.00  0.00     0.015 C 
HETATM   18  C   UNL     1      30.155  43.017  52.977  1.00  0.00     0.015 C 
BRANCH  17  19
HETATM   19  C   UNL     1      29.902  44.008  55.268  1.00  0.00    -0.054 A 
HETATM   20  C   UNL     1      29.692  45.212  55.958  1.00  0.00     0.007 A 
HETATM   21  C   UNL     1      30.355  45.470  57.159  1.00  0.00     0.001 A 
HETATM   22  C   UNL     1      31.232  44.529  57.688  1.00  0.00     0.000 A 
HETATM   23  C   UNL     1      31.446  43.325  57.019  1.00  0.00     0.001 A 
HETATM   24  C   UNL     1      30.785  43.065  55.817  1.00  0.00     0.007 A 
ENDBRANCH  17  19
ENDBRANCH  16  17
ENDBRANCH  15  16
ENDBRANCH  12  15
ENDBRANCH   1  11
BRANCH   8  25
HETATM   25  C   UNL     1      23.967  48.003  49.658  1.00  0.00     0.270 C 
HETATM   26  N   UNL     1      22.920  48.884  49.652  1.00  0.00    -0.365 N 
HETATM   27  H   UNL     1      21.992  48.532  49.451  1.00  0.00     0.159 HD
HETATM   28  H   UNL     1      23.083  49.860  49.846  1.00  0.00     0.159 HD
HETATM   29  O   UNL     1      25.113  48.372  49.895  1.00  0.00    -0.266 OA
ENDBRANCH   8  25
TORSDOF 6
ENDMDL
MODEL 4
REMARK VINA RESULT:      -9.0      3.695      9.345
REMARK  6 active torsions:
REMARK  status: ('A' for Active; 'I' for Inactive)
REMARK    1  A    between atoms: C_2  and  C_3 
REMARK    2  A    between atoms: C_2  and  C_9 
REMARK    3  A    between atoms: C_9  and  C_10 
REMARK    4  A    between atoms: C_10  and  C_11 
REMARK       I    between atoms: C_11  and  N_12 
REMARK    5  A    between atoms: N_12  and  C_13 
REMARK    6  A    between atoms: C_20  and  C_21 
REMARK       I    between atoms: C_21  and  N_22 
ROOT
HETATM    1  C   UNL     1      28.650  44.076  53.465  1.00  0.00     0.035 A 
HETATM    2  C   UNL     1      28.836  44.754  54.681  1.00  0.00     0.046 A 
HETATM    3  C   UNL     1      29.877  44.366  55.550  1.00  0.00     0.030 A 
HETATM    4  C   UNL     1      30.699  43.310  55.178  1.00  0.00     0.063 A 
HETATM    5  N   UNL     1      31.598  43.172  56.198  1.00  0.00    -0.277 N 
HETATM    6  H   UNL     1      32.352  42.498  56.263  1.00  0.00     0.189 HD
HETATM    7  N   UNL     1      31.433  44.045  57.207  1.00  0.00    -0.168 NA
HETATM    8  C   UNL     1      30.371  44.789  56.820  1.00  0.00     0.156 A 
HETATM    9  C   UNL     1      30.543  42.612  53.980  1.00  0.00     0.034 A 
HETATM   10  C   UNL     1      29.501  43.017  53.133  1.00  0.00     0.032 A 
ENDROOT
BRANCH   1  11
HETATM   11  N   UNL     1      27.598  44.526  52.637  1.00  0.00    -0.327 N 
HETATM   12  C   UNL     1      26.242  44.335  52.822  1.00  0.00     0.222 C 
HETATM   13  O   UNL     1      25.705  43.772  53.771  1.00  0.00    -0.273 OA
HETATM   14  H   UNL     1      27.878  45.065  51.826  1.00  0.00     0.169 HD
BRANCH  12  15
HETATM   15  C   UNL     1      25.400  44.905  51.692  1.00  0.00     0.103 C 
BRANCH  15  16
HETATM   16  C   UNL     1      25.517  46.430  51.619  1.00  0.00     0.018 C 
BRANCH  16  17
HETATM   17  C   UNL     1      24.601  47.070  50.552  1.00  0.00     0.015 C 
HETATM   18  C   UNL     1      24.001  45.988  49.646  1.00  0.00     0.015 C 
BRANCH  17  19
HETATM   19  C   UNL     1      25.317  48.123  49.720  1.00  0.00    -0.054 A 
HETATM   20  C   UNL     1      24.614  48.986  48.864  1.00  0.00     0.007 A 
HETATM   21  C   UNL     1      25.291  49.941  48.103  1.00  0.00     0.001 A 
HETATM   22  C   UNL     1      26.676  50.049  48.190  1.00  0.00     0.000 A 
HETATM   23  C   UNL     1      27.386  49.204  49.040  1.00  0.00     0.001 A 
HETATM   24  C   UNL     1      26.712  48.248  49.802  1.00  0.00     0.007 A 
ENDBRANCH  17  19
ENDBRANCH  16  17
ENDBRANCH  15  16
ENDBRANCH  12  15
ENDBRANCH   1  11
BRANCH   8  25
HETATM   25  C   UNL     1      29.852  45.878  57.657  1.00  0.00     0.270 C 
HETATM   26  N   UNL     1      30.773  46.407  58.519  1.00  0.00    -0.365 N 
HETATM   27  H   UNL     1      31.712  46.026  58.519  1.00  0.00     0.159 HD
HETATM   28  H   UNL     1      30.511  47.162  59.134  1.00  0.00     0.159 HD
HETATM   29  O   UNL     1      28.701  46.299  57.612  1.00  0.00    -0.266 OA
ENDBRANCH   8  25
TORSDOF 6
ENDMDL
MODEL 5
REMARK VINA RESULT:      -8.8      5.192      7.510
REMARK  6 active torsions:
REMARK  status: ('A' for Active; 'I' for Inactive)
REMARK    1  A    between atoms: C_2  and  C_3 
REMARK    2  A    between atoms: C_2  and  C_9 
REMARK    3  A    between atoms: C_9  and  C_10 
REMARK    4  A    between atoms: C_10  and  C_11 
REMARK       I    between atoms: C_11  and  N_12 
REMARK    5  A    between atoms: N_12  and  C_13 
REMARK    6  A    between atoms: C_20  and  C_21 
REMARK       I    between atoms: C_21  and  N_22 
ROOT
HETATM    1  C   UNL     1      26.616  41.928  50.649  1.00  0.00     0.035 A 
HETATM    2  C   UNL     1      27.275  40.686  50.626  1.00  0.00     0.046 A 
HETATM    3  C   UNL     1      26.870  39.693  49.711  1.00  0.00     0.030 A 
HETATM    4  C   UNL     1      25.819  39.969  48.847  1.00  0.00     0.063 A 
HETATM    5  N   UNL     1      25.663  38.840  48.092  1.00  0.00    -0.277 N 
HETATM    6  H   UNL     1      24.986  38.686  47.353  1.00  0.00     0.189 HD
HETATM    7  N   UNL     1      26.520  37.849  48.390  1.00  0.00    -0.168 NA
HETATM    8  C   UNL     1      27.271  38.362  49.391  1.00  0.00     0.156 A 
HETATM    9  C   UNL     1      25.140  41.188  48.842  1.00  0.00     0.034 A 
HETATM   10  C   UNL     1      25.561  42.160  49.761  1.00  0.00     0.032 A 
ENDROOT
BRANCH   1  11
HETATM   11  N   UNL     1      27.082  42.881  51.581  1.00  0.00    -0.327 N 
HETATM   12  C   UNL     1      26.324  43.698  52.397  1.00  0.00     0.222 C 
HETATM   13  O   UNL     1      25.100  43.709  52.489  1.00  0.00    -0.273 OA
HETATM   14  H   UNL     1      28.089  42.956  51.665  1.00  0.00     0.169 HD
BRANCH  12  15
HETATM   15  C   UNL     1      27.164  44.653  53.230  1.00  0.00     0.103 C 
BRANCH  15  16
HETATM   16  C   UNL     1      27.912  43.916  54.345  1.00  0.00     0.018 C 
BRANCH  16  17
HETATM   17  C   UNL     1      29.449  44.016  54.229  1.00  0.00     0.015 C 
HETATM   18  C   UNL     1      30.014  42.774  53.530  1.00  0.00     0.015 C 
BRANCH  17  19
HETATM   19  C   UNL     1      30.127  44.224  55.575  1.00  0.00    -0.054 A 
HETATM   20  C   UNL     1      31.075  43.314  56.068  1.00  0.00     0.007 A 
HETATM   21  C   UNL     1      31.679  43.518  57.310  1.00  0.00     0.001 A 
HETATM   22  C   UNL     1      31.348  44.635  58.072  1.00  0.00     0.000 A 
HETATM   23  C   UNL     1      30.413  45.551  57.592  1.00  0.00     0.001 A 
HETATM   24  C   UNL     1      29.807  45.348  56.351  1.00  0.00     0.007 A 
ENDBRANCH  17  19
ENDBRANCH  16  17
ENDBRANCH  15  16
ENDBRANCH  12  15
ENDBRANCH   1  11
BRANCH   8  25
HETATM   25  C   UNL     1      28.348  37.584  50.016  1.00  0.00     0.270 C 
HETATM   26  N   UNL     1      27.948  36.373  50.511  1.00  0.00    -0.365 N 
HETATM   27  H   UNL     1      26.975  36.108  50.415  1.00  0.00     0.159 HD
HETATM   28  H   UNL     1      28.618  35.766  50.958  1.00  0.00     0.159 HD
HETATM   29  O   UNL     1      29.513  37.958  50.103  1.00  0.00    -0.266 OA
ENDBRANCH   8  25
TORSDOF 6
ENDMDL
MODEL 6
REMARK VINA RESULT:      -8.7      1.524      2.343
REMARK  6 active torsions:
REMARK  status: ('A' for Active; 'I' for Inactive)
REMARK    1  A    between atoms: C_2  and  C_3 
REMARK    2  A    between atoms: C_2  and  C_9 
REMARK    3  A    between atoms: C_9  and  C_10 
REMARK    4  A    between atoms: C_10  and  C_11 
REMARK       I    between atoms: C_11  and  N_12 
REMARK    5  A    between atoms: N_12  and  C_13 
REMARK    6  A    between atoms: C_20  and  C_21 
REMARK       I    between atoms: C_21  and  N_22 
ROOT
HETATM    1  C   UNL     1      25.782  47.642  50.130  1.00  0.00     0.035 A 
HETATM    2  C   UNL     1      24.445  47.808  49.729  1.00  0.00     0.046 A 
HETATM    3  C   UNL     1      24.107  48.828  48.815  1.00  0.00     0.030 A 
HETATM    4  C   UNL     1      25.114  49.652  48.330  1.00  0.00     0.063 A 
HETATM    5  N   UNL     1      24.494  50.522  47.479  1.00  0.00    -0.277 N 
HETATM    6  H   UNL     1      24.925  51.266  46.941  1.00  0.00     0.189 HD
HETATM    7  N   UNL     1      23.167  50.340  47.367  1.00  0.00    -0.168 NA
HETATM    8  C   UNL     1      22.914  49.297  48.189  1.00  0.00     0.156 A 
HETATM    9  C   UNL     1      26.451  49.518  48.707  1.00  0.00     0.034 A 
HETATM   10  C   UNL     1      26.762  48.497  49.617  1.00  0.00     0.032 A 
ENDROOT
BRANCH   1  11
HETATM   11  N   UNL     1      26.051  46.593  51.036  1.00  0.00    -0.327 N 
HETATM   12  C   UNL     1      25.958  46.628  52.414  1.00  0.00     0.222 C 
HETATM   13  O   UNL     1      25.580  47.575  53.098  1.00  0.00    -0.273 OA
HETATM   14  H   UNL     1      26.326  45.712  50.617  1.00  0.00     0.169 HD
BRANCH  12  15
HETATM   15  C   UNL     1      26.389  45.328  53.074  1.00  0.00     0.103 C 
BRANCH  15  16
HETATM   16  C   UNL     1      26.518  45.484  54.591  1.00  0.00     0.018 C 
BRANCH  16  17
HETATM   17  C   UNL     1      27.845  44.934  55.159  1.00  0.00     0.015 C 
HETATM   18  C   UNL     1      28.905  46.041  55.207  1.00  0.00     0.015 C 
BRANCH  17  19
HETATM   19  C   UNL     1      28.364  43.735  54.380  1.00  0.00    -0.054 A 
HETATM   20  C   UNL     1      29.636  43.738  53.786  1.00  0.00     0.007 A 
HETATM   21  C   UNL     1      30.089  42.630  53.068  1.00  0.00     0.001 A 
HETATM   22  C   UNL     1      29.281  41.505  52.937  1.00  0.00     0.000 A 
HETATM   23  C   UNL     1      28.019  41.484  53.527  1.00  0.00     0.001 A 
HETATM   24  C   UNL     1      27.562  42.591  54.245  1.00  0.00     0.007 A 
ENDBRANCH  17  19
ENDBRANCH  16  17
ENDBRANCH  15  16
ENDBRANCH  12  15
ENDBRANCH   1  11
BRANCH   8  25
HETATM   25  C   UNL     1      21.554  48.769  48.361  1.00  0.00     0.270 C 
HETATM   26  N   UNL     1      21.149  47.933  47.357  1.00  0.00    -0.365 N 
HETATM   27  H   UNL     1      21.789  47.744  46.595  1.00  0.00     0.159 HD
HETATM   28  H   UNL     1      20.230  47.519  47.387  1.00  0.00     0.159 HD
HETATM   29  O   UNL     1      20.822  49.034  49.309  1.00  0.00    -0.266 OA
ENDBRANCH   8  25
TORSDOF 6
ENDMDL
MODEL 7
REMARK VINA RESULT:      -8.6      2.068      3.300
REMARK  6 active torsions:
REMARK  status: ('A' for Active; 'I' for Inactive)
REMARK    1  A    between atoms: C_2  and  C_3 
REMARK    2  A    between atoms: C_2  and  C_9 
REMARK    3  A    between atoms: C_9  and  C_10 
REMARK    4  A    between atoms: C_10  and  C_11 
REMARK       I    between atoms: C_11  and  N_12 
REMARK    5  A    between atoms: N_12  and  C_13 
REMARK    6  A    between atoms: C_20  and  C_21 
REMARK       I    between atoms: C_21  and  N_22 
ROOT
HETATM    1  C   UNL     1      23.800  48.649  49.058  1.00  0.00     0.035 A 
HETATM    2  C   UNL     1      22.439  48.342  49.226  1.00  0.00     0.046 A 
HETATM    3  C   UNL     1      21.465  49.347  49.046  1.00  0.00     0.030 A 
HETATM    4  C   UNL     1      21.881  50.628  48.705  1.00  0.00     0.063 A 
HETATM    5  N   UNL     1      20.736  51.366  48.598  1.00  0.00    -0.277 N 
HETATM    6  H   UNL     1      20.660  52.348  48.359  1.00  0.00     0.189 HD
HETATM    7  N   UNL     1      19.607  50.679  48.841  1.00  0.00    -0.168 NA
HETATM    8  C   UNL     1      20.043  49.429  49.121  1.00  0.00     0.156 A 
HETATM    9  C   UNL     1      23.223  50.969  48.533  1.00  0.00     0.034 A 
HETATM   10  C   UNL     1      24.172  49.953  48.716  1.00  0.00     0.032 A 
ENDROOT
BRANCH   1  11
HETATM   11  N   UNL     1      24.719  47.592  49.239  1.00  0.00    -0.327 N 
HETATM   12  C   UNL     1      25.293  47.171  50.423  1.00  0.00     0.222 C 
HETATM   13  O   UNL     1      25.071  47.620  51.544  1.00  0.00    -0.273 OA
HETATM   14  H   UNL     1      24.967  47.077  48.401  1.00  0.00     0.169 HD
BRANCH  12  15
HETATM   15  C   UNL     1      26.292  46.042  50.233  1.00  0.00     0.103 C 
BRANCH  15  16
HETATM   16  C   UNL     1      26.484  45.238  51.522  1.00  0.00     0.018 C 
BRANCH  16  17
HETATM   17  C   UNL     1      27.471  44.059  51.374  1.00  0.00     0.015 C 
HETATM   18  C   UNL     1      26.713  42.764  51.056  1.00  0.00     0.015 C 
BRANCH  17  19
HETATM   19  C   UNL     1      28.350  43.873  52.601  1.00  0.00    -0.054 A 
HETATM   20  C   UNL     1      28.071  44.528  53.811  1.00  0.00     0.007 A 
HETATM   21  C   UNL     1      28.895  44.350  54.923  1.00  0.00     0.001 A 
HETATM   22  C   UNL     1      30.005  43.513  54.843  1.00  0.00     0.000 A 
HETATM   23  C   UNL     1      30.291  42.851  53.651  1.00  0.00     0.001 A 
HETATM   24  C   UNL     1      29.469  43.028  52.537  1.00  0.00     0.007 A 
ENDBRANCH  17  19
ENDBRANCH  16  17
ENDBRANCH  15  16
ENDBRANCH  12  15
ENDBRANCH   1  11
BRANCH   8  25
HETATM   25  C   UNL     1      19.107  48.347  49.450  1.00  0.00     0.270 C 
HETATM   26  N   UNL     1      18.958  48.126  50.792  1.00  0.00    -0.365 N 
HETATM   27  H   UNL     1      19.482  48.702  51.440  1.00  0.00     0.159 HD
HETATM   28  H   UNL     1      18.335  47.403  51.117  1.00  0.00     0.159 HD
HETATM   29  O   UNL     1      18.497  47.681  48.620  1.00  0.00    -0.266 OA
ENDBRANCH   8  25
TORSDOF 6
ENDMDL
MODEL 8
REMARK VINA RESULT:      -8.4      3.317     10.112
REMARK  6 active torsions:
REMARK  status: ('A' for Active; 'I' for Inactive)
REMARK    1  A    between atoms: C_2  and  C_3 
REMARK    2  A    between atoms: C_2  and  C_9 
REMARK    3  A    between atoms: C_9  and  C_10 
REMARK    4  A    between atoms: C_10  and  C_11 
REMARK       I    between atoms: C_11  and  N_12 
REMARK    5  A    between atoms: N_12  and  C_13 
REMARK    6  A    between atoms: C_20  and  C_21 
REMARK       I    between atoms: C_21  and  N_22 
ROOT
HETATM    1  C   UNL     1      25.189  46.158  51.795  1.00  0.00     0.035 A 
HETATM    2  C   UNL     1      25.738  44.865  51.784  1.00  0.00     0.046 A 
HETATM    3  C   UNL     1      26.667  44.488  52.777  1.00  0.00     0.030 A 
HETATM    4  C   UNL     1      27.019  45.415  53.749  1.00  0.00     0.063 A 
HETATM    5  N   UNL     1      27.914  44.772  54.557  1.00  0.00    -0.277 N 
HETATM    6  H   UNL     1      28.379  45.147  55.376  1.00  0.00     0.189 HD
HETATM    7  N   UNL     1      28.179  43.505  54.197  1.00  0.00    -0.168 NA
HETATM    8  C   UNL     1      27.416  43.316  53.096  1.00  0.00     0.156 A 
HETATM    9  C   UNL     1      26.496  46.708  53.789  1.00  0.00     0.034 A 
HETATM   10  C   UNL     1      25.574  47.059  52.792  1.00  0.00     0.032 A 
ENDROOT
BRANCH   1  11
HETATM   11  N   UNL     1      24.254  46.463  50.780  1.00  0.00    -0.327 N 
HETATM   12  C   UNL     1      24.265  47.550  49.927  1.00  0.00     0.222 C 
HETATM   13  O   UNL     1      25.120  48.429  49.873  1.00  0.00    -0.273 OA
HETATM   14  H   UNL     1      23.504  45.793  50.659  1.00  0.00     0.169 HD
BRANCH  12  15
HETATM   15  C   UNL     1      23.061  47.592  49.000  1.00  0.00     0.103 C 
BRANCH  15  16
HETATM   16  C   UNL     1      22.252  48.879  49.188  1.00  0.00     0.018 C 
BRANCH  16  17
HETATM   17  C   UNL     1      22.138  49.730  47.904  1.00  0.00     0.015 C 
HETATM   18  C   UNL     1      23.335  50.681  47.787  1.00  0.00     0.015 C 
BRANCH  17  19
HETATM   19  C   UNL     1      20.833  50.506  47.830  1.00  0.00    -0.054 A 
HETATM   20  C   UNL     1      19.833  50.176  46.900  1.00  0.00     0.007 A 
HETATM   21  C   UNL     1      18.645  50.907  46.842  1.00  0.00     0.001 A 
HETATM   22  C   UNL     1      18.438  51.973  47.713  1.00  0.00     0.000 A 
HETATM   23  C   UNL     1      19.417  52.308  48.646  1.00  0.00     0.001 A 
HETATM   24  C   UNL     1      20.607  51.580  48.705  1.00  0.00     0.007 A 
ENDBRANCH  17  19
ENDBRANCH  16  17
ENDBRANCH  15  16
ENDBRANCH  12  15
ENDBRANCH   1  11
BRANCH   8  25
HETATM   25  C   UNL     1      27.412  42.037  52.376  1.00  0.00     0.270 C 
HETATM   26  N   UNL     1      27.633  40.947  53.173  1.00  0.00    -0.365 N 
HETATM   27  H   UNL     1      27.777  41.093  54.165  1.00  0.00     0.159 HD
HETATM   28  H   UNL     1      27.646  40.023  52.770  1.00  0.00     0.159 HD
HETATM   29  O   UNL     1      27.230  41.921  51.168  1.00  0.00    -0.266 OA
ENDBRANCH   8  25
TORSDOF 6
ENDMDL
MODEL 9
REMARK VINA RESULT:      -8.4      2.197      2.968
REMARK  6 active torsions:
REMARK  status: ('A' for Active; 'I' for Inactive)
REMARK    1  A    between atoms: C_2  and  C_3 
REMARK    2  A    between atoms: C_2  and  C_9 
REMARK    3  A    between atoms: C_9  and  C_10 
REMARK    4  A    between atoms: C_10  and  C_11 
REMARK       I    between atoms: C_11  and  N_12 
REMARK    5  A    between atoms: N_12  and  C_13 
REMARK    6  A    between atoms: C_20  and  C_21 
REMARK       I    between atoms: C_21  and  N_22 
ROOT
HETATM    1  C   UNL     1      24.462  45.693  50.033  1.00  0.00     0.035 A 
HETATM    2  C   UNL     1      24.341  47.008  49.551  1.00  0.00     0.046 A 
HETATM    3  C   UNL     1      23.247  47.358  48.732  1.00  0.00     0.030 A 
HETATM    4  C   UNL     1      22.309  46.384  48.419  1.00  0.00     0.063 A 
HETATM    5  N   UNL     1      21.384  47.011  47.631  1.00  0.00    -0.277 N 
HETATM    6  H   UNL     1      20.552  46.602  47.220  1.00  0.00     0.189 HD
HETATM    7  N   UNL     1      21.639  48.310  47.401  1.00  0.00    -0.168 NA
HETATM    8  C   UNL     1      22.789  48.538  48.074  1.00  0.00     0.156 A 
HETATM    9  C   UNL     1      22.397  45.069  48.877  1.00  0.00     0.034 A 
HETATM   10  C   UNL     1      23.494  44.745  49.690  1.00  0.00     0.032 A 
ENDROOT
BRANCH   1  11
HETATM   11  N   UNL     1      25.574  45.416  50.859  1.00  0.00    -0.327 N 
HETATM   12  C   UNL     1      26.707  44.697  50.529  1.00  0.00     0.222 C 
HETATM   13  O   UNL     1      26.969  44.204  49.436  1.00  0.00    -0.273 OA
HETATM   14  H   UNL     1      25.535  45.808  51.793  1.00  0.00     0.169 HD
BRANCH  12  15
HETATM   15  C   UNL     1      27.673  44.542  51.693  1.00  0.00     0.103 C 
BRANCH  15  16
HETATM   16  C   UNL     1      26.987  43.922  52.913  1.00  0.00     0.018 C 
BRANCH  16  17
HETATM   17  C   UNL     1      27.182  44.736  54.212  1.00  0.00     0.015 C 
HETATM   18  C   UNL     1      26.925  46.225  53.953  1.00  0.00     0.015 C 
BRANCH  17  19
HETATM   19  C   UNL     1      28.558  44.533  54.829  1.00  0.00    -0.054 A 
HETATM   20  C   UNL     1      29.307  43.370  54.590  1.00  0.00     0.007 A 
HETATM   21  C   UNL     1      30.564  43.200  55.172  1.00  0.00     0.001 A 
HETATM   22  C   UNL     1      31.091  44.190  55.997  1.00  0.00     0.000 A 
HETATM   23  C   UNL     1      30.362  45.353  56.238  1.00  0.00     0.001 A 
HETATM   24  C   UNL     1      29.104  45.525  55.658  1.00  0.00     0.007 A 
ENDBRANCH  17  19
ENDBRANCH  16  17
ENDBRANCH  15  16
ENDBRANCH  12  15
ENDBRANCH   1  11
BRANCH   8  25
HETATM   25  C   UNL     1      23.424  49.862  48.081  1.00  0.00     0.270 C 
HETATM   26  N   UNL     1      22.925  50.716  49.027  1.00  0.00    -0.365 N 
HETATM   27  H   UNL     1      22.183  50.388  49.633  1.00  0.00     0.159 HD
HETATM   28  H   UNL     1      23.299  51.648  49.110  1.00  0.00     0.159 HD
HETATM   29  O   UNL     1      24.324  50.204  47.320  1.00  0.00    -0.266 OA
ENDBRANCH   8  25
TORSDOF 6
ENDMDL
MODEL 10
REMARK VINA RESULT:      -8.4      4.104      7.805
REMARK  6 active torsions:
REMARK  status: ('A' for Active; 'I' for Inactive)
REMARK    1  A    between atoms: C_2  and  C_3 
REMARK    2  A    between atoms: C_2  and  C_9 
REMARK    3  A    between atoms: C_9  and  C_10 
REMARK    4  A    between atoms: C_10  and  C_11 
REMARK       I    between atoms: C_11  and  N_12 
REMARK    5  A    between atoms: N_12  and  C_13 
REMARK    6  A    between atoms: C_20  and  C_21 
REMARK       I    between atoms: C_21  and  N_22 
ROOT
HETATM    1  C   UNL     1      29.296  43.171  53.351  1.00  0.00     0.035 A 
HETATM    2  C   UNL     1      28.340  44.166  53.617  1.00  0.00     0.046 A 
HETATM    3  C   UNL     1      28.508  45.023  54.725  1.00  0.00     0.030 A 
HETATM    4  C   UNL     1      29.626  44.860  55.533  1.00  0.00     0.063 A 
HETATM    5  N   UNL     1      29.518  45.819  56.501  1.00  0.00    -0.277 N 
HETATM    6  H   UNL     1      30.163  45.995  57.263  1.00  0.00     0.189 HD
HETATM    7  N   UNL     1      28.425  46.594  56.396  1.00  0.00    -0.168 NA
HETATM    8  C   UNL     1      27.790  46.112  55.303  1.00  0.00     0.156 A 
HETATM    9  C   UNL     1      30.594  43.882  55.300  1.00  0.00     0.034 A 
HETATM   10  C   UNL     1      30.405  43.042  54.193  1.00  0.00     0.032 A 
ENDROOT
BRANCH   1  11
HETATM   11  N   UNL     1      29.072  42.357  52.218  1.00  0.00    -0.327 N 
HETATM   12  C   UNL     1      28.391  41.156  52.168  1.00  0.00     0.222 C 
HETATM   13  O   UNL     1      27.819  40.600  53.100  1.00  0.00    -0.273 OA
HETATM   14  H   UNL     1      29.442  42.712  51.343  1.00  0.00     0.169 HD
BRANCH  12  15
HETATM   15  C   UNL     1      28.404  40.522  50.786  1.00  0.00     0.103 C 
BRANCH  15  16
HETATM   16  C   UNL     1      27.606  41.355  49.780  1.00  0.00     0.018 C 
BRANCH  16  17
HETATM   17  C   UNL     1      26.158  41.650  50.231  1.00  0.00     0.015 C 
HETATM   18  C   UNL     1      25.157  41.094  49.212  1.00  0.00     0.015 C 
BRANCH  17  19
HETATM   19  C   UNL     1      25.908  43.132  50.468  1.00  0.00    -0.054 A 
HETATM   20  C   UNL     1      24.765  43.586  51.144  1.00  0.00     0.007 A 
HETATM   21  C   UNL     1      24.550  44.950  51.344  1.00  0.00     0.001 A 
HETATM   22  C   UNL     1      25.476  45.879  50.875  1.00  0.00     0.000 A 
HETATM   23  C   UNL     1      26.619  45.443  50.209  1.00  0.00     0.001 A 
HETATM   24  C   UNL     1      26.835  44.079  50.006  1.00  0.00     0.007 A 
ENDBRANCH  17  19
ENDBRANCH  16  17
ENDBRANCH  15  16
ENDBRANCH  12  15
ENDBRANCH   1  11
BRANCH   8  25
HETATM   25  C   UNL     1      26.526  46.692  54.833  1.00  0.00     0.270 C 
HETATM   26  N   UNL     1      26.503  48.060  54.839  1.00  0.00    -0.365 N 
HETATM   27  H   UNL     1      27.327  48.557  55.154  1.00  0.00     0.159 HD
HETATM   28  H   UNL     1      25.678  48.550  54.531  1.00  0.00     0.159 HD
HETATM   29  O   UNL     1      25.558  46.037  54.462  1.00  0.00    -0.266 OA
ENDBRANCH   8  25
TORSDOF 6
ENDMDL
