MODEL 1
REMARK VINA RESULT:      -8.7      0.000      0.000
REMARK  3 active torsions:
REMARK  status: ('A' for Active; 'I' for Inactive)
REMARK    1  A    between atoms: C_4  and  C_5 
REMARK    2  A    between atoms: C_11  and  C_12 
REMARK    3  A    between atoms: C_21  and  N_22 
ROOT
HETATM    1  C   UNL     1      33.119  49.149  41.717  1.00  0.00     0.071 A 
HETATM    2  N   UNL     1      33.523  47.831  41.770  1.00  0.00    -0.274 N 
HETATM    3  H   UNL     1      34.340  47.457  42.240  1.00  0.00     0.189 HD
HETATM    4  N   UNL     1      32.755  46.986  41.055  1.00  0.00    -0.148 NA
HETATM    5  C   UNL     1      31.834  47.801  40.557  1.00  0.00     0.199 A 
HETATM    6  C   UNL     1      31.960  49.134  40.958  1.00  0.00     0.036 A 
HETATM    7  C   UNL     1      30.987  50.166  40.491  1.00  0.00     0.081 C 
HETATM    8  C   UNL     1      30.194  49.606  39.295  1.00  0.00     0.077 C 
HETATM    9  C   UNL     1      29.468  50.548  38.507  1.00  0.00     0.100 C 
HETATM   10  N   UNL     1      28.901  51.327  37.862  1.00  0.00    -0.192 NA
HETATM   11  C   UNL     1      30.176  48.285  38.973  1.00  0.00     0.140 C 
HETATM   12  O   UNL     1      30.924  47.337  39.683  1.00  0.00    -0.277 OA
ENDROOT
BRANCH   7  13
HETATM   13  C   UNL     1      30.018  50.705  41.603  1.00  0.00     0.022 C 
HETATM   14  C   UNL     1      28.601  50.200  41.444  1.00  0.00    -0.025 C 
HETATM   15  C   UNL     1      27.533  50.997  41.292  1.00  0.00    -0.030 C 
HETATM   16  C   UNL     1      27.615  52.492  41.224  1.00  0.00     0.027 C 
HETATM   17  C   UNL     1      29.036  53.009  41.003  1.00  0.00     0.004 C 
HETATM   18  C   UNL     1      30.057  52.236  41.835  1.00  0.00     0.010 C 
ENDBRANCH   7  13
BRANCH  11  19
HETATM   19  N   UNL     1      29.459  47.727  37.937  1.00  0.00    -0.282 NA
HETATM   20  H   UNL     1      29.111  46.784  38.096  1.00  0.00     0.126 HD
HETATM   21  H   UNL     1      28.743  48.363  37.590  1.00  0.00     0.126 HD
ENDBRANCH  11  19
BRANCH   1  22
HETATM   22  C   UNL     1      33.883  50.220  42.342  1.00  0.00    -0.007 A 
HETATM   23  C   UNL     1      35.219  50.441  41.981  1.00  0.00     0.014 A 
HETATM   24  C   UNL     1      35.959  51.461  42.585  1.00  0.00     0.001 A 
HETATM   25  C   UNL     1      35.371  52.266  43.559  1.00  0.00     0.000 A 
HETATM   26  C   UNL     1      34.044  52.053  43.928  1.00  0.00     0.001 A 
HETATM   27  C   UNL     1      33.304  51.035  43.323  1.00  0.00     0.014 A 
ENDBRANCH   1  22
TORSDOF 3
ENDMDL
MODEL 2
REMARK VINA RESULT:      -8.6      2.808      5.988
REMARK  3 active torsions:
REMARK  status: ('A' for Active; 'I' for Inactive)
REMARK    1  A    between atoms: C_4  and  C_5 
REMARK    2  A    between atoms: C_11  and  C_12 
REMARK    3  A    between atoms: C_21  and  N_22 
ROOT
HETATM    1  C   UNL     1      30.457  52.014  41.692  1.00  0.00     0.071 A 
HETATM    2  N   UNL     1      30.092  52.702  42.831  1.00  0.00    -0.274 N 
HETATM    3  H   UNL     1      29.216  53.183  43.005  1.00  0.00     0.189 HD
HETATM    4  N   UNL     1      31.056  52.771  43.770  1.00  0.00    -0.148 NA
HETATM    5  C   UNL     1      32.044  52.090  43.205  1.00  0.00     0.199 A 
HETATM    6  C   UNL     1      31.736  51.552  41.952  1.00  0.00     0.036 A 
HETATM    7  C   UNL     1      32.744  50.746  41.199  1.00  0.00     0.081 C 
HETATM    8  C   UNL     1      34.136  50.977  41.817  1.00  0.00     0.077 C 
HETATM    9  C   UNL     1      35.261  50.569  41.039  1.00  0.00     0.100 C 
HETATM   10  N   UNL     1      36.166  50.253  40.387  1.00  0.00    -0.192 NA
HETATM   11  C   UNL     1      34.318  51.551  43.036  1.00  0.00     0.140 C 
HETATM   12  O   UNL     1      33.246  52.021  43.804  1.00  0.00    -0.277 OA
ENDROOT
BRANCH   7  13
HETATM   13  C   UNL     1      32.420  49.212  41.106  1.00  0.00     0.022 C 
HETATM   14  C   UNL     1      31.655  48.846  39.853  1.00  0.00    -0.025 C 
HETATM   15  C   UNL     1      30.451  48.256  39.855  1.00  0.00    -0.030 C 
HETATM   16  C   UNL     1      29.694  47.915  41.104  1.00  0.00     0.027 C 
HETATM   17  C   UNL     1      30.252  48.598  42.352  1.00  0.00     0.004 C 
HETATM   18  C   UNL     1      31.778  48.589  42.371  1.00  0.00     0.010 C 
ENDBRANCH   7  13
BRANCH  11  19
HETATM   19  N   UNL     1      35.537  51.750  43.649  1.00  0.00    -0.282 NA
HETATM   20  H   UNL     1      35.632  52.614  44.177  1.00  0.00     0.126 HD
HETATM   21  H   UNL     1      35.834  50.928  44.172  1.00  0.00     0.126 HD
ENDBRANCH  11  19
BRANCH   1  22
HETATM   22  C   UNL     1      29.585  51.923  40.528  1.00  0.00    -0.007 A 
HETATM   23  C   UNL     1      28.343  51.280  40.622  1.00  0.00     0.014 A 
HETATM   24  C   UNL     1      27.509  51.182  39.505  1.00  0.00     0.001 A 
HETATM   25  C   UNL     1      27.910  51.721  38.285  1.00  0.00     0.000 A 
HETATM   26  C   UNL     1      29.145  52.359  38.179  1.00  0.00     0.001 A 
HETATM   27  C   UNL     1      29.979  52.459  39.295  1.00  0.00     0.014 A 
ENDBRANCH   1  22
TORSDOF 3
ENDMDL
MODEL 3
REMARK VINA RESULT:      -8.5      3.570      6.828
REMARK  3 active torsions:
REMARK  status: ('A' for Active; 'I' for Inactive)
REMARK    1  A    between atoms: C_4  and  C_5 
REMARK    2  A    between atoms: C_11  and  C_12 
REMARK    3  A    between atoms: C_21  and  N_22 
ROOT
HETATM    1  C   UNL     1      27.318  50.758  40.002  1.00  0.00     0.071 A 
HETATM    2  N   UNL     1      26.671  51.566  40.916  1.00  0.00    -0.274 N 
HETATM    3  H   UNL     1      25.678  51.591  41.119  1.00  0.00     0.189 HD
HETATM    4  N   UNL     1      27.474  52.447  41.543  1.00  0.00    -0.148 NA
HETATM    5  C   UNL     1      28.660  52.166  41.018  1.00  0.00     0.199 A 
HETATM    6  C   UNL     1      28.654  51.109  40.103  1.00  0.00     0.036 A 
HETATM    7  C   UNL     1      29.917  50.667  39.440  1.00  0.00     0.081 C 
HETATM    8  C   UNL     1      30.990  51.757  39.625  1.00  0.00     0.077 C 
HETATM    9  C   UNL     1      32.142  51.674  38.786  1.00  0.00     0.100 C 
HETATM   10  N   UNL     1      33.062  51.608  38.084  1.00  0.00    -0.192 NA
HETATM   11  C   UNL     1      30.870  52.768  40.526  1.00  0.00     0.140 C 
HETATM   12  O   UNL     1      29.729  52.921  41.324  1.00  0.00    -0.277 OA
ENDROOT
BRANCH   7  13
HETATM   13  C   UNL     1      30.452  49.268  39.913  1.00  0.00     0.022 C 
HETATM   14  C   UNL     1      30.185  48.166  38.912  1.00  0.00    -0.025 C 
HETATM   15  C   UNL     1      29.476  47.061  39.184  1.00  0.00    -0.030 C 
HETATM   16  C   UNL     1      28.827  46.796  40.509  1.00  0.00     0.027 C 
HETATM   17  C   UNL     1      28.755  48.032  41.403  1.00  0.00     0.004 C 
HETATM   18  C   UNL     1      30.043  48.850  41.348  1.00  0.00     0.010 C 
ENDBRANCH   7  13
BRANCH  11  19
HETATM   19  N   UNL     1      31.813  53.748  40.755  1.00  0.00    -0.282 NA
HETATM   20  H   UNL     1      32.301  54.095  39.934  1.00  0.00     0.126 HD
HETATM   21  H   UNL     1      31.445  54.492  41.345  1.00  0.00     0.126 HD
ENDBRANCH  11  19
BRANCH   1  22
HETATM   22  C   UNL     1      26.599  49.817  39.154  1.00  0.00    -0.007 A 
HETATM   23  C   UNL     1      25.697  48.903  39.714  1.00  0.00     0.014 A 
HETATM   24  C   UNL     1      25.014  47.992  38.904  1.00  0.00     0.001 A 
HETATM   25  C   UNL     1      25.230  47.984  37.528  1.00  0.00     0.000 A 
HETATM   26  C   UNL     1      26.128  48.885  36.960  1.00  0.00     0.001 A 
HETATM   27  C   UNL     1      26.810  49.798  37.768  1.00  0.00     0.014 A 
ENDBRANCH   1  22
TORSDOF 3
ENDMDL
MODEL 4
REMARK VINA RESULT:      -8.4     12.947     15.375
REMARK  3 active torsions:
REMARK  status: ('A' for Active; 'I' for Inactive)
REMARK    1  A    between atoms: C_4  and  C_5 
REMARK    2  A    between atoms: C_11  and  C_12 
REMARK    3  A    between atoms: C_21  and  N_22 
ROOT
HETATM    1  C   UNL     1      18.689  48.876  48.800  1.00  0.00     0.071 A 
HETATM    2  N   UNL     1      18.347  47.901  49.715  1.00  0.00    -0.274 N 
HETATM    3  H   UNL     1      18.923  47.529  50.461  1.00  0.00     0.189 HD
HETATM    4  N   UNL     1      17.125  47.366  49.524  1.00  0.00    -0.148 NA
HETATM    5  C   UNL     1      16.687  48.042  48.470  1.00  0.00     0.199 A 
HETATM    6  C   UNL     1      17.568  49.019  47.999  1.00  0.00     0.036 A 
HETATM    7  C   UNL     1      17.206  49.872  46.827  1.00  0.00     0.081 C 
HETATM    8  C   UNL     1      16.015  49.233  46.089  1.00  0.00     0.077 C 
HETATM    9  C   UNL     1      15.746  49.708  44.770  1.00  0.00     0.100 C 
HETATM   10  N   UNL     1      15.552  50.088  43.692  1.00  0.00    -0.192 NA
HETATM   11  C   UNL     1      15.246  48.253  46.634  1.00  0.00     0.140 C 
HETATM   12  O   UNL     1      15.514  47.716  47.899  1.00  0.00    -0.277 OA
ENDROOT
BRANCH   7  13
HETATM   13  C   UNL     1      16.908  51.374  47.176  1.00  0.00     0.022 C 
HETATM   14  C   UNL     1      18.163  52.178  47.440  1.00  0.00    -0.025 C 
HETATM   15  C   UNL     1      18.412  52.823  48.589  1.00  0.00    -0.030 C 
HETATM   16  C   UNL     1      17.492  52.799  49.772  1.00  0.00     0.027 C 
HETATM   17  C   UNL     1      16.422  51.713  49.681  1.00  0.00     0.004 C 
HETATM   18  C   UNL     1      15.840  51.603  48.274  1.00  0.00     0.010 C 
ENDBRANCH   7  13
BRANCH  11  19
HETATM   19  N   UNL     1      14.151  47.671  46.032  1.00  0.00    -0.282 NA
HETATM   20  H   UNL     1      13.332  48.265  45.932  1.00  0.00     0.126 HD
HETATM   21  H   UNL     1      14.405  47.194  45.169  1.00  0.00     0.126 HD
ENDBRANCH  11  19
BRANCH   1  22
HETATM   22  C   UNL     1      20.008  49.494  48.782  1.00  0.00    -0.007 A 
HETATM   23  C   UNL     1      20.475  50.200  49.900  1.00  0.00     0.014 A 
HETATM   24  C   UNL     1      21.735  50.803  49.882  1.00  0.00     0.001 A 
HETATM   25  C   UNL     1      22.538  50.710  48.747  1.00  0.00     0.000 A 
HETATM   26  C   UNL     1      22.082  50.015  47.629  1.00  0.00     0.001 A 
HETATM   27  C   UNL     1      20.823  49.410  47.645  1.00  0.00     0.014 A 
ENDBRANCH   1  22
TORSDOF 3
ENDMDL
MODEL 5
REMARK VINA RESULT:      -8.3     12.178     15.506
REMARK  3 active torsions:
REMARK  status: ('A' for Active; 'I' for Inactive)
REMARK    1  A    between atoms: C_4  and  C_5 
REMARK    2  A    between atoms: C_11  and  C_12 
REMARK    3  A    between atoms: C_21  and  N_22 
ROOT
HETATM    1  C   UNL     1      17.605  51.610  48.036  1.00  0.00     0.071 A 
HETATM    2  N   UNL     1      17.059  52.052  49.224  1.00  0.00    -0.274 N 
HETATM    3  H   UNL     1      16.155  52.490  49.359  1.00  0.00     0.189 HD
HETATM    4  N   UNL     1      17.874  51.926  50.290  1.00  0.00    -0.148 NA
HETATM    5  C   UNL     1      18.952  51.370  49.752  1.00  0.00     0.199 A 
HETATM    6  C   UNL     1      18.845  51.100  48.384  1.00  0.00     0.036 A 
HETATM    7  C   UNL     1      19.973  50.461  47.643  1.00  0.00     0.081 C 
HETATM    8  C   UNL     1      21.253  50.557  48.494  1.00  0.00     0.077 C 
HETATM    9  C   UNL     1      22.490  50.312  47.825  1.00  0.00     0.100 C 
HETATM   10  N   UNL     1      23.489  50.133  47.265  1.00  0.00    -0.192 NA
HETATM   11  C   UNL     1      21.240  50.869  49.817  1.00  0.00     0.140 C 
HETATM   12  O   UNL     1      20.055  51.177  50.496  1.00  0.00    -0.277 OA
ENDROOT
BRANCH   7  13
HETATM   13  C   UNL     1      19.708  48.979  47.195  1.00  0.00     0.022 C 
HETATM   14  C   UNL     1      18.882  48.885  45.930  1.00  0.00    -0.025 C 
HETATM   15  C   UNL     1      17.706  48.246  45.848  1.00  0.00    -0.030 C 
HETATM   16  C   UNL     1      17.044  47.573  47.012  1.00  0.00     0.027 C 
HETATM   17  C   UNL     1      17.648  47.965  48.360  1.00  0.00     0.004 C 
HETATM   18  C   UNL     1      19.172  48.036  48.300  1.00  0.00     0.010 C 
ENDBRANCH   7  13
BRANCH  11  19
HETATM   19  N   UNL     1      22.350  50.936  50.632  1.00  0.00    -0.282 NA
HETATM   20  H   UNL     1      22.169  51.132  51.613  1.00  0.00     0.126 HD
HETATM   21  H   UNL     1      22.968  50.138  50.492  1.00  0.00     0.126 HD
ENDBRANCH  11  19
BRANCH   1  22
HETATM   22  C   UNL     1      16.915  51.761  46.762  1.00  0.00    -0.007 A 
HETATM   23  C   UNL     1      15.638  51.214  46.578  1.00  0.00     0.014 A 
HETATM   24  C   UNL     1      14.978  51.347  45.354  1.00  0.00     0.001 A 
HETATM   25  C   UNL     1      15.590  52.025  44.302  1.00  0.00     0.000 A 
HETATM   26  C   UNL     1      16.861  52.570  44.472  1.00  0.00     0.001 A 
HETATM   27  C   UNL     1      17.522  52.438  45.696  1.00  0.00     0.014 A 
ENDBRANCH   1  22
TORSDOF 3
ENDMDL
MODEL 6
REMARK VINA RESULT:      -8.3      2.562      5.530
REMARK  3 active torsions:
REMARK  status: ('A' for Active; 'I' for Inactive)
REMARK    1  A    between atoms: C_4  and  C_5 
REMARK    2  A    between atoms: C_11  and  C_12 
REMARK    3  A    between atoms: C_21  and  N_22 
ROOT
HETATM    1  C   UNL     1      31.355  50.466  39.356  1.00  0.00     0.071 A 
HETATM    2  N   UNL     1      32.275  50.573  38.333  1.00  0.00    -0.274 N 
HETATM    3  H   UNL     1      32.180  50.229  37.383  1.00  0.00     0.189 HD
HETATM    4  N   UNL     1      33.439  51.149  38.691  1.00  0.00    -0.148 NA
HETATM    5  C   UNL     1      33.229  51.427  39.971  1.00  0.00     0.199 A 
HETATM    6  C   UNL     1      31.957  51.084  40.439  1.00  0.00     0.036 A 
HETATM    7  C   UNL     1      31.569  51.350  41.857  1.00  0.00     0.081 C 
HETATM    8  C   UNL     1      32.839  51.637  42.681  1.00  0.00     0.077 C 
HETATM    9  C   UNL     1      32.710  51.579  44.101  1.00  0.00     0.100 C 
HETATM   10  N   UNL     1      32.597  51.507  45.253  1.00  0.00    -0.192 NA
HETATM   11  C   UNL     1      34.040  51.922  42.113  1.00  0.00     0.140 C 
HETATM   12  O   UNL     1      34.223  51.928  40.724  1.00  0.00    -0.277 OA
ENDROOT
BRANCH   7  13
HETATM   13  C   UNL     1      30.510  52.494  42.043  1.00  0.00     0.022 C 
HETATM   14  C   UNL     1      29.085  52.009  41.893  1.00  0.00    -0.025 C 
HETATM   15  C   UNL     1      28.220  52.488  40.987  1.00  0.00    -0.030 C 
HETATM   16  C   UNL     1      28.570  53.544  39.983  1.00  0.00     0.027 C 
HETATM   17  C   UNL     1      30.074  53.782  39.856  1.00  0.00     0.004 C 
HETATM   18  C   UNL     1      30.766  53.780  41.217  1.00  0.00     0.010 C 
ENDBRANCH   7  13
BRANCH  11  19
HETATM   19  N   UNL     1      35.198  52.219  42.801  1.00  0.00    -0.282 NA
HETATM   20  H   UNL     1      35.158  52.094  43.810  1.00  0.00     0.126 HD
HETATM   21  H   UNL     1      36.011  51.777  42.377  1.00  0.00     0.126 HD
ENDBRANCH  11  19
BRANCH   1  22
HETATM   22  C   UNL     1      30.082  49.779  39.186  1.00  0.00    -0.007 A 
HETATM   23  C   UNL     1      29.091  50.317  38.353  1.00  0.00     0.014 A 
HETATM   24  C   UNL     1      27.865  49.665  38.195  1.00  0.00     0.001 A 
HETATM   25  C   UNL     1      27.617  48.473  38.873  1.00  0.00     0.000 A 
HETATM   26  C   UNL     1      28.592  47.932  39.707  1.00  0.00     0.001 A 
HETATM   27  C   UNL     1      29.819  48.581  39.864  1.00  0.00     0.014 A 
ENDBRANCH   1  22
TORSDOF 3
ENDMDL
MODEL 7
REMARK VINA RESULT:      -8.1      2.594      3.585
REMARK  3 active torsions:
REMARK  status: ('A' for Active; 'I' for Inactive)
REMARK    1  A    between atoms: C_4  and  C_5 
REMARK    2  A    between atoms: C_11  and  C_12 
REMARK    3  A    between atoms: C_21  and  N_22 
ROOT
HETATM    1  C   UNL     1      30.439  49.680  40.818  1.00  0.00     0.071 A 
HETATM    2  N   UNL     1      30.599  49.004  42.011  1.00  0.00    -0.274 N 
HETATM    3  H   UNL     1      31.420  48.992  42.605  1.00  0.00     0.189 HD
HETATM    4  N   UNL     1      29.548  48.236  42.359  1.00  0.00    -0.148 NA
HETATM    5  C   UNL     1      28.700  48.457  41.362  1.00  0.00     0.199 A 
HETATM    6  C   UNL     1      29.154  49.369  40.404  1.00  0.00     0.036 A 
HETATM    7  C   UNL     1      28.304  49.730  39.231  1.00  0.00     0.081 C 
HETATM    8  C   UNL     1      27.169  48.696  39.095  1.00  0.00     0.077 C 
HETATM    9  C   UNL     1      26.465  48.674  37.854  1.00  0.00     0.100 C 
HETATM   10  N   UNL     1      25.915  48.653  36.833  1.00  0.00    -0.192 NA
HETATM   11  C   UNL     1      26.840  47.825  40.085  1.00  0.00     0.140 C 
HETATM   12  O   UNL     1      27.546  47.772  41.294  1.00  0.00    -0.277 OA
ENDROOT
BRANCH   7  13
HETATM   13  C   UNL     1      27.729  51.191  39.262  1.00  0.00     0.022 C 
HETATM   14  C   UNL     1      28.450  52.128  38.318  1.00  0.00    -0.025 C 
HETATM   15  C   UNL     1      29.072  53.251  38.706  1.00  0.00    -0.030 C 
HETATM   16  C   UNL     1      29.161  53.701  40.133  1.00  0.00     0.027 C 
HETATM   17  C   UNL     1      28.783  52.611  41.134  1.00  0.00     0.004 C 
HETATM   18  C   UNL     1      27.566  51.812  40.672  1.00  0.00     0.010 C 
ENDBRANCH   7  13
BRANCH  11  19
HETATM   19  N   UNL     1      25.815  46.904  40.029  1.00  0.00    -0.282 NA
HETATM   20  H   UNL     1      25.488  46.661  39.097  1.00  0.00     0.126 HD
HETATM   21  H   UNL     1      26.009  46.090  40.609  1.00  0.00     0.126 HD
ENDBRANCH  11  19
BRANCH   1  22
HETATM   22  C   UNL     1      31.507  50.476  40.228  1.00  0.00    -0.007 A 
HETATM   23  C   UNL     1      32.370  51.220  41.044  1.00  0.00     0.014 A 
HETATM   24  C   UNL     1      33.389  51.993  40.481  1.00  0.00     0.001 A 
HETATM   25  C   UNL     1      33.552  52.031  39.098  1.00  0.00     0.000 A 
HETATM   26  C   UNL     1      32.697  51.298  38.277  1.00  0.00     0.001 A 
HETATM   27  C   UNL     1      31.679  50.524  38.839  1.00  0.00     0.014 A 
ENDBRANCH   1  22
TORSDOF 3
ENDMDL
MODEL 8
REMARK VINA RESULT:      -7.9     12.713     15.019
REMARK  3 active torsions:
REMARK  status: ('A' for Active; 'I' for Inactive)
REMARK    1  A    between atoms: C_4  and  C_5 
REMARK    2  A    between atoms: C_11  and  C_12 
REMARK    3  A    between atoms: C_21  and  N_22 
ROOT
HETATM    1  C   UNL     1      19.146  47.913  49.559  1.00  0.00     0.071 A 
HETATM    2  N   UNL     1      18.859  47.845  50.907  1.00  0.00    -0.274 N 
HETATM    3  H   UNL     1      18.916  47.029  51.506  1.00  0.00     0.189 HD
HETATM    4  N   UNL     1      18.395  48.995  51.434  1.00  0.00    -0.148 NA
HETATM    5  C   UNL     1      18.413  49.808  50.387  1.00  0.00     0.199 A 
HETATM    6  C   UNL     1      18.908  49.233  49.213  1.00  0.00     0.036 A 
HETATM    7  C   UNL     1      19.004  50.031  47.954  1.00  0.00     0.081 C 
HETATM    8  C   UNL     1      18.152  51.306  48.100  1.00  0.00     0.077 C 
HETATM    9  C   UNL     1      17.846  52.016  46.901  1.00  0.00     0.100 C 
HETATM   10  N   UNL     1      17.587  52.571  45.916  1.00  0.00    -0.192 NA
HETATM   11  C   UNL     1      17.688  51.752  49.298  1.00  0.00     0.140 C 
HETATM   12  O   UNL     1      17.913  51.052  50.489  1.00  0.00    -0.277 OA
ENDROOT
BRANCH   7  13
HETATM   13  C   UNL     1      20.469  50.385  47.511  1.00  0.00     0.022 C 
HETATM   14  C   UNL     1      21.317  49.160  47.247  1.00  0.00    -0.025 C 
HETATM   15  C   UNL     1      22.461  48.887  47.890  1.00  0.00    -0.030 C 
HETATM   16  C   UNL     1      23.027  49.747  48.980  1.00  0.00     0.027 C 
HETATM   17  C   UNL     1      22.028  50.767  49.524  1.00  0.00     0.004 C 
HETATM   18  C   UNL     1      21.207  51.409  48.409  1.00  0.00     0.010 C 
ENDBRANCH   7  13
BRANCH  11  19
HETATM   19  N   UNL     1      16.951  52.902  49.489  1.00  0.00    -0.282 NA
HETATM   20  H   UNL     1      17.485  53.739  49.709  1.00  0.00     0.126 HD
HETATM   21  H   UNL     1      16.275  53.044  48.741  1.00  0.00     0.126 HD
ENDBRANCH  11  19
BRANCH   1  22
HETATM   22  C   UNL     1      19.559  46.745  48.793  1.00  0.00    -0.007 A 
HETATM   23  C   UNL     1      18.767  46.272  47.738  1.00  0.00     0.014 A 
HETATM   24  C   UNL     1      19.155  45.146  47.008  1.00  0.00     0.001 A 
HETATM   25  C   UNL     1      20.335  44.478  47.330  1.00  0.00     0.000 A 
HETATM   26  C   UNL     1      21.128  44.936  48.380  1.00  0.00     0.001 A 
HETATM   27  C   UNL     1      20.742  46.064  49.109  1.00  0.00     0.014 A 
ENDBRANCH   1  22
TORSDOF 3
ENDMDL
MODEL 9
REMARK VINA RESULT:      -7.7      3.512      5.755
REMARK  3 active torsions:
REMARK  status: ('A' for Active; 'I' for Inactive)
REMARK    1  A    between atoms: C_4  and  C_5 
REMARK    2  A    between atoms: C_11  and  C_12 
REMARK    3  A    between atoms: C_21  and  N_22 
ROOT
HETATM    1  C   UNL     1      29.022  49.642  39.428  1.00  0.00     0.071 A 
HETATM    2  N   UNL     1      29.346  50.656  38.549  1.00  0.00    -0.274 N 
HETATM    3  H   UNL     1      30.240  51.123  38.453  1.00  0.00     0.189 HD
HETATM    4  N   UNL     1      28.316  51.085  37.794  1.00  0.00    -0.148 NA
HETATM    5  C   UNL     1      27.326  50.302  38.202  1.00  0.00     0.199 A 
HETATM    6  C   UNL     1      27.692  49.358  39.166  1.00  0.00     0.036 A 
HETATM    7  C   UNL     1      26.688  48.396  39.711  1.00  0.00     0.081 C 
HETATM    8  C   UNL     1      25.273  48.890  39.356  1.00  0.00     0.077 C 
HETATM    9  C   UNL     1      24.187  48.298  40.069  1.00  0.00     0.100 C 
HETATM   10  N   UNL     1      23.316  47.825  40.671  1.00  0.00    -0.192 NA
HETATM   11  C   UNL     1      25.037  49.849  38.422  1.00  0.00     0.140 C 
HETATM   12  O   UNL     1      26.077  50.499  37.745  1.00  0.00    -0.277 OA
ENDROOT
BRANCH   7  13
HETATM   13  C   UNL     1      26.892  46.906  39.256  1.00  0.00     0.022 C 
HETATM   14  C   UNL     1      27.757  46.112  40.210  1.00  0.00    -0.025 C 
HETATM   15  C   UNL     1      28.900  45.506  39.859  1.00  0.00    -0.030 C 
HETATM   16  C   UNL     1      29.485  45.571  38.480  1.00  0.00     0.027 C 
HETATM   17  C   UNL     1      28.854  46.654  37.607  1.00  0.00     0.004 C 
HETATM   18  C   UNL     1      27.339  46.716  37.785  1.00  0.00     0.010 C 
ENDBRANCH   7  13
BRANCH  11  19
HETATM   19  N   UNL     1      23.792  50.304  38.042  1.00  0.00    -0.282 NA
HETATM   20  H   UNL     1      23.684  50.528  37.056  1.00  0.00     0.126 HD
HETATM   21  H   UNL     1      23.049  49.707  38.400  1.00  0.00     0.126 HD
ENDBRANCH  11  19
BRANCH   1  22
HETATM   22  C   UNL     1      29.977  49.121  40.396  1.00  0.00    -0.007 A 
HETATM   23  C   UNL     1      31.158  48.501  39.965  1.00  0.00     0.014 A 
HETATM   24  C   UNL     1      32.071  47.991  40.891  1.00  0.00     0.001 A 
HETATM   25  C   UNL     1      31.810  48.092  42.256  1.00  0.00     0.000 A 
HETATM   26  C   UNL     1      30.638  48.702  42.697  1.00  0.00     0.001 A 
HETATM   27  C   UNL     1      29.725  49.214  41.772  1.00  0.00     0.014 A 
ENDBRANCH   1  22
TORSDOF 3
ENDMDL
MODEL 10
REMARK VINA RESULT:      -7.7      2.581      6.035
REMARK  3 active torsions:
REMARK  status: ('A' for Active; 'I' for Inactive)
REMARK    1  A    between atoms: C_4  and  C_5 
REMARK    2  A    between atoms: C_11  and  C_12 
REMARK    3  A    between atoms: C_21  and  N_22 
ROOT
HETATM    1  C   UNL     1      28.462  47.070  39.975  1.00  0.00     0.071 A 
HETATM    2  N   UNL     1      28.928  45.965  39.293  1.00  0.00    -0.274 N 
HETATM    3  H   UNL     1      28.376  45.241  38.846  1.00  0.00     0.189 HD
HETATM    4  N   UNL     1      30.269  45.836  39.295  1.00  0.00    -0.148 NA
HETATM    5  C   UNL     1      30.650  46.904  39.983  1.00  0.00     0.199 A 
HETATM    6  C   UNL     1      29.603  47.736  40.391  1.00  0.00     0.036 A 
HETATM    7  C   UNL     1      29.878  48.985  41.162  1.00  0.00     0.081 C 
HETATM    8  C   UNL     1      31.317  48.932  41.709  1.00  0.00     0.077 C 
HETATM    9  C   UNL     1      31.648  49.862  42.740  1.00  0.00     0.100 C 
HETATM   10  N   UNL     1      31.896  50.608  43.592  1.00  0.00    -0.192 NA
HETATM   11  C   UNL     1      32.247  48.047  41.262  1.00  0.00     0.140 C 
HETATM   12  O   UNL     1      31.946  47.078  40.296  1.00  0.00    -0.277 OA
ENDROOT
BRANCH   7  13
HETATM   13  C   UNL     1      29.630  50.316  40.366  1.00  0.00     0.022 C 
HETATM   14  C   UNL     1      30.910  50.964  39.888  1.00  0.00    -0.025 C 
HETATM   15  C   UNL     1      31.291  52.206  40.219  1.00  0.00    -0.030 C 
HETATM   16  C   UNL     1      30.511  53.098  41.136  1.00  0.00     0.027 C 
HETATM   17  C   UNL     1      29.431  52.357  41.923  1.00  0.00     0.004 C 
HETATM   18  C   UNL     1      28.694  51.339  41.057  1.00  0.00     0.010 C 
ENDBRANCH   7  13
BRANCH  11  19
HETATM   19  N   UNL     1      33.555  47.979  41.691  1.00  0.00    -0.282 NA
HETATM   20  H   UNL     1      34.192  47.461  41.091  1.00  0.00     0.126 HD
HETATM   21  H   UNL     1      33.912  48.895  41.956  1.00  0.00     0.126 HD
ENDBRANCH  11  19
BRANCH   1  22
HETATM   22  C   UNL     1      27.040  47.319  40.169  1.00  0.00    -0.007 A 
HETATM   23  C   UNL     1      26.283  46.490  41.008  1.00  0.00     0.014 A 
HETATM   24  C   UNL     1      24.917  46.720  41.188  1.00  0.00     0.001 A 
HETATM   25  C   UNL     1      24.294  47.778  40.529  1.00  0.00     0.000 A 
HETATM   26  C   UNL     1      25.036  48.606  39.689  1.00  0.00     0.001 A 
HETATM   27  C   UNL     1      26.403  48.378  39.509  1.00  0.00     0.014 A 
ENDBRANCH   1  22
TORSDOF 3
ENDMDL
