MODEL 1
REMARK VINA RESULT:      -8.7      0.000      0.000
REMARK  5 active torsions:
REMARK  status: ('A' for Active; 'I' for Inactive)
REMARK    1  A    between atoms: C_2  and  N_3 
REMARK    2  A    between atoms: C_2  and  C_21 
REMARK       I    between atoms: N_3  and  C_5 
REMARK       I    between atoms: C_5  and  N_6 
REMARK    3  A    between atoms: N_6  and  C_7 
REMARK    4  A    between atoms: C_7  and  C_8 
REMARK    5  A    between atoms: C_10  and  C_11 
ROOT
HETATM    1  N   UNL     1      26.314  47.713  50.994  1.00  0.00    -0.218 N 
HETATM    2  H   UNL     1      26.180  48.528  51.574  1.00  0.00     0.178 HD
HETATM    3  C   UNL     1      26.463  46.541  51.655  1.00  0.00     0.670 C 
HETATM    4  N   UNL     1      26.849  45.422  50.996  1.00  0.00    -0.221 N 
HETATM    5  N   UNL     1      26.223  46.502  52.985  1.00  0.00    -0.231 N 
HETATM    6  C   UNL     1      25.634  47.567  53.788  1.00  0.00     0.165 C 
HETATM    7  H   UNL     1      27.266  45.552  50.085  1.00  0.00     0.178 HD
HETATM    8  H   UNL     1      26.663  45.722  53.475  1.00  0.00     0.177 HD
ENDROOT
BRANCH   4   9
HETATM    9  C   UNL     1      26.764  44.049  51.517  1.00  0.00     0.199 C 
BRANCH   9  10
HETATM   10  C   UNL     1      27.940  43.731  52.361  1.00  0.00     0.077 A 
HETATM   11  N   UNL     1      28.047  44.225  53.648  1.00  0.00    -0.225 NA
HETATM   12  C   UNL     1      29.213  43.762  54.073  1.00  0.00     0.179 A 
HETATM   13  O   UNL     1      29.844  42.946  53.174  1.00  0.00    -0.301 OA
HETATM   14  C   UNL     1      29.026  42.936  52.086  1.00  0.00     0.173 A 
BRANCH  12  15
HETATM   15  C   UNL     1      29.909  44.029  55.327  1.00  0.00     0.017 A 
HETATM   16  C   UNL     1      29.629  45.206  56.039  1.00  0.00     0.016 A 
HETATM   17  C   UNL     1      30.293  45.494  57.233  1.00  0.00     0.001 A 
HETATM   18  C   UNL     1      31.239  44.603  57.734  1.00  0.00     0.000 A 
HETATM   19  C   UNL     1      31.525  43.427  57.042  1.00  0.00     0.001 A 
HETATM   20  C   UNL     1      30.866  43.143  55.843  1.00  0.00     0.016 A 
ENDBRANCH  12  15
ENDBRANCH   9  10
ENDBRANCH   4   9
BRANCH   1  21
HETATM   21  C   UNL     1      26.336  47.975  49.540  1.00  0.00     0.135 C 
HETATM   22  C   UNL     1      27.615  48.670  49.079  1.00  0.00     0.038 C 
BRANCH  21  23
HETATM   23  C   UNL     1      25.085  48.679  49.074  1.00  0.00     0.005 A 
HETATM   24  S   UNL     1      23.503  48.087  49.395  1.00  0.00    -0.104 SA
HETATM   25  C   UNL     1      22.762  49.370  48.550  1.00  0.00     0.050 A 
HETATM   26  C   UNL     1      23.687  50.237  48.019  1.00  0.00     0.008 A 
HETATM   27  C   UNL     1      25.023  49.837  48.315  1.00  0.00     0.017 A 
ENDBRANCH  21  23
ENDBRANCH   1  21
TORSDOF 5
ENDMDL
MODEL 2
REMARK VINA RESULT:      -8.5      2.031      3.086
REMARK  5 active torsions:
REMARK  status: ('A' for Active; 'I' for Inactive)
REMARK    1  A    between atoms: C_2  and  N_3 
REMARK    2  A    between atoms: C_2  and  C_21 
REMARK       I    between atoms: N_3  and  C_5 
REMARK       I    between atoms: C_5  and  N_6 
REMARK    3  A    between atoms: N_6  and  C_7 
REMARK    4  A    between atoms: C_7  and  C_8 
REMARK    5  A    between atoms: C_10  and  C_11 
ROOT
HETATM    1  N   UNL     1      25.042  45.838  49.928  1.00  0.00    -0.218 N 
HETATM    2  H   UNL     1      25.247  45.481  49.006  1.00  0.00     0.178 HD
HETATM    3  C   UNL     1      25.221  44.966  50.948  1.00  0.00     0.670 C 
HETATM    4  N   UNL     1      24.787  45.266  52.196  1.00  0.00    -0.221 N 
HETATM    5  N   UNL     1      25.840  43.788  50.703  1.00  0.00    -0.231 N 
HETATM    6  C   UNL     1      26.514  43.407  49.468  1.00  0.00     0.165 C 
HETATM    7  H   UNL     1      24.112  46.013  52.275  1.00  0.00     0.178 HD
HETATM    8  H   UNL     1      25.649  43.057  51.390  1.00  0.00     0.177 HD
ENDROOT
BRANCH   4   9
HETATM    9  C   UNL     1      25.171  44.561  53.428  1.00  0.00     0.199 C 
BRANCH   9  10
HETATM   10  C   UNL     1      26.377  45.175  54.034  1.00  0.00     0.077 A 
HETATM   11  N   UNL     1      27.251  44.425  54.798  1.00  0.00    -0.225 NA
HETATM   12  C   UNL     1      28.172  45.297  55.181  1.00  0.00     0.179 A 
HETATM   13  O   UNL     1      27.992  46.552  54.665  1.00  0.00    -0.301 OA
HETATM   14  C   UNL     1      26.844  46.464  53.939  1.00  0.00     0.173 A 
BRANCH  12  15
HETATM   15  C   UNL     1      29.301  45.108  56.084  1.00  0.00     0.017 A 
HETATM   16  C   UNL     1      30.276  44.143  55.784  1.00  0.00     0.016 A 
HETATM   17  C   UNL     1      31.359  43.932  56.641  1.00  0.00     0.001 A 
HETATM   18  C   UNL     1      31.485  44.690  57.802  1.00  0.00     0.000 A 
HETATM   19  C   UNL     1      30.530  45.657  58.111  1.00  0.00     0.001 A 
HETATM   20  C   UNL     1      29.441  45.862  57.258  1.00  0.00     0.016 A 
ENDBRANCH  12  15
ENDBRANCH   9  10
ENDBRANCH   4   9
BRANCH   1  21
HETATM   21  C   UNL     1      24.570  47.237  49.968  1.00  0.00     0.135 C 
HETATM   22  C   UNL     1      23.227  47.434  49.268  1.00  0.00     0.038 C 
BRANCH  21  23
HETATM   23  C   UNL     1      25.628  48.203  49.490  1.00  0.00     0.005 A 
HETATM   24  S   UNL     1      25.265  49.597  48.551  1.00  0.00    -0.104 SA
HETATM   25  C   UNL     1      26.906  50.050  48.440  1.00  0.00     0.050 A 
HETATM   26  C   UNL     1      27.729  49.162  49.091  1.00  0.00     0.008 A 
HETATM   27  C   UNL     1      26.995  48.097  49.690  1.00  0.00     0.017 A 
ENDBRANCH  21  23
ENDBRANCH   1  21
TORSDOF 5
ENDMDL
MODEL 3
REMARK VINA RESULT:      -8.4      2.392      3.817
REMARK  5 active torsions:
REMARK  status: ('A' for Active; 'I' for Inactive)
REMARK    1  A    between atoms: C_2  and  N_3 
REMARK    2  A    between atoms: C_2  and  C_21 
REMARK       I    between atoms: N_3  and  C_5 
REMARK       I    between atoms: C_5  and  N_6 
REMARK    3  A    between atoms: N_6  and  C_7 
REMARK    4  A    between atoms: C_7  and  C_8 
REMARK    5  A    between atoms: C_10  and  C_11 
ROOT
HETATM    1  N   UNL     1      23.049  46.996  48.670  1.00  0.00    -0.218 N 
HETATM    2  H   UNL     1      22.614  47.178  47.778  1.00  0.00     0.178 HD
HETATM    3  C   UNL     1      23.196  45.689  48.995  1.00  0.00     0.670 C 
HETATM    4  N   UNL     1      23.577  45.328  50.244  1.00  0.00    -0.221 N 
HETATM    5  N   UNL     1      22.955  44.748  48.054  1.00  0.00    -0.231 N 
HETATM    6  C   UNL     1      22.718  44.986  46.635  1.00  0.00     0.165 C 
HETATM    7  H   UNL     1      23.486  46.027  50.967  1.00  0.00     0.178 HD
HETATM    8  H   UNL     1      22.750  43.819  48.424  1.00  0.00     0.177 HD
ENDROOT
BRANCH   4   9
HETATM    9  C   UNL     1      24.053  43.994  50.641  1.00  0.00     0.199 C 
BRANCH   9  10
HETATM   10  C   UNL     1      25.512  44.013  50.908  1.00  0.00     0.077 A 
HETATM   11  N   UNL     1      26.008  43.759  52.173  1.00  0.00    -0.225 NA
HETATM   12  C   UNL     1      27.319  43.884  52.035  1.00  0.00     0.179 A 
HETATM   13  O   UNL     1      27.717  44.140  50.750  1.00  0.00    -0.301 OA
HETATM   14  C   UNL     1      26.557  44.223  50.042  1.00  0.00     0.173 A 
BRANCH  12  15
HETATM   15  C   UNL     1      28.363  43.823  53.051  1.00  0.00     0.017 A 
HETATM   16  C   UNL     1      29.443  42.942  52.884  1.00  0.00     0.016 A 
HETATM   17  C   UNL     1      30.448  42.852  53.849  1.00  0.00     0.001 A 
HETATM   18  C   UNL     1      30.390  43.650  54.989  1.00  0.00     0.000 A 
HETATM   19  C   UNL     1      29.328  44.535  55.167  1.00  0.00     0.001 A 
HETATM   20  C   UNL     1      28.318  44.618  54.205  1.00  0.00     0.016 A 
ENDBRANCH  12  15
ENDBRANCH   9  10
ENDBRANCH   4   9
BRANCH   1  21
HETATM   21  C   UNL     1      23.420  48.197  49.445  1.00  0.00     0.135 C 
HETATM   22  C   UNL     1      22.390  49.319  49.335  1.00  0.00     0.038 C 
BRANCH  21  23
HETATM   23  C   UNL     1      24.824  48.658  49.135  1.00  0.00     0.005 A 
HETATM   24  S   UNL     1      26.222  47.899  49.786  1.00  0.00    -0.104 SA
HETATM   25  C   UNL     1      27.277  48.989  49.008  1.00  0.00     0.050 A 
HETATM   26  C   UNL     1      26.594  49.927  48.270  1.00  0.00     0.008 A 
HETATM   27  C   UNL     1      25.184  49.740  48.348  1.00  0.00     0.017 A 
ENDBRANCH  21  23
ENDBRANCH   1  21
TORSDOF 5
ENDMDL
MODEL 4
REMARK VINA RESULT:      -8.3      1.716      2.513
REMARK  5 active torsions:
REMARK  status: ('A' for Active; 'I' for Inactive)
REMARK    1  A    between atoms: C_2  and  N_3 
REMARK    2  A    between atoms: C_2  and  C_21 
REMARK       I    between atoms: N_3  and  C_5 
REMARK       I    between atoms: C_5  and  N_6 
REMARK    3  A    between atoms: N_6  and  C_7 
REMARK    4  A    between atoms: C_7  and  C_8 
REMARK    5  A    between atoms: C_10  and  C_11 
ROOT
HETATM    1  N   UNL     1      25.099  45.747  49.602  1.00  0.00    -0.218 N 
HETATM    2  H   UNL     1      24.279  45.963  49.055  1.00  0.00     0.178 HD
HETATM    3  C   UNL     1      25.445  44.439  49.650  1.00  0.00     0.670 C 
HETATM    4  N   UNL     1      26.399  44.009  50.510  1.00  0.00    -0.221 N 
HETATM    5  N   UNL     1      24.821  43.566  48.826  1.00  0.00    -0.231 N 
HETATM    6  C   UNL     1      23.916  43.902  47.735  1.00  0.00     0.165 C 
HETATM    7  H   UNL     1      26.638  44.629  51.270  1.00  0.00     0.178 HD
HETATM    8  H   UNL     1      24.864  42.591  49.129  1.00  0.00     0.177 HD
ENDROOT
BRANCH   4   9
HETATM    9  C   UNL     1      27.069  42.700  50.460  1.00  0.00     0.199 C 
BRANCH   9  10
HETATM   10  C   UNL     1      27.939  42.507  51.645  1.00  0.00     0.077 A 
HETATM   11  N   UNL     1      28.092  43.508  52.587  1.00  0.00    -0.225 NA
HETATM   12  C   UNL     1      28.941  42.996  53.465  1.00  0.00     0.179 A 
HETATM   13  O   UNL     1      29.302  41.703  53.193  1.00  0.00    -0.301 OA
HETATM   14  C   UNL     1      28.661  41.404  52.031  1.00  0.00     0.173 A 
BRANCH  12  15
HETATM   15  C   UNL     1      29.551  43.623  54.631  1.00  0.00     0.017 A 
HETATM   16  C   UNL     1      29.088  44.874  55.069  1.00  0.00     0.016 A 
HETATM   17  C   UNL     1      29.666  45.503  56.173  1.00  0.00     0.001 A 
HETATM   18  C   UNL     1      30.708  44.885  56.859  1.00  0.00     0.000 A 
HETATM   19  C   UNL     1      31.175  43.640  56.442  1.00  0.00     0.001 A 
HETATM   20  C   UNL     1      30.603  43.014  55.331  1.00  0.00     0.016 A 
ENDBRANCH  12  15
ENDBRANCH   9  10
ENDBRANCH   4   9
BRANCH   1  21
HETATM   21  C   UNL     1      25.744  46.907  50.251  1.00  0.00     0.135 C 
HETATM   22  C   UNL     1      25.295  47.107  51.696  1.00  0.00     0.038 C 
BRANCH  21  23
HETATM   23  C   UNL     1      25.619  48.161  49.419  1.00  0.00     0.005 A 
HETATM   24  S   UNL     1      24.104  48.818  48.938  1.00  0.00    -0.104 SA
HETATM   25  C   UNL     1      24.838  50.096  48.080  1.00  0.00     0.050 A 
HETATM   26  C   UNL     1      26.210  50.034  48.139  1.00  0.00     0.008 A 
HETATM   27  C   UNL     1      26.659  48.918  48.904  1.00  0.00     0.017 A 
ENDBRANCH  21  23
ENDBRANCH   1  21
TORSDOF 5
ENDMDL
MODEL 5
REMARK VINA RESULT:      -7.9      2.408      4.763
REMARK  5 active torsions:
REMARK  status: ('A' for Active; 'I' for Inactive)
REMARK    1  A    between atoms: C_2  and  N_3 
REMARK    2  A    between atoms: C_2  and  C_21 
REMARK       I    between atoms: N_3  and  C_5 
REMARK       I    between atoms: C_5  and  N_6 
REMARK    3  A    between atoms: N_6  and  C_7 
REMARK    4  A    between atoms: C_7  and  C_8 
REMARK    5  A    between atoms: C_10  and  C_11 
ROOT
HETATM    1  N   UNL     1      26.042  45.726  49.676  1.00  0.00    -0.218 N 
HETATM    2  H   UNL     1      26.484  46.016  48.816  1.00  0.00     0.178 HD
HETATM    3  C   UNL     1      26.145  46.593  50.711  1.00  0.00     0.670 C 
HETATM    4  N   UNL     1      25.771  46.226  51.960  1.00  0.00    -0.221 N 
HETATM    5  N   UNL     1      26.628  47.836  50.479  1.00  0.00    -0.231 N 
HETATM    6  C   UNL     1      26.897  48.429  49.175  1.00  0.00     0.165 C 
HETATM    7  H   UNL     1      25.674  45.235  52.131  1.00  0.00     0.178 HD
HETATM    8  H   UNL     1      26.995  48.311  51.305  1.00  0.00     0.177 HD
ENDROOT
BRANCH   4   9
HETATM    9  C   UNL     1      25.553  47.139  53.092  1.00  0.00     0.199 C 
BRANCH   9  10
HETATM   10  C   UNL     1      26.589  46.945  54.134  1.00  0.00     0.077 A 
HETATM   11  N   UNL     1      27.497  45.905  54.051  1.00  0.00    -0.225 NA
HETATM   12  C   UNL     1      28.233  46.034  55.144  1.00  0.00     0.179 A 
HETATM   13  O   UNL     1      27.909  47.126  55.903  1.00  0.00    -0.301 OA
HETATM   14  C   UNL     1      26.858  47.697  55.252  1.00  0.00     0.173 A 
BRANCH  12  15
HETATM   15  C   UNL     1      29.292  45.168  55.650  1.00  0.00     0.017 A 
HETATM   16  C   UNL     1      29.633  44.003  54.943  1.00  0.00     0.016 A 
HETATM   17  C   UNL     1      30.632  43.149  55.414  1.00  0.00     0.001 A 
HETATM   18  C   UNL     1      31.309  43.454  56.593  1.00  0.00     0.000 A 
HETATM   19  C   UNL     1      30.987  44.609  57.302  1.00  0.00     0.001 A 
HETATM   20  C   UNL     1      29.981  45.460  56.836  1.00  0.00     0.016 A 
ENDBRANCH  12  15
ENDBRANCH   9  10
ENDBRANCH   4   9
BRANCH   1  21
HETATM   21  C   UNL     1      25.389  44.402  49.630  1.00  0.00     0.135 C 
HETATM   22  C   UNL     1      24.033  44.381  50.334  1.00  0.00     0.038 C 
BRANCH  21  23
HETATM   23  C   UNL     1      26.309  43.301  50.100  1.00  0.00     0.005 A 
HETATM   24  S   UNL     1      26.874  42.049  49.065  1.00  0.00    -0.104 SA
HETATM   25  C   UNL     1      27.751  41.296  50.318  1.00  0.00     0.050 A 
HETATM   26  C   UNL     1      27.619  41.966  51.512  1.00  0.00     0.008 A 
HETATM   27  C   UNL     1      26.786  43.115  51.387  1.00  0.00     0.017 A 
ENDBRANCH  21  23
ENDBRANCH   1  21
TORSDOF 5
ENDMDL
MODEL 6
REMARK VINA RESULT:      -7.9      2.521      3.886
REMARK  5 active torsions:
REMARK  status: ('A' for Active; 'I' for Inactive)
REMARK    1  A    between atoms: C_2  and  N_3 
REMARK    2  A    between atoms: C_2  and  C_21 
REMARK       I    between atoms: N_3  and  C_5 
REMARK       I    between atoms: C_5  and  N_6 
REMARK    3  A    between atoms: N_6  and  C_7 
REMARK    4  A    between atoms: C_7  and  C_8 
REMARK    5  A    between atoms: C_10  and  C_11 
ROOT
HETATM    1  N   UNL     1      26.146  45.668  49.849  1.00  0.00    -0.218 N 
HETATM    2  H   UNL     1      26.482  45.976  48.948  1.00  0.00     0.178 HD
HETATM    3  C   UNL     1      26.214  46.584  50.844  1.00  0.00     0.670 C 
HETATM    4  N   UNL     1      25.984  46.224  52.130  1.00  0.00    -0.221 N 
HETATM    5  N   UNL     1      26.516  47.866  50.536  1.00  0.00    -0.231 N 
HETATM    6  C   UNL     1      26.609  48.434  49.197  1.00  0.00     0.165 C 
HETATM    7  H   UNL     1      26.027  45.237  52.340  1.00  0.00     0.178 HD
HETATM    8  H   UNL     1      26.879  48.417  51.315  1.00  0.00     0.177 HD
ENDROOT
BRANCH   4   9
HETATM    9  C   UNL     1      25.736  47.149  53.246  1.00  0.00     0.199 C 
BRANCH   9  10
HETATM   10  C   UNL     1      26.747  46.968  54.316  1.00  0.00     0.077 A 
HETATM   11  N   UNL     1      27.658  45.929  54.267  1.00  0.00    -0.225 NA
HETATM   12  C   UNL     1      28.367  46.072  55.376  1.00  0.00     0.179 A 
HETATM   13  O   UNL     1      28.022  47.172  56.114  1.00  0.00    -0.301 OA
HETATM   14  C   UNL     1      26.987  47.734  55.431  1.00  0.00     0.173 A 
BRANCH  12  15
HETATM   15  C   UNL     1      29.414  45.214  55.918  1.00  0.00     0.017 A 
HETATM   16  C   UNL     1      29.997  45.527  57.156  1.00  0.00     0.016 A 
HETATM   17  C   UNL     1      31.013  44.731  57.689  1.00  0.00     0.001 A 
HETATM   18  C   UNL     1      31.451  43.606  56.995  1.00  0.00     0.000 A 
HETATM   19  C   UNL     1      30.879  43.278  55.767  1.00  0.00     0.001 A 
HETATM   20  C   UNL     1      29.868  44.079  55.229  1.00  0.00     0.016 A 
ENDBRANCH  12  15
ENDBRANCH   9  10
ENDBRANCH   4   9
BRANCH   1  21
HETATM   21  C   UNL     1      25.665  44.272  49.897  1.00  0.00     0.135 C 
HETATM   22  C   UNL     1      26.771  43.252  49.636  1.00  0.00     0.038 C 
BRANCH  21  23
HETATM   23  C   UNL     1      24.455  44.061  49.019  1.00  0.00     0.005 A 
HETATM   24  S   UNL     1      23.206  45.231  48.851  1.00  0.00    -0.104 SA
HETATM   25  C   UNL     1      22.306  44.239  47.796  1.00  0.00     0.050 A 
HETATM   26  C   UNL     1      22.925  43.032  47.572  1.00  0.00     0.008 A 
HETATM   27  C   UNL     1      24.158  42.927  48.280  1.00  0.00     0.017 A 
ENDBRANCH  21  23
ENDBRANCH   1  21
TORSDOF 5
ENDMDL
MODEL 7
REMARK VINA RESULT:      -7.8      3.859      9.157
REMARK  5 active torsions:
REMARK  status: ('A' for Active; 'I' for Inactive)
REMARK    1  A    between atoms: C_2  and  N_3 
REMARK    2  A    between atoms: C_2  and  C_21 
REMARK       I    between atoms: N_3  and  C_5 
REMARK       I    between atoms: C_5  and  N_6 
REMARK    3  A    between atoms: N_6  and  C_7 
REMARK    4  A    between atoms: C_7  and  C_8 
REMARK    5  A    between atoms: C_10  and  C_11 
ROOT
HETATM    1  N   UNL     1      25.607  45.141  51.662  1.00  0.00    -0.218 N 
HETATM    2  H   UNL     1      25.275  45.026  52.609  1.00  0.00     0.178 HD
HETATM    3  C   UNL     1      25.933  46.405  51.305  1.00  0.00     0.670 C 
HETATM    4  N   UNL     1      26.194  46.711  50.011  1.00  0.00    -0.221 N 
HETATM    5  N   UNL     1      25.995  47.362  52.259  1.00  0.00    -0.231 N 
HETATM    6  C   UNL     1      25.919  47.151  53.700  1.00  0.00     0.165 C 
HETATM    7  H   UNL     1      25.883  46.047  49.316  1.00  0.00     0.178 HD
HETATM    8  H   UNL     1      25.906  48.317  51.910  1.00  0.00     0.177 HD
ENDROOT
BRANCH   4   9
HETATM    9  C   UNL     1      26.838  47.945  49.535  1.00  0.00     0.199 C 
BRANCH   9  10
HETATM   10  C   UNL     1      25.834  48.881  48.976  1.00  0.00     0.077 A 
HETATM   11  N   UNL     1      24.552  48.944  49.492  1.00  0.00    -0.225 NA
HETATM   12  C   UNL     1      23.948  49.853  48.742  1.00  0.00     0.179 A 
HETATM   13  O   UNL     1      24.768  50.434  47.812  1.00  0.00    -0.301 OA
HETATM   14  C   UNL     1      25.965  49.806  47.968  1.00  0.00     0.173 A 
BRANCH  12  15
HETATM   15  C   UNL     1      22.553  50.278  48.753  1.00  0.00     0.017 A 
HETATM   16  C   UNL     1      21.802  50.223  47.568  1.00  0.00     0.016 A 
HETATM   17  C   UNL     1      20.469  50.639  47.548  1.00  0.00     0.001 A 
HETATM   18  C   UNL     1      19.869  51.107  48.715  1.00  0.00     0.000 A 
HETATM   19  C   UNL     1      20.599  51.162  49.901  1.00  0.00     0.001 A 
HETATM   20  C   UNL     1      21.935  50.753  49.919  1.00  0.00     0.016 A 
ENDBRANCH  12  15
ENDBRANCH   9  10
ENDBRANCH   4   9
BRANCH   1  21
HETATM   21  C   UNL     1      25.650  43.902  50.858  1.00  0.00     0.135 C 
HETATM   22  C   UNL     1      24.320  43.153  50.845  1.00  0.00     0.038 C 
BRANCH  21  23
HETATM   23  C   UNL     1      26.816  43.022  51.239  1.00  0.00     0.005 A 
HETATM   24  S   UNL     1      27.057  41.453  50.579  1.00  0.00    -0.104 SA
HETATM   25  C   UNL     1      28.463  41.189  51.508  1.00  0.00     0.050 A 
HETATM   26  C   UNL     1      28.753  42.262  52.317  1.00  0.00     0.008 A 
HETATM   27  C   UNL     1      27.802  43.313  52.168  1.00  0.00     0.017 A 
ENDBRANCH  21  23
ENDBRANCH   1  21
TORSDOF 5
ENDMDL
MODEL 8
REMARK VINA RESULT:      -7.8      3.450      5.506
REMARK  5 active torsions:
REMARK  status: ('A' for Active; 'I' for Inactive)
REMARK    1  A    between atoms: C_2  and  N_3 
REMARK    2  A    between atoms: C_2  and  C_21 
REMARK       I    between atoms: N_3  and  C_5 
REMARK       I    between atoms: C_5  and  N_6 
REMARK    3  A    between atoms: N_6  and  C_7 
REMARK    4  A    between atoms: C_7  and  C_8 
REMARK    5  A    between atoms: C_10  and  C_11 
ROOT
HETATM    1  N   UNL     1      25.418  43.397  52.580  1.00  0.00    -0.218 N 
HETATM    2  H   UNL     1      25.010  42.667  53.145  1.00  0.00     0.178 HD
HETATM    3  C   UNL     1      25.466  44.623  53.152  1.00  0.00     0.670 C 
HETATM    4  N   UNL     1      25.802  45.713  52.421  1.00  0.00    -0.221 N 
HETATM    5  N   UNL     1      25.172  44.745  54.467  1.00  0.00    -0.231 N 
HETATM    6  C   UNL     1      24.973  43.654  55.413  1.00  0.00     0.165 C 
HETATM    7  H   UNL     1      25.752  45.619  51.417  1.00  0.00     0.178 HD
HETATM    8  H   UNL     1      24.896  45.685  54.756  1.00  0.00     0.177 HD
ENDROOT
BRANCH   4   9
HETATM    9  C   UNL     1      26.176  47.027  52.965  1.00  0.00     0.199 C 
BRANCH   9  10
HETATM   10  C   UNL     1      27.040  46.876  54.161  1.00  0.00     0.077 A 
HETATM   11  N   UNL     1      28.026  45.908  54.211  1.00  0.00    -0.225 NA
HETATM   12  C   UNL     1      28.561  46.055  55.413  1.00  0.00     0.179 A 
HETATM   13  O   UNL     1      28.034  47.098  56.127  1.00  0.00    -0.301 OA
HETATM   14  C   UNL     1      27.064  47.611  55.322  1.00  0.00     0.173 A 
BRANCH  12  15
HETATM   15  C   UNL     1      29.585  45.253  56.071  1.00  0.00     0.017 A 
HETATM   16  C   UNL     1      30.110  44.126  55.418  1.00  0.00     0.016 A 
HETATM   17  C   UNL     1      31.081  43.332  56.032  1.00  0.00     0.001 A 
HETATM   18  C   UNL     1      31.545  43.661  57.304  1.00  0.00     0.000 A 
HETATM   19  C   UNL     1      31.039  44.780  57.963  1.00  0.00     0.001 A 
HETATM   20  C   UNL     1      30.062  45.570  57.352  1.00  0.00     0.016 A 
ENDBRANCH  12  15
ENDBRANCH   9  10
ENDBRANCH   4   9
BRANCH   1  21
HETATM   21  C   UNL     1      25.863  42.976  51.236  1.00  0.00     0.135 C 
HETATM   22  C   UNL     1      24.710  42.531  50.339  1.00  0.00     0.038 C 
BRANCH  21  23
HETATM   23  C   UNL     1      26.979  41.962  51.302  1.00  0.00     0.005 A 
HETATM   24  S   UNL     1      27.393  40.938  49.984  1.00  0.00    -0.104 SA
HETATM   25  C   UNL     1      28.627  40.161  50.868  1.00  0.00     0.050 A 
HETATM   26  C   UNL     1      28.730  40.653  52.148  1.00  0.00     0.008 A 
HETATM   27  C   UNL     1      27.779  41.683  52.399  1.00  0.00     0.017 A 
ENDBRANCH  21  23
ENDBRANCH   1  21
TORSDOF 5
ENDMDL
MODEL 9
REMARK VINA RESULT:      -7.8      4.069     10.198
REMARK  5 active torsions:
REMARK  status: ('A' for Active; 'I' for Inactive)
REMARK    1  A    between atoms: C_2  and  N_3 
REMARK    2  A    between atoms: C_2  and  C_21 
REMARK       I    between atoms: N_3  and  C_5 
REMARK       I    between atoms: C_5  and  N_6 
REMARK    3  A    between atoms: N_6  and  C_7 
REMARK    4  A    between atoms: C_7  and  C_8 
REMARK    5  A    between atoms: C_10  and  C_11 
ROOT
HETATM    1  N   UNL     1      26.326  47.312  51.446  1.00  0.00    -0.218 N 
HETATM    2  H   UNL     1      27.280  47.640  51.431  1.00  0.00     0.178 HD
HETATM    3  C   UNL     1      25.562  47.683  50.391  1.00  0.00     0.670 C 
HETATM    4  N   UNL     1      24.223  47.475  50.402  1.00  0.00    -0.221 N 
HETATM    5  N   UNL     1      26.156  48.266  49.325  1.00  0.00    -0.231 N 
HETATM    6  C   UNL     1      27.590  48.389  49.094  1.00  0.00     0.165 C 
HETATM    7  H   UNL     1      23.800  47.290  51.300  1.00  0.00     0.178 HD
HETATM    8  H   UNL     1      25.528  48.816  48.736  1.00  0.00     0.177 HD
ENDROOT
BRANCH   4   9
HETATM    9  C   UNL     1      23.336  47.553  49.232  1.00  0.00     0.199 C 
BRANCH   9  10
HETATM   10  C   UNL     1      22.688  48.884  49.148  1.00  0.00     0.077 A 
HETATM   11  N   UNL     1      21.327  49.027  49.346  1.00  0.00    -0.225 NA
HETATM   12  C   UNL     1      21.112  50.322  49.173  1.00  0.00     0.179 A 
HETATM   13  O   UNL     1      22.252  51.045  48.939  1.00  0.00    -0.301 OA
HETATM   14  C   UNL     1      23.248  50.118  48.922  1.00  0.00     0.173 A 
BRANCH  12  15
HETATM   15  C   UNL     1      19.851  51.055  49.165  1.00  0.00     0.017 A 
HETATM   16  C   UNL     1      18.789  50.617  49.971  1.00  0.00     0.016 A 
HETATM   17  C   UNL     1      17.566  51.291  49.970  1.00  0.00     0.001 A 
HETATM   18  C   UNL     1      17.394  52.417  49.169  1.00  0.00     0.000 A 
HETATM   19  C   UNL     1      18.441  52.869  48.368  1.00  0.00     0.001 A 
HETATM   20  C   UNL     1      19.662  52.190  48.363  1.00  0.00     0.016 A 
ENDBRANCH  12  15
ENDBRANCH   9  10
ENDBRANCH   4   9
BRANCH   1  21
HETATM   21  C   UNL     1      25.957  46.507  52.628  1.00  0.00     0.135 C 
HETATM   22  C   UNL     1      25.826  47.341  53.900  1.00  0.00     0.038 C 
BRANCH  21  23
HETATM   23  C   UNL     1      26.861  45.310  52.802  1.00  0.00     0.005 A 
HETATM   24  S   UNL     1      27.695  44.973  54.268  1.00  0.00    -0.104 SA
HETATM   25  C   UNL     1      28.439  43.583  53.620  1.00  0.00     0.050 A 
HETATM   26  C   UNL     1      28.079  43.369  52.310  1.00  0.00     0.008 A 
HETATM   27  C   UNL     1      27.176  44.366  51.838  1.00  0.00     0.017 A 
ENDBRANCH  21  23
ENDBRANCH   1  21
TORSDOF 5
ENDMDL
MODEL 10
REMARK VINA RESULT:      -7.7      4.110      6.329
REMARK  5 active torsions:
REMARK  status: ('A' for Active; 'I' for Inactive)
REMARK    1  A    between atoms: C_2  and  N_3 
REMARK    2  A    between atoms: C_2  and  C_21 
REMARK       I    between atoms: N_3  and  C_5 
REMARK       I    between atoms: C_5  and  N_6 
REMARK    3  A    between atoms: N_6  and  C_7 
REMARK    4  A    between atoms: C_7  and  C_8 
REMARK    5  A    between atoms: C_10  and  C_11 
ROOT
HETATM    1  N   UNL     1      19.544  48.045  48.752  1.00  0.00    -0.218 N 
HETATM    2  H   UNL     1      18.697  47.979  48.207  1.00  0.00     0.178 HD
HETATM    3  C   UNL     1      20.558  47.237  48.361  1.00  0.00     0.670 C 
HETATM    4  N   UNL     1      21.661  47.091  49.134  1.00  0.00    -0.221 N 
HETATM    5  N   UNL     1      20.453  46.575  47.187  1.00  0.00    -0.231 N 
HETATM    6  C   UNL     1      19.421  46.769  46.174  1.00  0.00     0.165 C 
HETATM    7  H   UNL     1      21.582  47.383  50.098  1.00  0.00     0.178 HD
HETATM    8  H   UNL     1      21.053  45.753  47.106  1.00  0.00     0.177 HD
ENDROOT
BRANCH   4   9
HETATM    9  C   UNL     1      22.935  46.496  48.703  1.00  0.00     0.199 C 
BRANCH   9  10
HETATM   10  C   UNL     1      24.033  46.875  49.624  1.00  0.00     0.077 A 
HETATM   11  N   UNL     1      24.453  46.017  50.624  1.00  0.00    -0.225 NA
HETATM   12  C   UNL     1      25.409  46.691  51.244  1.00  0.00     0.179 A 
HETATM   13  O   UNL     1      25.687  47.905  50.677  1.00  0.00    -0.301 OA
HETATM   14  C   UNL     1      24.802  48.014  49.648  1.00  0.00     0.173 A 
BRANCH  12  15
HETATM   15  C   UNL     1      26.161  46.333  52.442  1.00  0.00     0.017 A 
HETATM   16  C   UNL     1      26.313  47.274  53.473  1.00  0.00     0.016 A 
HETATM   17  C   UNL     1      27.042  46.962  54.622  1.00  0.00     0.001 A 
HETATM   18  C   UNL     1      27.618  45.702  54.760  1.00  0.00     0.000 A 
HETATM   19  C   UNL     1      27.471  44.754  53.749  1.00  0.00     0.001 A 
HETATM   20  C   UNL     1      26.749  45.069  52.594  1.00  0.00     0.016 A 
ENDBRANCH  12  15
ENDBRANCH   9  10
ENDBRANCH   4   9
BRANCH   1  21
HETATM   21  C   UNL     1      19.493  49.000  49.878  1.00  0.00     0.135 C 
HETATM   22  C   UNL     1      18.607  48.523  51.026  1.00  0.00     0.038 C 
BRANCH  21  23
HETATM   23  C   UNL     1      19.153  50.398  49.418  1.00  0.00     0.005 A 
HETATM   24  S   UNL     1      17.651  51.158  49.766  1.00  0.00    -0.104 SA
HETATM   25  C   UNL     1      18.076  52.572  48.913  1.00  0.00     0.050 A 
HETATM   26  C   UNL     1      19.331  52.481  48.359  1.00  0.00     0.008 A 
HETATM   27  C   UNL     1      19.948  51.229  48.644  1.00  0.00     0.017 A 
ENDBRANCH  21  23
ENDBRANCH   1  21
TORSDOF 5
ENDMDL
