MODEL 1
REMARK VINA RESULT:      -8.7      0.000      0.000
REMARK  6 active torsions:
REMARK  status: ('A' for Active; 'I' for Inactive)
REMARK    1  A    between atoms: N_1  and  C_2 
REMARK    2  A    between atoms: C_2  and  C_3 
REMARK    3  A    between atoms: C_2  and  C_11 
REMARK    4  A    between atoms: C_3  and  C_4 
REMARK       I    between atoms: C_11  and  N_13 
REMARK    5  A    between atoms: N_13  and  C_14 
REMARK    6  A    between atoms: C_17  and  C_20 
ROOT
HETATM    1  C   UNL     1      27.174  43.598  51.772  1.00  0.00     0.255 C 
HETATM    2  O   UNL     1      27.421  43.180  50.644  1.00  0.00    -0.271 OA
HETATM    3  N   UNL     1      26.498  44.764  52.086  1.00  0.00    -0.325 N 
HETATM    4  H   UNL     1      26.400  44.909  53.090  1.00  0.00     0.169 HD
ENDROOT
BRANCH   1   5
HETATM    5  C   UNL     1      27.642  42.838  53.037  1.00  0.00     0.313 C 
BRANCH   5   6
HETATM    6  N   UNL     1      27.266  41.396  52.940  1.00  0.00     0.092 N 
HETATM    7  H   UNL     1      27.607  40.935  53.788  1.00  0.00     0.313 HD
HETATM    8  H   UNL     1      27.813  40.976  52.184  1.00  0.00     0.313 HD
ENDBRANCH   5   6
BRANCH   5   9
HETATM    9  C   UNL     1      29.158  43.048  53.214  1.00  0.00     0.083 C 
BRANCH   9  10
HETATM   10  C   UNL     1      29.532  43.834  54.450  1.00  0.00    -0.056 A 
HETATM   11  C   UNL     1      28.793  44.963  54.830  1.00  0.00     0.009 A 
HETATM   12  C   UNL     1      29.136  45.677  55.980  1.00  0.00     0.024 A 
HETATM   13  C   UNL     1      30.217  45.265  56.756  1.00  0.00     0.034 A 
HETATM   14 CL   UNL     1      30.631  46.139  58.179  1.00  0.00    -0.084 Cl
HETATM   15  C   UNL     1      30.962  44.146  56.388  1.00  0.00     0.024 A 
HETATM   16  C   UNL     1      30.622  43.434  55.236  1.00  0.00     0.009 A 
ENDBRANCH   9  10
ENDBRANCH   5   9
ENDBRANCH   1   5
BRANCH   3  17
HETATM   17  C   UNL     1      25.854  45.657  51.215  1.00  0.00     0.034 A 
HETATM   18  C   UNL     1      26.491  46.873  50.950  1.00  0.00     0.030 A 
HETATM   19  C   UNL     1      25.883  47.839  50.137  1.00  0.00     0.014 A 
HETATM   20  C   UNL     1      24.626  47.604  49.566  1.00  0.00    -0.023 A 
HETATM   21  C   UNL     1      24.008  46.371  49.810  1.00  0.00     0.014 A 
HETATM   22  C   UNL     1      24.615  45.409  50.627  1.00  0.00     0.030 A 
BRANCH  20  23
HETATM   23  C   UNL     1      23.985  48.623  48.748  1.00  0.00     0.010 A 
HETATM   24  C   UNL     1      24.520  49.752  48.082  1.00  0.00     0.152 A 
HETATM   25  N   UNL     1      23.591  50.472  47.448  1.00  0.00    -0.187 NA
HETATM   26  N   UNL     1      22.453  49.811  47.706  1.00  0.00    -0.289 N 
HETATM   27  H   UNL     1      21.586  50.176  47.326  1.00  0.00     0.188 HD
HETATM   28  C   UNL     1      22.633  48.702  48.483  1.00  0.00     0.123 A 
ENDBRANCH  20  23
ENDBRANCH   3  17
TORSDOF 6
ENDMDL
MODEL 2
REMARK VINA RESULT:      -8.6      0.869      1.709
REMARK  6 active torsions:
REMARK  status: ('A' for Active; 'I' for Inactive)
REMARK    1  A    between atoms: N_1  and  C_2 
REMARK    2  A    between atoms: C_2  and  C_3 
REMARK    3  A    between atoms: C_2  and  C_11 
REMARK    4  A    between atoms: C_3  and  C_4 
REMARK       I    between atoms: C_11  and  N_13 
REMARK    5  A    between atoms: N_13  and  C_14 
REMARK    6  A    between atoms: C_17  and  C_20 
ROOT
HETATM    1  C   UNL     1      27.312  43.093  52.279  1.00  0.00     0.255 C 
HETATM    2  O   UNL     1      27.556  42.723  51.134  1.00  0.00    -0.271 OA
HETATM    3  N   UNL     1      26.540  44.182  52.642  1.00  0.00    -0.325 N 
HETATM    4  H   UNL     1      26.465  44.297  53.653  1.00  0.00     0.169 HD
ENDROOT
BRANCH   1   5
HETATM    5  C   UNL     1      27.897  42.357  53.510  1.00  0.00     0.313 C 
BRANCH   5   6
HETATM    6  N   UNL     1      27.638  40.890  53.403  1.00  0.00     0.092 N 
HETATM    7  H   UNL     1      26.835  40.679  54.003  1.00  0.00     0.313 HD
HETATM    8  H   UNL     1      28.420  40.397  53.840  1.00  0.00     0.313 HD
ENDBRANCH   5   6
BRANCH   5   9
HETATM    9  C   UNL     1      29.397  42.690  53.626  1.00  0.00     0.083 C 
BRANCH   9  10
HETATM   10  C   UNL     1      29.743  43.578  54.800  1.00  0.00    -0.056 A 
HETATM   11  C   UNL     1      30.770  43.222  55.686  1.00  0.00     0.009 A 
HETATM   12  C   UNL     1      31.093  44.053  56.761  1.00  0.00     0.024 A 
HETATM   13  C   UNL     1      30.393  45.242  56.954  1.00  0.00     0.034 A 
HETATM   14 CL   UNL     1      30.802  46.270  58.272  1.00  0.00    -0.084 Cl
HETATM   15  C   UNL     1      29.369  45.606  56.082  1.00  0.00     0.024 A 
HETATM   16  C   UNL     1      29.042  44.774  55.009  1.00  0.00     0.009 A 
ENDBRANCH   9  10
ENDBRANCH   5   9
ENDBRANCH   1   5
BRANCH   3  17
HETATM   17  C   UNL     1      25.782  45.026  51.816  1.00  0.00     0.034 A 
HETATM   18  C   UNL     1      24.749  44.445  51.074  1.00  0.00     0.030 A 
HETATM   19  C   UNL     1      23.986  45.213  50.183  1.00  0.00     0.014 A 
HETATM   20  C   UNL     1      24.237  46.581  50.023  1.00  0.00    -0.023 A 
HETATM   21  C   UNL     1      25.252  47.162  50.793  1.00  0.00     0.014 A 
HETATM   22  C   UNL     1      26.017  46.393  51.678  1.00  0.00     0.030 A 
BRANCH  20  23
HETATM   23  C   UNL     1      23.463  47.367  49.074  1.00  0.00     0.010 A 
HETATM   24  C   UNL     1      23.615  48.705  48.634  1.00  0.00     0.152 A 
HETATM   25  N   UNL     1      22.672  49.077  47.764  1.00  0.00    -0.187 NA
HETATM   26  N   UNL     1      21.908  47.981  47.643  1.00  0.00    -0.289 N 
HETATM   27  H   UNL     1      21.105  48.019  47.024  1.00  0.00     0.188 HD
HETATM   28  C   UNL     1      22.335  46.934  48.408  1.00  0.00     0.123 A 
ENDBRANCH  20  23
ENDBRANCH   3  17
TORSDOF 6
ENDMDL
MODEL 3
REMARK VINA RESULT:      -7.9      3.814      8.875
REMARK  6 active torsions:
REMARK  status: ('A' for Active; 'I' for Inactive)
REMARK    1  A    between atoms: N_1  and  C_2 
REMARK    2  A    between atoms: C_2  and  C_3 
REMARK    3  A    between atoms: C_2  and  C_11 
REMARK    4  A    between atoms: C_3  and  C_4 
REMARK       I    between atoms: C_11  and  N_13 
REMARK    5  A    between atoms: N_13  and  C_14 
REMARK    6  A    between atoms: C_17  and  C_20 
ROOT
HETATM    1  C   UNL     1      26.675  44.688  50.067  1.00  0.00     0.255 C 
HETATM    2  O   UNL     1      27.635  45.371  49.718  1.00  0.00    -0.271 OA
HETATM    3  N   UNL     1      26.566  43.965  51.241  1.00  0.00    -0.325 N 
HETATM    4  H   UNL     1      25.675  43.478  51.327  1.00  0.00     0.169 HD
ENDROOT
BRANCH   1   5
HETATM    5  C   UNL     1      25.423  44.532  49.168  1.00  0.00     0.313 C 
BRANCH   5   6
HETATM    6  N   UNL     1      25.228  43.096  48.804  1.00  0.00     0.092 N 
HETATM    7  H   UNL     1      26.108  42.611  49.003  1.00  0.00     0.313 HD
HETATM    8  H   UNL     1      25.129  43.038  47.788  1.00  0.00     0.313 HD
ENDBRANCH   5   6
BRANCH   5   9
HETATM    9  C   UNL     1      24.206  45.133  49.897  1.00  0.00     0.083 C 
BRANCH   9  10
HETATM   10  C   UNL     1      23.738  46.454  49.330  1.00  0.00    -0.056 A 
HETATM   11  C   UNL     1      22.613  46.515  48.497  1.00  0.00     0.009 A 
HETATM   12  C   UNL     1      22.177  47.741  47.988  1.00  0.00     0.024 A 
HETATM   13  C   UNL     1      22.864  48.909  48.311  1.00  0.00     0.034 A 
HETATM   14 CL   UNL     1      22.320  50.419  47.692  1.00  0.00    -0.084 Cl
HETATM   15  C   UNL     1      23.986  48.862  49.136  1.00  0.00     0.024 A 
HETATM   16  C   UNL     1      24.424  47.637  49.642  1.00  0.00     0.009 A 
ENDBRANCH   9  10
ENDBRANCH   5   9
ENDBRANCH   1   5
BRANCH   3  17
HETATM   17  C   UNL     1      27.452  43.935  52.330  1.00  0.00     0.034 A 
HETATM   18  C   UNL     1      27.117  44.693  53.456  1.00  0.00     0.030 A 
HETATM   19  C   UNL     1      27.980  44.758  54.559  1.00  0.00     0.014 A 
HETATM   20  C   UNL     1      29.193  44.059  54.560  1.00  0.00    -0.023 A 
HETATM   21  C   UNL     1      29.506  43.276  53.442  1.00  0.00     0.014 A 
HETATM   22  C   UNL     1      28.646  43.216  52.339  1.00  0.00     0.030 A 
BRANCH  20  23
HETATM   23  C   UNL     1      30.099  44.155  55.695  1.00  0.00     0.010 A 
HETATM   24  C   UNL     1      30.298  45.191  56.639  1.00  0.00     0.152 A 
HETATM   25  N   UNL     1      31.256  44.910  57.527  1.00  0.00    -0.187 NA
HETATM   26  N   UNL     1      31.678  43.692  57.156  1.00  0.00    -0.289 N 
HETATM   27  H   UNL     1      32.424  43.257  57.689  1.00  0.00     0.188 HD
HETATM   28  C   UNL     1      31.023  43.199  56.064  1.00  0.00     0.123 A 
ENDBRANCH  20  23
ENDBRANCH   3  17
TORSDOF 6
ENDMDL
MODEL 4
REMARK VINA RESULT:      -7.9      4.120      8.393
REMARK  6 active torsions:
REMARK  status: ('A' for Active; 'I' for Inactive)
REMARK    1  A    between atoms: N_1  and  C_2 
REMARK    2  A    between atoms: C_2  and  C_3 
REMARK    3  A    between atoms: C_2  and  C_11 
REMARK    4  A    between atoms: C_3  and  C_4 
REMARK       I    between atoms: C_11  and  N_13 
REMARK    5  A    between atoms: N_13  and  C_14 
REMARK    6  A    between atoms: C_17  and  C_20 
ROOT
HETATM    1  C   UNL     1      25.404  44.269  52.296  1.00  0.00     0.255 C 
HETATM    2  O   UNL     1      24.711  44.143  53.302  1.00  0.00    -0.271 OA
HETATM    3  N   UNL     1      26.753  44.572  52.262  1.00  0.00    -0.325 N 
HETATM    4  H   UNL     1      27.126  44.618  51.314  1.00  0.00     0.169 HD
ENDROOT
BRANCH   1   5
HETATM    5  C   UNL     1      24.803  44.121  50.876  1.00  0.00     0.313 C 
BRANCH   5   6
HETATM    6  N   UNL     1      25.743  44.682  49.860  1.00  0.00     0.092 N 
HETATM    7  H   UNL     1      26.232  45.466  50.300  1.00  0.00     0.313 HD
HETATM    8  H   UNL     1      25.186  45.114  49.118  1.00  0.00     0.313 HD
ENDBRANCH   5   6
BRANCH   5   9
HETATM    9  C   UNL     1      24.471  42.638  50.626  1.00  0.00     0.083 C 
BRANCH   9  10
HETATM   10  C   UNL     1      25.652  41.807  50.176  1.00  0.00    -0.056 A 
HETATM   11  C   UNL     1      26.615  41.377  51.099  1.00  0.00     0.009 A 
HETATM   12  C   UNL     1      27.696  40.599  50.680  1.00  0.00     0.024 A 
HETATM   13  C   UNL     1      27.818  40.247  49.337  1.00  0.00     0.034 A 
HETATM   14 CL   UNL     1      29.144  39.278  48.824  1.00  0.00    -0.084 Cl
HETATM   15  C   UNL     1      26.868  40.670  48.409  1.00  0.00     0.024 A 
HETATM   16  C   UNL     1      25.789  41.451  48.827  1.00  0.00     0.009 A 
ENDBRANCH   9  10
ENDBRANCH   5   9
ENDBRANCH   1   5
BRANCH   3  17
HETATM   17  C   UNL     1      27.646  44.689  53.339  1.00  0.00     0.034 A 
HETATM   18  C   UNL     1      28.596  43.677  53.502  1.00  0.00     0.030 A 
HETATM   19  C   UNL     1      29.484  43.695  54.587  1.00  0.00     0.014 A 
HETATM   20  C   UNL     1      29.443  44.732  55.526  1.00  0.00    -0.023 A 
HETATM   21  C   UNL     1      28.510  45.759  55.338  1.00  0.00     0.014 A 
HETATM   22  C   UNL     1      27.620  45.737  54.257  1.00  0.00     0.030 A 
BRANCH  20  23
HETATM   23  C   UNL     1      30.346  44.730  56.667  1.00  0.00     0.010 A 
HETATM   24  C   UNL     1      31.395  43.846  57.020  1.00  0.00     0.152 A 
HETATM   25  N   UNL     1      31.982  44.169  58.176  1.00  0.00    -0.187 NA
HETATM   26  N   UNL     1      31.311  45.261  58.573  1.00  0.00    -0.289 N 
HETATM   27  H   UNL     1      31.576  45.698  59.449  1.00  0.00     0.188 HD
HETATM   28  C   UNL     1      30.321  45.634  57.710  1.00  0.00     0.123 A 
ENDBRANCH  20  23
ENDBRANCH   3  17
TORSDOF 6
ENDMDL
MODEL 5
REMARK VINA RESULT:      -7.8      4.718     10.079
REMARK  6 active torsions:
REMARK  status: ('A' for Active; 'I' for Inactive)
REMARK    1  A    between atoms: N_1  and  C_2 
REMARK    2  A    between atoms: C_2  and  C_3 
REMARK    3  A    between atoms: C_2  and  C_11 
REMARK    4  A    between atoms: C_3  and  C_4 
REMARK       I    between atoms: C_11  and  N_13 
REMARK    5  A    between atoms: N_13  and  C_14 
REMARK    6  A    between atoms: C_17  and  C_20 
ROOT
HETATM    1  C   UNL     1      24.066  48.391  49.563  1.00  0.00     0.255 C 
HETATM    2  O   UNL     1      25.108  48.984  49.300  1.00  0.00    -0.271 OA
HETATM    3  N   UNL     1      23.940  47.267  50.358  1.00  0.00    -0.325 N 
HETATM    4  H   UNL     1      22.975  46.947  50.446  1.00  0.00     0.169 HD
ENDROOT
BRANCH   1   5
HETATM    5  C   UNL     1      22.706  48.846  48.977  1.00  0.00     0.313 C 
BRANCH   5   6
HETATM    6  N   UNL     1      21.629  47.892  49.377  1.00  0.00     0.092 N 
HETATM    7  H   UNL     1      21.457  48.031  50.377  1.00  0.00     0.313 HD
HETATM    8  H   UNL     1      22.006  46.943  49.313  1.00  0.00     0.313 HD
ENDBRANCH   5   6
BRANCH   5   9
HETATM    9  C   UNL     1      22.423  50.290  49.432  1.00  0.00     0.083 C 
BRANCH   9  10
HETATM   10  C   UNL     1      21.021  50.769  49.130  1.00  0.00    -0.056 A 
HETATM   11  C   UNL     1      20.184  51.222  50.159  1.00  0.00     0.009 A 
HETATM   12  C   UNL     1      18.895  51.676  49.871  1.00  0.00     0.024 A 
HETATM   13  C   UNL     1      18.439  51.681  48.555  1.00  0.00     0.034 A 
HETATM   14 CL   UNL     1      16.855  52.252  48.201  1.00  0.00    -0.084 Cl
HETATM   15  C   UNL     1      19.260  51.232  47.523  1.00  0.00     0.024 A 
HETATM   16  C   UNL     1      20.548  50.773  47.810  1.00  0.00     0.009 A 
ENDBRANCH   9  10
ENDBRANCH   5   9
ENDBRANCH   1   5
BRANCH   3  17
HETATM   17  C   UNL     1      24.927  46.627  51.124  1.00  0.00     0.034 A 
HETATM   18  C   UNL     1      25.414  45.402  50.657  1.00  0.00     0.030 A 
HETATM   19  C   UNL     1      26.359  44.677  51.396  1.00  0.00     0.014 A 
HETATM   20  C   UNL     1      26.842  45.168  52.615  1.00  0.00    -0.023 A 
HETATM   21  C   UNL     1      26.375  46.411  53.060  1.00  0.00     0.014 A 
HETATM   22  C   UNL     1      25.427  47.131  52.324  1.00  0.00     0.030 A 
BRANCH  20  23
HETATM   23  C   UNL     1      27.799  44.396  53.393  1.00  0.00     0.010 A 
HETATM   24  C   UNL     1      28.169  43.031  53.321  1.00  0.00     0.152 A 
HETATM   25  N   UNL     1      29.078  42.689  54.240  1.00  0.00    -0.187 NA
HETATM   26  N   UNL     1      29.292  43.832  54.908  1.00  0.00    -0.289 N 
HETATM   27  H   UNL     1      29.956  43.824  55.676  1.00  0.00     0.188 HD
HETATM   28  C   UNL     1      28.550  44.880  54.445  1.00  0.00     0.123 A 
ENDBRANCH  20  23
ENDBRANCH   3  17
TORSDOF 6
ENDMDL
MODEL 6
REMARK VINA RESULT:      -7.7      1.837      2.509
REMARK  6 active torsions:
REMARK  status: ('A' for Active; 'I' for Inactive)
REMARK    1  A    between atoms: N_1  and  C_2 
REMARK    2  A    between atoms: C_2  and  C_3 
REMARK    3  A    between atoms: C_2  and  C_11 
REMARK    4  A    between atoms: C_3  and  C_4 
REMARK       I    between atoms: C_11  and  N_13 
REMARK    5  A    between atoms: N_13  and  C_14 
REMARK    6  A    between atoms: C_17  and  C_20 
ROOT
HETATM    1  C   UNL     1      25.079  43.902  51.156  1.00  0.00     0.255 C 
HETATM    2  O   UNL     1      23.974  43.672  51.641  1.00  0.00    -0.271 OA
HETATM    3  N   UNL     1      25.389  44.907  50.259  1.00  0.00    -0.325 N 
HETATM    4  H   UNL     1      26.374  44.917  49.996  1.00  0.00     0.169 HD
ENDROOT
BRANCH   1   5
HETATM    5  C   UNL     1      26.310  43.025  51.496  1.00  0.00     0.313 C 
BRANCH   5   6
HETATM    6  N   UNL     1      26.375  41.851  50.575  1.00  0.00     0.092 N 
HETATM    7  H   UNL     1      25.874  41.081  51.029  1.00  0.00     0.313 HD
HETATM    8  H   UNL     1      27.346  41.534  50.533  1.00  0.00     0.313 HD
ENDBRANCH   5   6
BRANCH   5   9
HETATM    9  C   UNL     1      27.578  43.898  51.438  1.00  0.00     0.083 C 
BRANCH   9  10
HETATM   10  C   UNL     1      28.469  43.774  52.653  1.00  0.00    -0.056 A 
HETATM   11  C   UNL     1      29.581  42.921  52.639  1.00  0.00     0.009 A 
HETATM   12  C   UNL     1      30.409  42.821  53.760  1.00  0.00     0.024 A 
HETATM   13  C   UNL     1      30.128  43.573  54.898  1.00  0.00     0.034 A 
HETATM   14 CL   UNL     1      31.154  43.458  56.274  1.00  0.00    -0.084 Cl
HETATM   15  C   UNL     1      29.024  44.423  54.926  1.00  0.00     0.024 A 
HETATM   16  C   UNL     1      28.194  44.521  53.808  1.00  0.00     0.009 A 
ENDBRANCH   9  10
ENDBRANCH   5   9
ENDBRANCH   1   5
BRANCH   3  17
HETATM   17  C   UNL     1      24.563  45.942  49.793  1.00  0.00     0.034 A 
HETATM   18  C   UNL     1      24.874  47.246  50.191  1.00  0.00     0.030 A 
HETATM   19  C   UNL     1      24.063  48.325  49.813  1.00  0.00     0.014 A 
HETATM   20  C   UNL     1      22.926  48.121  49.022  1.00  0.00    -0.023 A 
HETATM   21  C   UNL     1      22.638  46.817  48.600  1.00  0.00     0.014 A 
HETATM   22  C   UNL     1      23.447  45.739  48.983  1.00  0.00     0.030 A 
BRANCH  20  23
HETATM   23  C   UNL     1      22.070  49.240  48.658  1.00  0.00     0.010 A 
HETATM   24  C   UNL     1      21.987  50.554  49.179  1.00  0.00     0.152 A 
HETATM   25  N   UNL     1      21.040  51.290  48.590  1.00  0.00    -0.187 NA
HETATM   26  N   UNL     1      20.508  50.450  47.689  1.00  0.00    -0.289 N 
HETATM   27  H   UNL     1      19.748  50.786  47.107  1.00  0.00     0.188 HD
HETATM   28  C   UNL     1      21.084  49.212  47.693  1.00  0.00     0.123 A 
ENDBRANCH  20  23
ENDBRANCH   3  17
TORSDOF 6
ENDMDL
MODEL 7
REMARK VINA RESULT:      -7.7      4.257      9.670
REMARK  6 active torsions:
REMARK  status: ('A' for Active; 'I' for Inactive)
REMARK    1  A    between atoms: N_1  and  C_2 
REMARK    2  A    between atoms: C_2  and  C_3 
REMARK    3  A    between atoms: C_2  and  C_11 
REMARK    4  A    between atoms: C_3  and  C_4 
REMARK       I    between atoms: C_11  and  N_13 
REMARK    5  A    between atoms: N_13  and  C_14 
REMARK    6  A    between atoms: C_17  and  C_20 
ROOT
HETATM    1  C   UNL     1      24.273  48.114  49.435  1.00  0.00     0.255 C 
HETATM    2  O   UNL     1      23.359  47.294  49.432  1.00  0.00    -0.271 OA
HETATM    3  N   UNL     1      25.520  47.952  50.010  1.00  0.00    -0.325 N 
HETATM    4  H   UNL     1      26.126  48.762  49.883  1.00  0.00     0.169 HD
ENDROOT
BRANCH   1   5
HETATM    5  C   UNL     1      24.110  49.509  48.782  1.00  0.00     0.313 C 
BRANCH   5   6
HETATM    6  N   UNL     1      25.378  49.910  48.102  1.00  0.00     0.092 N 
HETATM    7  H   UNL     1      25.211  50.819  47.661  1.00  0.00     0.313 HD
HETATM    8  H   UNL     1      25.533  49.271  47.319  1.00  0.00     0.313 HD
ENDBRANCH   5   6
BRANCH   5   9
HETATM    9  C   UNL     1      22.904  49.475  47.823  1.00  0.00     0.083 C 
BRANCH   9  10
HETATM   10  C   UNL     1      21.690  50.218  48.331  1.00  0.00    -0.056 A 
HETATM   11  C   UNL     1      20.651  50.571  47.458  1.00  0.00     0.009 A 
HETATM   12  C   UNL     1      19.525  51.246  47.937  1.00  0.00     0.024 A 
HETATM   13  C   UNL     1      19.433  51.568  49.289  1.00  0.00     0.034 A 
HETATM   14 CL   UNL     1      18.041  52.389  49.879  1.00  0.00    -0.084 Cl
HETATM   15  C   UNL     1      20.460  51.225  50.167  1.00  0.00     0.024 A 
HETATM   16  C   UNL     1      21.587  50.555  49.689  1.00  0.00     0.009 A 
ENDBRANCH   9  10
ENDBRANCH   5   9
ENDBRANCH   1   5
BRANCH   3  17
HETATM   17  C   UNL     1      26.059  46.801  50.607  1.00  0.00     0.034 A 
HETATM   18  C   UNL     1      26.690  45.875  49.772  1.00  0.00     0.030 A 
HETATM   19  C   UNL     1      27.202  44.676  50.287  1.00  0.00     0.014 A 
HETATM   20  C   UNL     1      27.099  44.383  51.652  1.00  0.00    -0.023 A 
HETATM   21  C   UNL     1      26.495  45.331  52.489  1.00  0.00     0.014 A 
HETATM   22  C   UNL     1      25.979  46.525  51.971  1.00  0.00     0.030 A 
BRANCH  20  23
HETATM   23  C   UNL     1      27.604  43.124  52.177  1.00  0.00     0.010 A 
HETATM   24  C   UNL     1      28.134  41.989  51.517  1.00  0.00     0.152 A 
HETATM   25  N   UNL     1      28.468  41.005  52.358  1.00  0.00    -0.187 NA
HETATM   26  N   UNL     1      28.151  41.504  53.563  1.00  0.00    -0.289 N 
HETATM   27  H   UNL     1      28.313  40.926  54.381  1.00  0.00     0.188 HD
HETATM   28  C   UNL     1      27.627  42.763  53.509  1.00  0.00     0.123 A 
ENDBRANCH  20  23
ENDBRANCH   3  17
TORSDOF 6
ENDMDL
MODEL 8
REMARK VINA RESULT:      -7.7      5.580      8.095
REMARK  6 active torsions:
REMARK  status: ('A' for Active; 'I' for Inactive)
REMARK    1  A    between atoms: N_1  and  C_2 
REMARK    2  A    between atoms: C_2  and  C_3 
REMARK    3  A    between atoms: C_2  and  C_11 
REMARK    4  A    between atoms: C_3  and  C_4 
REMARK       I    between atoms: C_11  and  N_13 
REMARK    5  A    between atoms: N_13  and  C_14 
REMARK    6  A    between atoms: C_17  and  C_20 
ROOT
HETATM    1  C   UNL     1      27.811  41.409  51.204  1.00  0.00     0.255 C 
HETATM    2  O   UNL     1      27.513  42.185  50.300  1.00  0.00    -0.271 OA
HETATM    3  N   UNL     1      27.996  40.044  51.085  1.00  0.00    -0.325 N 
HETATM    4  H   UNL     1      28.249  39.598  51.967  1.00  0.00     0.169 HD
ENDROOT
BRANCH   1   5
HETATM    5  C   UNL     1      27.996  41.897  52.662  1.00  0.00     0.313 C 
BRANCH   5   6
HETATM    6  N   UNL     1      27.670  40.797  53.618  1.00  0.00     0.092 N 
HETATM    7  H   UNL     1      28.345  40.045  53.456  1.00  0.00     0.313 HD
HETATM    8  H   UNL     1      26.770  40.396  53.344  1.00  0.00     0.313 HD
ENDBRANCH   5   6
BRANCH   5   9
HETATM    9  C   UNL     1      29.432  42.429  52.833  1.00  0.00     0.083 C 
BRANCH   9  10
HETATM   10  C   UNL     1      29.617  43.333  54.031  1.00  0.00    -0.056 A 
HETATM   11  C   UNL     1      30.688  43.136  54.915  1.00  0.00     0.009 A 
HETATM   12  C   UNL     1      30.861  43.983  56.012  1.00  0.00     0.024 A 
HETATM   13  C   UNL     1      29.967  45.029  56.229  1.00  0.00     0.034 A 
HETATM   14 CL   UNL     1      30.189  46.077  57.575  1.00  0.00    -0.084 Cl
HETATM   15  C   UNL     1      28.898  45.233  55.360  1.00  0.00     0.024 A 
HETATM   16  C   UNL     1      28.721  44.385  54.265  1.00  0.00     0.009 A 
ENDBRANCH   9  10
ENDBRANCH   5   9
ENDBRANCH   1   5
BRANCH   3  17
HETATM   17  C   UNL     1      28.000  39.264  49.917  1.00  0.00     0.034 A 
HETATM   18  C   UNL     1      29.219  38.706  49.518  1.00  0.00     0.030 A 
HETATM   19  C   UNL     1      29.313  37.964  48.332  1.00  0.00     0.014 A 
HETATM   20  C   UNL     1      28.187  37.759  47.526  1.00  0.00    -0.023 A 
HETATM   21  C   UNL     1      26.963  38.294  47.949  1.00  0.00     0.014 A 
HETATM   22  C   UNL     1      26.872  39.039  49.131  1.00  0.00     0.030 A 
BRANCH  20  23
HETATM   23  C   UNL     1      28.297  37.015  46.280  1.00  0.00     0.010 A 
HETATM   24  C   UNL     1      27.930  35.686  45.958  1.00  0.00     0.152 A 
HETATM   25  N   UNL     1      28.221  35.357  44.696  1.00  0.00    -0.187 NA
HETATM   26  N   UNL     1      28.779  36.473  44.203  1.00  0.00    -0.289 N 
HETATM   27  H   UNL     1      29.094  36.469  43.238  1.00  0.00     0.188 HD
HETATM   28  C   UNL     1      28.851  37.491  45.110  1.00  0.00     0.123 A 
ENDBRANCH  20  23
ENDBRANCH   3  17
TORSDOF 6
ENDMDL
MODEL 9
REMARK VINA RESULT:      -7.5      7.079     10.699
REMARK  6 active torsions:
REMARK  status: ('A' for Active; 'I' for Inactive)
REMARK    1  A    between atoms: N_1  and  C_2 
REMARK    2  A    between atoms: C_2  and  C_3 
REMARK    3  A    between atoms: C_2  and  C_11 
REMARK    4  A    between atoms: C_3  and  C_4 
REMARK       I    between atoms: C_11  and  N_13 
REMARK    5  A    between atoms: N_13  and  C_14 
REMARK    6  A    between atoms: C_17  and  C_20 
ROOT
HETATM    1  C   UNL     1      18.975  49.241  50.100  1.00  0.00     0.255 C 
HETATM    2  O   UNL     1      18.633  49.253  51.279  1.00  0.00    -0.271 OA
HETATM    3  N   UNL     1      18.447  50.017  49.085  1.00  0.00    -0.325 N 
HETATM    4  H   UNL     1      18.890  49.847  48.182  1.00  0.00     0.169 HD
ENDROOT
BRANCH   1   5
HETATM    5  C   UNL     1      20.077  48.282  49.587  1.00  0.00     0.313 C 
BRANCH   5   6
HETATM    6  N   UNL     1      19.524  46.904  49.421  1.00  0.00     0.092 N 
HETATM    7  H   UNL     1      20.231  46.351  48.928  1.00  0.00     0.313 HD
HETATM    8  H   UNL     1      18.739  46.954  48.767  1.00  0.00     0.313 HD
ENDBRANCH   5   6
BRANCH   5   9
HETATM    9  C   UNL     1      20.665  48.849  48.281  1.00  0.00     0.083 C 
BRANCH   9  10
HETATM   10  C   UNL     1      22.151  49.122  48.340  1.00  0.00    -0.056 A 
HETATM   11  C   UNL     1      22.703  50.222  47.669  1.00  0.00     0.009 A 
HETATM   12  C   UNL     1      24.075  50.476  47.739  1.00  0.00     0.024 A 
HETATM   13  C   UNL     1      24.899  49.632  48.480  1.00  0.00     0.034 A 
HETATM   14 CL   UNL     1      26.587  49.952  48.574  1.00  0.00    -0.084 Cl
HETATM   15  C   UNL     1      24.364  48.534  49.149  1.00  0.00     0.024 A 
HETATM   16  C   UNL     1      22.993  48.277  49.077  1.00  0.00     0.009 A 
ENDBRANCH   9  10
ENDBRANCH   5   9
ENDBRANCH   1   5
BRANCH   3  17
HETATM   17  C   UNL     1      17.504  51.053  49.182  1.00  0.00     0.034 A 
HETATM   18  C   UNL     1      17.934  52.269  49.721  1.00  0.00     0.030 A 
HETATM   19  C   UNL     1      17.037  53.331  49.902  1.00  0.00     0.014 A 
HETATM   20  C   UNL     1      15.691  53.199  49.541  1.00  0.00    -0.023 A 
HETATM   21  C   UNL     1      15.274  51.989  48.971  1.00  0.00     0.014 A 
HETATM   22  C   UNL     1      16.171  50.927  48.796  1.00  0.00     0.030 A 
BRANCH  20  23
HETATM   23  C   UNL     1      14.757  54.292  49.760  1.00  0.00     0.010 A 
HETATM   24  C   UNL     1      14.935  55.556  50.373  1.00  0.00     0.152 A 
HETATM   25  N   UNL     1      13.813  56.281  50.407  1.00  0.00    -0.187 NA
HETATM   26  N   UNL     1      12.908  55.485  49.819  1.00  0.00    -0.289 N 
HETATM   27  H   UNL     1      11.956  55.822  49.729  1.00  0.00     0.188 HD
HETATM   28  C   UNL     1      13.420  54.284  49.419  1.00  0.00     0.123 A 
ENDBRANCH  20  23
ENDBRANCH   3  17
TORSDOF 6
ENDMDL
MODEL 10
REMARK VINA RESULT:      -7.4     16.888     18.348
REMARK  6 active torsions:
REMARK  status: ('A' for Active; 'I' for Inactive)
REMARK    1  A    between atoms: N_1  and  C_2 
REMARK    2  A    between atoms: C_2  and  C_3 
REMARK    3  A    between atoms: C_2  and  C_11 
REMARK    4  A    between atoms: C_3  and  C_4 
REMARK       I    between atoms: C_11  and  N_13 
REMARK    5  A    between atoms: N_13  and  C_14 
REMARK    6  A    between atoms: C_17  and  C_20 
ROOT
HETATM    1  C   UNL     1      37.713  45.327  63.680  1.00  0.00     0.255 C 
HETATM    2  O   UNL     1      36.497  45.446  63.566  1.00  0.00    -0.271 OA
HETATM    3  N   UNL     1      38.577  46.246  64.248  1.00  0.00    -0.325 N 
HETATM    4  H   UNL     1      39.548  45.935  64.244  1.00  0.00     0.169 HD
ENDROOT
BRANCH   1   5
HETATM    5  C   UNL     1      38.459  44.079  63.146  1.00  0.00     0.313 C 
BRANCH   5   6
HETATM    6  N   UNL     1      39.841  44.026  63.709  1.00  0.00     0.092 N 
HETATM    7  H   UNL     1      40.402  44.717  63.203  1.00  0.00     0.313 HD
HETATM    8  H   UNL     1      40.254  43.126  63.452  1.00  0.00     0.313 HD
ENDBRANCH   5   6
BRANCH   5   9
HETATM    9  C   UNL     1      37.631  42.823  63.476  1.00  0.00     0.083 C 
BRANCH   9  10
HETATM   10  C   UNL     1      38.455  41.565  63.635  1.00  0.00    -0.056 A 
HETATM   11  C   UNL     1      38.962  40.896  62.512  1.00  0.00     0.009 A 
HETATM   12  C   UNL     1      39.733  39.742  62.666  1.00  0.00     0.024 A 
HETATM   13  C   UNL     1      40.002  39.253  63.943  1.00  0.00     0.034 A 
HETATM   14 CL   UNL     1      40.963  37.839  64.131  1.00  0.00    -0.084 Cl
HETATM   15  C   UNL     1      39.503  39.907  65.067  1.00  0.00     0.024 A 
HETATM   16  C   UNL     1      38.728  41.058  64.914  1.00  0.00     0.009 A 
ENDBRANCH   9  10
ENDBRANCH   5   9
ENDBRANCH   1   5
BRANCH   3  17
HETATM   17  C   UNL     1      38.262  47.442  64.912  1.00  0.00     0.034 A 
HETATM   18  C   UNL     1      39.066  48.556  64.652  1.00  0.00     0.030 A 
HETATM   19  C   UNL     1      38.848  49.769  65.320  1.00  0.00     0.014 A 
HETATM   20  C   UNL     1      37.816  49.893  66.258  1.00  0.00    -0.023 A 
HETATM   21  C   UNL     1      36.995  48.782  66.490  1.00  0.00     0.014 A 
HETATM   22  C   UNL     1      37.217  47.570  65.826  1.00  0.00     0.030 A 
BRANCH  20  23
HETATM   23  C   UNL     1      37.614  51.145  66.972  1.00  0.00     0.010 A 
HETATM   24  C   UNL     1      37.713  52.489  66.536  1.00  0.00     0.152 A 
HETATM   25  N   UNL     1      37.476  53.371  67.511  1.00  0.00    -0.187 NA
HETATM   26  N   UNL     1      37.228  52.598  68.579  1.00  0.00    -0.289 N 
HETATM   27  H   UNL     1      37.021  53.050  69.464  1.00  0.00     0.188 HD
HETATM   28  C   UNL     1      37.303  51.261  68.311  1.00  0.00     0.123 A 
ENDBRANCH  20  23
ENDBRANCH   3  17
TORSDOF 6
ENDMDL
