MODEL 1
REMARK VINA RESULT:      -8.8      0.000      0.000
REMARK  5 active torsions:
REMARK  status: ('A' for Active; 'I' for Inactive)
REMARK    1  A    between atoms: O_2  and  C_3 
REMARK    2  A    between atoms: C_6  and  N_7 
REMARK       I    between atoms: N_7  and  C_8 
REMARK    3  A    between atoms: C_8  and  C_9 
REMARK    4  A    between atoms: C_9  and  N_10 
REMARK    5  A    between atoms: N_10  and  C_11 
ROOT
HETATM    1  C   UNL     1      28.565  41.148  52.486  1.00  0.00     0.195 C 
ENDROOT
BRANCH   1   2
HETATM    2  C   UNL     1      28.076  40.860  51.069  1.00  0.00     0.235 C 
HETATM    3  N   UNL     1      27.309  41.738  50.358  1.00  0.00    -0.326 N 
HETATM    4  H   UNL     1      27.198  41.416  49.404  1.00  0.00     0.169 HD
HETATM    5  O   UNL     1      28.387  39.798  50.512  1.00  0.00    -0.272 OA
BRANCH   3   6
HETATM    6  C   UNL     1      26.659  42.944  50.676  1.00  0.00     0.034 A 
HETATM    7  C   UNL     1      25.476  43.061  51.402  1.00  0.00     0.032 A 
HETATM    8  C   UNL     1      24.917  44.320  51.674  1.00  0.00     0.039 A 
HETATM    9  C   UNL     1      25.529  45.481  51.208  1.00  0.00     0.068 A 
HETATM   10  C   UNL     1      26.687  45.369  50.442  1.00  0.00     0.039 A 
HETATM   11  C   UNL     1      27.245  44.114  50.176  1.00  0.00     0.032 A 
BRANCH   9  12
HETATM   12  O   UNL     1      25.091  46.759  51.410  1.00  0.00    -0.356 OA
HETATM   13  C   UNL     1      24.497  47.415  50.297  1.00  0.00     0.210 C 
ENDBRANCH   9  12
ENDBRANCH   3   6
ENDBRANCH   1   2
BRANCH   1  14
HETATM   14  N   UNL     1      29.526  42.253  52.461  1.00  0.00    -0.284 NA
HETATM   15  H   UNL     1      29.574  42.688  51.540  1.00  0.00     0.128 HD
BRANCH  14  16
HETATM   16  C   UNL     1      29.549  43.201  53.488  1.00  0.00     0.009 A 
HETATM   17  C   UNL     1      30.439  42.997  54.555  1.00  0.00     0.035 A 
HETATM   18  C   UNL     1      30.469  43.842  55.678  1.00  0.00    -0.024 A 
HETATM   19  C   UNL     1      29.559  44.916  55.754  1.00  0.00    -0.026 A 
HETATM   20  C   UNL     1      31.377  43.636  56.731  1.00  0.00     0.012 A 
HETATM   21  C   UNL     1      28.647  45.106  54.708  1.00  0.00     0.014 A 
HETATM   22  C   UNL     1      29.579  45.760  56.878  1.00  0.00     0.012 A 
HETATM   23  C   UNL     1      28.636  44.250  53.599  1.00  0.00     0.024 A 
HETATM   24  C   UNL     1      30.489  45.543  57.914  1.00  0.00     0.001 A 
HETATM   25  C   UNL     1      31.387  44.482  57.841  1.00  0.00     0.001 A 
ENDBRANCH  14  16
ENDBRANCH   1  14
TORSDOF 5
ENDMDL
MODEL 2
REMARK VINA RESULT:      -8.6      1.542      2.433
REMARK  5 active torsions:
REMARK  status: ('A' for Active; 'I' for Inactive)
REMARK    1  A    between atoms: O_2  and  C_3 
REMARK    2  A    between atoms: C_6  and  N_7 
REMARK       I    between atoms: N_7  and  C_8 
REMARK    3  A    between atoms: C_8  and  C_9 
REMARK    4  A    between atoms: C_9  and  N_10 
REMARK    5  A    between atoms: N_10  and  C_11 
ROOT
HETATM    1  C   UNL     1      26.901  43.414  52.266  1.00  0.00     0.195 C 
ENDROOT
BRANCH   1   2
HETATM    2  C   UNL     1      27.106  43.089  50.788  1.00  0.00     0.235 C 
HETATM    3  N   UNL     1      26.744  43.943  49.786  1.00  0.00    -0.326 N 
HETATM    4  H   UNL     1      27.076  43.599  48.893  1.00  0.00     0.169 HD
HETATM    5  O   UNL     1      27.634  42.019  50.459  1.00  0.00    -0.272 OA
BRANCH   3   6
HETATM    6  C   UNL     1      26.022  45.149  49.746  1.00  0.00     0.034 A 
HETATM    7  C   UNL     1      24.635  45.262  49.689  1.00  0.00     0.032 A 
HETATM    8  C   UNL     1      24.013  46.521  49.665  1.00  0.00     0.039 A 
HETATM    9  C   UNL     1      24.775  47.686  49.680  1.00  0.00     0.068 A 
HETATM   10  C   UNL     1      26.164  47.580  49.690  1.00  0.00     0.039 A 
HETATM   11  C   UNL     1      26.781  46.325  49.719  1.00  0.00     0.032 A 
BRANCH   9  12
HETATM   12  O   UNL     1      24.292  48.964  49.667  1.00  0.00    -0.356 OA
HETATM   13  C   UNL     1      24.727  49.800  48.602  1.00  0.00     0.210 C 
ENDBRANCH   9  12
ENDBRANCH   3   6
ENDBRANCH   1   2
BRANCH   1  14
HETATM   14  N   UNL     1      27.878  44.419  52.690  1.00  0.00    -0.284 NA
HETATM   15  H   UNL     1      27.468  45.353  52.718  1.00  0.00     0.128 HD
BRANCH  14  16
HETATM   16  C   UNL     1      28.715  44.183  53.783  1.00  0.00     0.009 A 
HETATM   17  C   UNL     1      28.677  45.092  54.853  1.00  0.00     0.035 A 
HETATM   18  C   UNL     1      29.549  44.993  55.952  1.00  0.00    -0.024 A 
HETATM   19  C   UNL     1      30.514  43.965  55.974  1.00  0.00    -0.026 A 
HETATM   20  C   UNL     1      29.488  45.900  57.024  1.00  0.00     0.012 A 
HETATM   21  C   UNL     1      30.578  43.074  54.894  1.00  0.00     0.014 A 
HETATM   22  C   UNL     1      31.392  43.866  57.066  1.00  0.00     0.012 A 
HETATM   23  C   UNL     1      29.699  43.194  53.810  1.00  0.00     0.024 A 
HETATM   24  C   UNL     1      31.317  44.774  58.124  1.00  0.00     0.001 A 
HETATM   25  C   UNL     1      30.366  45.789  58.104  1.00  0.00     0.001 A 
ENDBRANCH  14  16
ENDBRANCH   1  14
TORSDOF 5
ENDMDL
MODEL 3
REMARK VINA RESULT:      -8.4      1.728      4.320
REMARK  5 active torsions:
REMARK  status: ('A' for Active; 'I' for Inactive)
REMARK    1  A    between atoms: O_2  and  C_3 
REMARK    2  A    between atoms: C_6  and  N_7 
REMARK       I    between atoms: N_7  and  C_8 
REMARK    3  A    between atoms: C_8  and  C_9 
REMARK    4  A    between atoms: C_9  and  N_10 
REMARK    5  A    between atoms: N_10  and  C_11 
ROOT
HETATM    1  C   UNL     1      26.788  44.879  52.018  1.00  0.00     0.195 C 
ENDROOT
BRANCH   1   2
HETATM    2  C   UNL     1      25.609  43.931  52.230  1.00  0.00     0.235 C 
HETATM    3  N   UNL     1      25.590  42.654  51.749  1.00  0.00    -0.326 N 
HETATM    4  H   UNL     1      24.781  42.157  52.102  1.00  0.00     0.169 HD
HETATM    5  O   UNL     1      24.622  44.309  52.877  1.00  0.00    -0.272 OA
BRANCH   3   6
HETATM    6  C   UNL     1      26.429  41.925  50.887  1.00  0.00     0.034 A 
HETATM    7  C   UNL     1      26.341  41.904  49.497  1.00  0.00     0.032 A 
HETATM    8  C   UNL     1      27.241  41.148  48.728  1.00  0.00     0.039 A 
HETATM    9  C   UNL     1      28.231  40.387  49.343  1.00  0.00     0.068 A 
HETATM   10  C   UNL     1      28.294  40.366  50.735  1.00  0.00     0.039 A 
HETATM   11  C   UNL     1      27.401  41.124  51.499  1.00  0.00     0.032 A 
BRANCH   9  12
HETATM   12  O   UNL     1      29.166  39.618  48.710  1.00  0.00    -0.356 OA
HETATM   13  C   UNL     1      28.990  38.208  48.784  1.00  0.00     0.210 C 
ENDBRANCH   9  12
ENDBRANCH   3   6
ENDBRANCH   1   2
BRANCH   1  14
HETATM   14  N   UNL     1      27.200  45.448  53.303  1.00  0.00    -0.284 NA
HETATM   15  H   UNL     1      26.395  45.725  53.867  1.00  0.00     0.128 HD
BRANCH  14  16
HETATM   16  C   UNL     1      28.189  44.831  54.073  1.00  0.00     0.009 A 
HETATM   17  C   UNL     1      28.555  45.435  55.287  1.00  0.00     0.035 A 
HETATM   18  C   UNL     1      29.604  44.942  56.083  1.00  0.00    -0.024 A 
HETATM   19  C   UNL     1      30.335  43.821  55.639  1.00  0.00    -0.026 A 
HETATM   20  C   UNL     1      29.948  45.547  57.304  1.00  0.00     0.012 A 
HETATM   21  C   UNL     1      29.996  43.233  54.414  1.00  0.00     0.014 A 
HETATM   22  C   UNL     1      31.389  43.329  56.427  1.00  0.00     0.012 A 
HETATM   23  C   UNL     1      28.946  43.743  53.638  1.00  0.00     0.024 A 
HETATM   24  C   UNL     1      31.717  43.940  57.639  1.00  0.00     0.001 A 
HETATM   25  C   UNL     1      30.997  45.047  58.078  1.00  0.00     0.001 A 
ENDBRANCH  14  16
ENDBRANCH   1  14
TORSDOF 5
ENDMDL
MODEL 4
REMARK VINA RESULT:      -8.4     12.656     15.021
REMARK  5 active torsions:
REMARK  status: ('A' for Active; 'I' for Inactive)
REMARK    1  A    between atoms: O_2  and  C_3 
REMARK    2  A    between atoms: C_6  and  N_7 
REMARK       I    between atoms: N_7  and  C_8 
REMARK    3  A    between atoms: C_8  and  C_9 
REMARK    4  A    between atoms: C_9  and  N_10 
REMARK    5  A    between atoms: N_10  and  C_11 
ROOT
HETATM    1  C   UNL     1      26.412  49.163  39.449  1.00  0.00     0.195 C 
ENDROOT
BRANCH   1   2
HETATM    2  C   UNL     1      26.321  48.164  40.600  1.00  0.00     0.235 C 
HETATM    3  N   UNL     1      27.410  47.761  41.318  1.00  0.00    -0.326 N 
HETATM    4  H   UNL     1      27.121  47.198  42.109  1.00  0.00     0.169 HD
HETATM    5  O   UNL     1      25.221  47.696  40.925  1.00  0.00    -0.272 OA
BRANCH   3   6
HETATM    6  C   UNL     1      28.796  47.954  41.178  1.00  0.00     0.034 A 
HETATM    7  C   UNL     1      29.593  47.407  40.175  1.00  0.00     0.032 A 
HETATM    8  C   UNL     1      30.971  47.674  40.121  1.00  0.00     0.039 A 
HETATM    9  C   UNL     1      31.572  48.482  41.083  1.00  0.00     0.068 A 
HETATM   10  C   UNL     1      30.789  48.995  42.115  1.00  0.00     0.039 A 
HETATM   11  C   UNL     1      29.416  48.731  42.164  1.00  0.00     0.032 A 
BRANCH   9  12
HETATM   12  O   UNL     1      32.894  48.822  41.137  1.00  0.00    -0.356 OA
HETATM   13  C   UNL     1      33.246  49.883  42.015  1.00  0.00     0.210 C 
ENDBRANCH   9  12
ENDBRANCH   3   6
ENDBRANCH   1   2
BRANCH   1  14
HETATM   14  N   UNL     1      26.470  50.526  39.982  1.00  0.00    -0.284 NA
HETATM   15  H   UNL     1      25.894  50.626  40.819  1.00  0.00     0.128 HD
BRANCH  14  16
HETATM   16  C   UNL     1      27.691  51.192  40.106  1.00  0.00     0.009 A 
HETATM   17  C   UNL     1      28.719  50.860  39.208  1.00  0.00     0.035 A 
HETATM   18  C   UNL     1      30.011  51.406  39.313  1.00  0.00    -0.024 A 
HETATM   19  C   UNL     1      30.298  52.296  40.368  1.00  0.00    -0.026 A 
HETATM   20  C   UNL     1      31.025  51.078  38.397  1.00  0.00     0.012 A 
HETATM   21  C   UNL     1      29.285  52.607  41.285  1.00  0.00     0.014 A 
HETATM   22  C   UNL     1      31.588  52.839  40.481  1.00  0.00     0.012 A 
HETATM   23  C   UNL     1      28.006  52.050  41.161  1.00  0.00     0.024 A 
HETATM   24  C   UNL     1      32.585  52.504  39.562  1.00  0.00     0.001 A 
HETATM   25  C   UNL     1      32.303  51.625  38.521  1.00  0.00     0.001 A 
ENDBRANCH  14  16
ENDBRANCH   1  14
TORSDOF 5
ENDMDL
MODEL 5
REMARK VINA RESULT:      -8.3      1.841      4.528
REMARK  5 active torsions:
REMARK  status: ('A' for Active; 'I' for Inactive)
REMARK    1  A    between atoms: O_2  and  C_3 
REMARK    2  A    between atoms: C_6  and  N_7 
REMARK       I    between atoms: N_7  and  C_8 
REMARK    3  A    between atoms: C_8  and  C_9 
REMARK    4  A    between atoms: C_9  and  N_10 
REMARK    5  A    between atoms: N_10  and  C_11 
ROOT
HETATM    1  C   UNL     1      26.524  44.601  51.769  1.00  0.00     0.195 C 
ENDROOT
BRANCH   1   2
HETATM    2  C   UNL     1      25.278  43.732  51.619  1.00  0.00     0.235 C 
HETATM    3  N   UNL     1      25.337  42.391  51.370  1.00  0.00    -0.326 N 
HETATM    4  H   UNL     1      24.412  41.980  51.431  1.00  0.00     0.169 HD
HETATM    5  O   UNL     1      24.154  44.238  51.740  1.00  0.00    -0.272 OA
BRANCH   3   6
HETATM    6  C   UNL     1      26.379  41.503  51.048  1.00  0.00     0.034 A 
HETATM    7  C   UNL     1      27.557  41.338  51.774  1.00  0.00     0.032 A 
HETATM    8  C   UNL     1      28.531  40.412  51.368  1.00  0.00     0.039 A 
HETATM    9  C   UNL     1      28.345  39.648  50.218  1.00  0.00     0.068 A 
HETATM   10  C   UNL     1      27.191  39.841  49.463  1.00  0.00     0.039 A 
HETATM   11  C   UNL     1      26.220  40.762  49.871  1.00  0.00     0.032 A 
BRANCH   9  12
HETATM   12  O   UNL     1      29.210  38.712  49.725  1.00  0.00    -0.356 OA
HETATM   13  C   UNL     1      29.811  37.837  50.671  1.00  0.00     0.210 C 
ENDBRANCH   9  12
ENDBRANCH   3   6
ENDBRANCH   1   2
BRANCH   1  14
HETATM   14  N   UNL     1      26.391  45.454  52.952  1.00  0.00    -0.284 NA
HETATM   15  H   UNL     1      25.469  45.363  53.379  1.00  0.00     0.128 HD
BRANCH  14  16
HETATM   16  C   UNL     1      27.406  45.508  53.910  1.00  0.00     0.009 A 
HETATM   17  C   UNL     1      28.276  44.410  54.014  1.00  0.00     0.035 A 
HETATM   18  C   UNL     1      29.267  44.330  55.009  1.00  0.00    -0.024 A 
HETATM   19  C   UNL     1      29.378  45.371  55.953  1.00  0.00    -0.026 A 
HETATM   20  C   UNL     1      30.141  43.233  55.090  1.00  0.00     0.012 A 
HETATM   21  C   UNL     1      28.493  46.455  55.874  1.00  0.00     0.014 A 
HETATM   22  C   UNL     1      30.361  45.293  56.953  1.00  0.00     0.012 A 
HETATM   23  C   UNL     1      27.513  46.511  54.874  1.00  0.00     0.024 A 
HETATM   24  C   UNL     1      31.224  44.197  57.020  1.00  0.00     0.001 A 
HETATM   25  C   UNL     1      31.114  43.168  56.089  1.00  0.00     0.001 A 
ENDBRANCH  14  16
ENDBRANCH   1  14
TORSDOF 5
ENDMDL
MODEL 6
REMARK VINA RESULT:      -8.3      1.774      2.930
REMARK  5 active torsions:
REMARK  status: ('A' for Active; 'I' for Inactive)
REMARK    1  A    between atoms: O_2  and  C_3 
REMARK    2  A    between atoms: C_6  and  N_7 
REMARK       I    between atoms: N_7  and  C_8 
REMARK    3  A    between atoms: C_8  and  C_9 
REMARK    4  A    between atoms: C_9  and  N_10 
REMARK    5  A    between atoms: N_10  and  C_11 
ROOT
HETATM    1  C   UNL     1      27.730  41.222  51.704  1.00  0.00     0.195 C 
ENDROOT
BRANCH   1   2
HETATM    2  C   UNL     1      26.539  40.886  50.809  1.00  0.00     0.235 C 
HETATM    3  N   UNL     1      25.802  41.841  50.171  1.00  0.00    -0.326 N 
HETATM    4  H   UNL     1      25.143  41.409  49.533  1.00  0.00     0.169 HD
HETATM    5  O   UNL     1      26.219  39.704  50.625  1.00  0.00    -0.272 OA
BRANCH   3   6
HETATM    6  C   UNL     1      25.766  43.246  50.228  1.00  0.00     0.034 A 
HETATM    7  C   UNL     1      26.817  44.098  49.897  1.00  0.00     0.032 A 
HETATM    8  C   UNL     1      26.669  45.492  49.978  1.00  0.00     0.039 A 
HETATM    9  C   UNL     1      25.470  46.052  50.409  1.00  0.00     0.068 A 
HETATM   10  C   UNL     1      24.430  45.205  50.786  1.00  0.00     0.039 A 
HETATM   11  C   UNL     1      24.577  43.817  50.700  1.00  0.00     0.032 A 
BRANCH   9  12
HETATM   12  O   UNL     1      25.200  47.386  50.524  1.00  0.00    -0.356 OA
HETATM   13  C   UNL     1      24.122  47.889  49.744  1.00  0.00     0.210 C 
ENDBRANCH   9  12
ENDBRANCH   3   6
ENDBRANCH   1   2
BRANCH   1  14
HETATM   14  N   UNL     1      27.257  41.543  53.053  1.00  0.00    -0.284 NA
HETATM   15  H   UNL     1      27.356  40.748  53.685  1.00  0.00     0.128 HD
BRANCH  14  16
HETATM   16  C   UNL     1      27.615  42.746  53.667  1.00  0.00     0.009 A 
HETATM   17  C   UNL     1      26.709  43.817  53.600  1.00  0.00     0.035 A 
HETATM   18  C   UNL     1      27.019  45.093  54.103  1.00  0.00    -0.024 A 
HETATM   19  C   UNL     1      28.290  45.318  54.670  1.00  0.00    -0.026 A 
HETATM   20  C   UNL     1      26.096  46.151  54.045  1.00  0.00     0.012 A 
HETATM   21  C   UNL     1      29.210  44.262  54.711  1.00  0.00     0.014 A 
HETATM   22  C   UNL     1      28.608  46.593  55.168  1.00  0.00     0.012 A 
HETATM   23  C   UNL     1      28.878  42.999  54.203  1.00  0.00     0.024 A 
HETATM   24  C   UNL     1      27.679  47.634  55.104  1.00  0.00     0.001 A 
HETATM   25  C   UNL     1      26.425  47.413  54.544  1.00  0.00     0.001 A 
ENDBRANCH  14  16
ENDBRANCH   1  14
TORSDOF 5
ENDMDL
MODEL 7
REMARK VINA RESULT:      -8.2      2.188      3.188
REMARK  5 active torsions:
REMARK  status: ('A' for Active; 'I' for Inactive)
REMARK    1  A    between atoms: O_2  and  C_3 
REMARK    2  A    between atoms: C_6  and  N_7 
REMARK       I    between atoms: N_7  and  C_8 
REMARK    3  A    between atoms: C_8  and  C_9 
REMARK    4  A    between atoms: C_9  and  N_10 
REMARK    5  A    between atoms: N_10  and  C_11 
ROOT
HETATM    1  C   UNL     1      25.744  44.469  52.556  1.00  0.00     0.195 C 
ENDROOT
BRANCH   1   2
HETATM    2  C   UNL     1      25.165  43.889  51.267  1.00  0.00     0.235 C 
HETATM    3  N   UNL     1      24.970  44.637  50.142  1.00  0.00    -0.326 N 
HETATM    4  H   UNL     1      24.697  44.044  49.367  1.00  0.00     0.169 HD
HETATM    5  O   UNL     1      24.866  42.689  51.211  1.00  0.00    -0.272 OA
BRANCH   3   6
HETATM    6  C   UNL     1      25.056  46.012  49.857  1.00  0.00     0.034 A 
HETATM    7  C   UNL     1      26.217  46.780  49.912  1.00  0.00     0.032 A 
HETATM    8  C   UNL     1      26.193  48.148  49.595  1.00  0.00     0.039 A 
HETATM    9  C   UNL     1      25.001  48.770  49.233  1.00  0.00     0.068 A 
HETATM   10  C   UNL     1      23.828  48.017  49.221  1.00  0.00     0.039 A 
HETATM   11  C   UNL     1      23.855  46.654  49.533  1.00  0.00     0.032 A 
BRANCH   9  12
HETATM   12  O   UNL     1      24.849  50.084  48.896  1.00  0.00    -0.356 OA
HETATM   13  C   UNL     1      23.615  50.449  48.290  1.00  0.00     0.210 C 
ENDBRANCH   9  12
ENDBRANCH   3   6
ENDBRANCH   1   2
BRANCH   1  14
HETATM   14  N   UNL     1      27.204  44.348  52.538  1.00  0.00    -0.284 NA
HETATM   15  H   UNL     1      27.600  44.706  51.668  1.00  0.00     0.128 HD
BRANCH  14  16
HETATM   16  C   UNL     1      27.964  44.721  53.649  1.00  0.00     0.009 A 
HETATM   17  C   UNL     1      28.969  43.842  54.087  1.00  0.00     0.035 A 
HETATM   18  C   UNL     1      29.721  44.084  55.251  1.00  0.00    -0.024 A 
HETATM   19  C   UNL     1      29.443  45.231  56.022  1.00  0.00    -0.026 A 
HETATM   20  C   UNL     1      30.735  43.205  55.667  1.00  0.00     0.012 A 
HETATM   21  C   UNL     1      28.421  46.095  55.608  1.00  0.00     0.014 A 
HETATM   22  C   UNL     1      30.187  45.473  57.189  1.00  0.00     0.012 A 
HETATM   23  C   UNL     1      27.685  45.832  54.445  1.00  0.00     0.024 A 
HETATM   24  C   UNL     1      31.192  44.591  57.589  1.00  0.00     0.001 A 
HETATM   25  C   UNL     1      31.466  43.458  56.829  1.00  0.00     0.001 A 
ENDBRANCH  14  16
ENDBRANCH   1  14
TORSDOF 5
ENDMDL
MODEL 8
REMARK VINA RESULT:      -8.1     12.914     15.747
REMARK  5 active torsions:
REMARK  status: ('A' for Active; 'I' for Inactive)
REMARK    1  A    between atoms: O_2  and  C_3 
REMARK    2  A    between atoms: C_6  and  N_7 
REMARK       I    between atoms: N_7  and  C_8 
REMARK    3  A    between atoms: C_8  and  C_9 
REMARK    4  A    between atoms: C_9  and  N_10 
REMARK    5  A    between atoms: N_10  and  C_11 
ROOT
HETATM    1  C   UNL     1      35.253  51.773  40.651  1.00  0.00     0.195 C 
ENDROOT
BRANCH   1   2
HETATM    2  C   UNL     1      35.123  51.627  42.166  1.00  0.00     0.235 C 
HETATM    3  N   UNL     1      34.230  50.778  42.752  1.00  0.00    -0.326 N 
HETATM    4  H   UNL     1      34.388  50.736  43.752  1.00  0.00     0.169 HD
HETATM    5  O   UNL     1      35.859  52.284  42.915  1.00  0.00    -0.272 OA
BRANCH   3   6
HETATM    6  C   UNL     1      33.170  49.989  42.268  1.00  0.00     0.034 A 
HETATM    7  C   UNL     1      33.277  48.994  41.299  1.00  0.00     0.032 A 
HETATM    8  C   UNL     1      32.153  48.256  40.895  1.00  0.00     0.039 A 
HETATM    9  C   UNL     1      30.901  48.516  41.446  1.00  0.00     0.068 A 
HETATM   10  C   UNL     1      30.779  49.541  42.382  1.00  0.00     0.039 A 
HETATM   11  C   UNL     1      31.901  50.272  42.786  1.00  0.00     0.032 A 
BRANCH   9  12
HETATM   12  O   UNL     1      29.738  47.866  41.145  1.00  0.00    -0.356 OA
HETATM   13  C   UNL     1      28.531  48.487  41.569  1.00  0.00     0.210 C 
ENDBRANCH   9  12
ENDBRANCH   3   6
ENDBRANCH   1   2
BRANCH   1  14
HETATM   14  N   UNL     1      34.286  52.761  40.166  1.00  0.00    -0.284 NA
HETATM   15  H   UNL     1      34.726  53.450  39.557  1.00  0.00     0.128 HD
BRANCH  14  16
HETATM   16  C   UNL     1      33.038  52.359  39.684  1.00  0.00     0.009 A 
HETATM   17  C   UNL     1      31.893  52.788  40.375  1.00  0.00     0.035 A 
HETATM   18  C   UNL     1      30.601  52.358  40.023  1.00  0.00    -0.024 A 
HETATM   19  C   UNL     1      30.445  51.446  38.960  1.00  0.00    -0.026 A 
HETATM   20  C   UNL     1      29.462  52.809  40.713  1.00  0.00     0.012 A 
HETATM   21  C   UNL     1      31.586  50.990  38.286  1.00  0.00     0.014 A 
HETATM   22  C   UNL     1      29.157  51.009  38.608  1.00  0.00     0.012 A 
HETATM   23  C   UNL     1      32.864  51.432  38.656  1.00  0.00     0.024 A 
HETATM   24  C   UNL     1      28.036  51.467  39.302  1.00  0.00     0.001 A 
HETATM   25  C   UNL     1      28.188  52.367  40.353  1.00  0.00     0.001 A 
ENDBRANCH  14  16
ENDBRANCH   1  14
TORSDOF 5
ENDMDL
MODEL 9
REMARK VINA RESULT:      -8.0      2.068      4.451
REMARK  5 active torsions:
REMARK  status: ('A' for Active; 'I' for Inactive)
REMARK    1  A    between atoms: O_2  and  C_3 
REMARK    2  A    between atoms: C_6  and  N_7 
REMARK       I    between atoms: N_7  and  C_8 
REMARK    3  A    between atoms: C_8  and  C_9 
REMARK    4  A    between atoms: C_9  and  N_10 
REMARK    5  A    between atoms: N_10  and  C_11 
ROOT
HETATM    1  C   UNL     1      26.231  47.111  51.832  1.00  0.00     0.195 C 
ENDROOT
BRANCH   1   2
HETATM    2  C   UNL     1      25.039  47.080  50.878  1.00  0.00     0.235 C 
HETATM    3  N   UNL     1      24.619  45.940  50.256  1.00  0.00    -0.326 N 
HETATM    4  H   UNL     1      23.745  46.106  49.769  1.00  0.00     0.169 HD
HETATM    5  O   UNL     1      24.400  48.117  50.656  1.00  0.00    -0.272 OA
BRANCH   3   6
HETATM    6  C   UNL     1      25.140  44.638  50.149  1.00  0.00     0.034 A 
HETATM    7  C   UNL     1      26.322  44.289  49.498  1.00  0.00     0.032 A 
HETATM    8  C   UNL     1      26.759  42.955  49.461  1.00  0.00     0.039 A 
HETATM    9  C   UNL     1      26.008  41.948  50.062  1.00  0.00     0.068 A 
HETATM   10  C   UNL     1      24.802  42.284  50.674  1.00  0.00     0.039 A 
HETATM   11  C   UNL     1      24.371  43.614  50.714  1.00  0.00     0.032 A 
BRANCH   9  12
HETATM   12  O   UNL     1      26.327  40.621  50.102  1.00  0.00    -0.356 OA
HETATM   13  C   UNL     1      26.144  39.884  48.899  1.00  0.00     0.210 C 
ENDBRANCH   9  12
ENDBRANCH   3   6
ENDBRANCH   1   2
BRANCH   1  14
HETATM   14  N   UNL     1      25.963  46.248  52.985  1.00  0.00    -0.284 NA
HETATM   15  H   UNL     1      25.078  45.750  52.883  1.00  0.00     0.128 HD
BRANCH  14  16
HETATM   16  C   UNL     1      26.964  45.429  53.511  1.00  0.00     0.009 A 
HETATM   17  C   UNL     1      27.725  45.921  54.583  1.00  0.00     0.035 A 
HETATM   18  C   UNL     1      28.816  45.211  55.117  1.00  0.00    -0.024 A 
HETATM   19  C   UNL     1      29.180  43.976  54.543  1.00  0.00    -0.026 A 
HETATM   20  C   UNL     1      29.557  45.708  56.202  1.00  0.00     0.012 A 
HETATM   21  C   UNL     1      28.444  43.494  53.452  1.00  0.00     0.014 A 
HETATM   22  C   UNL     1      30.272  43.266  55.068  1.00  0.00     0.012 A 
HETATM   23  C   UNL     1      27.362  44.220  52.937  1.00  0.00     0.024 A 
HETATM   24  C   UNL     1      30.998  43.773  56.147  1.00  0.00     0.001 A 
HETATM   25  C   UNL     1      30.641  44.993  56.714  1.00  0.00     0.001 A 
ENDBRANCH  14  16
ENDBRANCH   1  14
TORSDOF 5
ENDMDL
MODEL 10
REMARK VINA RESULT:      -8.0     12.708     14.400
REMARK  5 active torsions:
REMARK  status: ('A' for Active; 'I' for Inactive)
REMARK    1  A    between atoms: O_2  and  C_3 
REMARK    2  A    between atoms: C_6  and  N_7 
REMARK       I    between atoms: N_7  and  C_8 
REMARK    3  A    between atoms: C_8  and  C_9 
REMARK    4  A    between atoms: C_9  and  N_10 
REMARK    5  A    between atoms: N_10  and  C_11 
ROOT
HETATM    1  C   UNL     1      27.557  47.536  39.810  1.00  0.00     0.195 C 
ENDROOT
BRANCH   1   2
HETATM    2  C   UNL     1      26.299  48.280  40.254  1.00  0.00     0.235 C 
HETATM    3  N   UNL     1      26.214  49.642  40.272  1.00  0.00    -0.326 N 
HETATM    4  H   UNL     1      25.264  49.932  40.476  1.00  0.00     0.169 HD
HETATM    5  O   UNL     1      25.296  47.642  40.601  1.00  0.00    -0.272 OA
BRANCH   3   6
HETATM    6  C   UNL     1      27.143  50.681  40.085  1.00  0.00     0.034 A 
HETATM    7  C   UNL     1      27.684  51.073  38.863  1.00  0.00     0.032 A 
HETATM    8  C   UNL     1      28.599  52.136  38.787  1.00  0.00     0.039 A 
HETATM    9  C   UNL     1      28.998  52.810  39.938  1.00  0.00     0.068 A 
HETATM   10  C   UNL     1      28.495  52.392  41.169  1.00  0.00     0.039 A 
HETATM   11  C   UNL     1      27.581  51.337  41.242  1.00  0.00     0.032 A 
BRANCH   9  12
HETATM   12  O   UNL     1      29.871  53.859  39.996  1.00  0.00    -0.356 OA
HETATM   13  C   UNL     1      30.923  53.763  40.948  1.00  0.00     0.210 C 
ENDBRANCH   9  12
ENDBRANCH   3   6
ENDBRANCH   1   2
BRANCH   1  14
HETATM   14  N   UNL     1      28.536  47.528  40.899  1.00  0.00    -0.284 NA
HETATM   15  H   UNL     1      28.713  46.583  41.239  1.00  0.00     0.128 HD
BRANCH  14  16
HETATM   16  C   UNL     1      29.711  48.278  40.807  1.00  0.00     0.009 A 
HETATM   17  C   UNL     1      30.234  48.834  41.986  1.00  0.00     0.035 A 
HETATM   18  C   UNL     1      31.357  49.681  41.981  1.00  0.00    -0.024 A 
HETATM   19  C   UNL     1      31.966  50.008  40.753  1.00  0.00    -0.026 A 
HETATM   20  C   UNL     1      31.880  50.216  43.170  1.00  0.00     0.012 A 
HETATM   21  C   UNL     1      31.430  49.482  39.570  1.00  0.00     0.014 A 
HETATM   22  C   UNL     1      33.084  50.859  40.741  1.00  0.00     0.012 A 
HETATM   23  C   UNL     1      30.310  48.641  39.600  1.00  0.00     0.024 A 
HETATM   24  C   UNL     1      33.592  51.382  41.932  1.00  0.00     0.001 A 
HETATM   25  C   UNL     1      32.992  51.061  43.145  1.00  0.00     0.001 A 
ENDBRANCH  14  16
ENDBRANCH   1  14
TORSDOF 5
ENDMDL
