MODEL 1
REMARK VINA RESULT:      -8.9      0.000      0.000
REMARK  4 active torsions:
REMARK  status: ('A' for Active; 'I' for Inactive)
REMARK    1  A    between atoms: C_3  and  C_4 
REMARK       I    between atoms: C_4  and  N_5 
REMARK    2  A    between atoms: N_5  and  N_6 
REMARK    3  A    between atoms: C_21  and  C_22 
REMARK    4  A    between atoms: C_25  and  O_26 
ROOT
HETATM    1  C   UNL     1      27.060  43.347  51.588  1.00  0.00     0.290 C 
HETATM    2  N   UNL     1      26.515  43.329  52.863  1.00  0.00    -0.241 N 
HETATM    3  O   UNL     1      27.216  44.367  50.923  1.00  0.00    -0.264 OA
HETATM    4  H   UNL     1      26.413  42.457  53.352  1.00  0.00     0.192 HD
ENDROOT
BRANCH   1   5
HETATM    5  C   UNL     1      27.372  42.049  51.033  1.00  0.00     0.127 A 
HETATM    6  C   UNL     1      26.806  41.213  50.075  1.00  0.00     0.003 A 
HETATM    7  C   UNL     1      25.536  41.391  49.323  1.00  0.00     0.053 C 
HETATM    8  C   UNL     1      27.693  40.083  50.004  1.00  0.00     0.095 A 
HETATM    9  N   UNL     1      28.682  40.196  50.901  1.00  0.00    -0.173 NA
HETATM   10  N   UNL     1      28.443  41.353  51.523  1.00  0.00    -0.272 N 
HETATM   11  H   UNL     1      29.058  41.645  52.277  1.00  0.00     0.189 HD
BRANCH   8  12
HETATM   12  C   UNL     1      27.615  38.904  49.140  1.00  0.00    -0.005 A 
HETATM   13  C   UNL     1      26.893  37.778  49.555  1.00  0.00     0.016 A 
HETATM   14  C   UNL     1      26.801  36.652  48.733  1.00  0.00     0.037 A 
HETATM   15  C   UNL     1      27.426  36.629  47.485  1.00  0.00     0.068 A 
HETATM   16  C   UNL     1      28.170  37.736  47.076  1.00  0.00     0.037 A 
HETATM   17  C   UNL     1      28.266  38.866  47.902  1.00  0.00     0.016 A 
BRANCH  15  18
HETATM   18  O   UNL     1      27.248  35.474  46.776  1.00  0.00    -0.356 OA
HETATM   19  C   UNL     1      26.008  34.800  46.950  1.00  0.00     0.210 C 
ENDBRANCH  15  18
ENDBRANCH   8  12
ENDBRANCH   1   5
BRANCH   2  20
HETATM   20  N   UNL     1      26.307  44.492  53.536  1.00  0.00    -0.165 NA
HETATM   21  C   UNL     1      27.236  44.973  54.300  1.00  0.00     0.157 A 
HETATM   22  C   UNL     1      27.094  46.379  54.924  1.00  0.00     0.277 A 
HETATM   23  C   UNL     1      28.537  44.465  54.761  1.00  0.00     0.027 A 
HETATM   24  O   UNL     1      26.147  47.126  54.824  1.00  0.00    -0.266 OA
HETATM   25  N   UNL     1      28.275  46.602  55.593  1.00  0.00    -0.321 N 
HETATM   26  C   UNL     1      29.112  45.496  55.510  1.00  0.00     0.048 A 
HETATM   27  H   UNL     1      28.456  47.453  56.104  1.00  0.00     0.169 HD
HETATM   28  C   UNL     1      30.350  45.371  56.108  1.00  0.00     0.030 A 
HETATM   29  C   UNL     1      31.018  44.155  55.956  1.00  0.00     0.002 A 
HETATM   30  C   UNL     1      30.433  43.098  55.234  1.00  0.00     0.001 A 
HETATM   31  C   UNL     1      29.174  43.243  54.637  1.00  0.00     0.016 A 
ENDBRANCH   2  20
TORSDOF 4
ENDMDL
MODEL 2
REMARK VINA RESULT:      -8.9      7.490     10.891
REMARK  4 active torsions:
REMARK  status: ('A' for Active; 'I' for Inactive)
REMARK    1  A    between atoms: C_3  and  C_4 
REMARK       I    between atoms: C_4  and  N_5 
REMARK    2  A    between atoms: N_5  and  N_6 
REMARK    3  A    between atoms: C_21  and  C_22 
REMARK    4  A    between atoms: C_25  and  O_26 
ROOT
HETATM    1  C   UNL     1      23.115  46.359  49.028  1.00  0.00     0.290 C 
HETATM    2  N   UNL     1      23.920  46.026  50.107  1.00  0.00    -0.241 N 
HETATM    3  O   UNL     1      23.017  45.681  48.009  1.00  0.00    -0.264 OA
HETATM    4  H   UNL     1      23.956  46.628  50.910  1.00  0.00     0.192 HD
ENDROOT
BRANCH   1   5
HETATM    5  C   UNL     1      22.437  47.631  49.135  1.00  0.00     0.127 A 
HETATM    6  C   UNL     1      21.157  48.104  48.862  1.00  0.00     0.003 A 
HETATM    7  C   UNL     1      20.016  47.385  48.237  1.00  0.00     0.053 C 
HETATM    8  C   UNL     1      21.182  49.485  49.263  1.00  0.00     0.095 A 
HETATM    9  N   UNL     1      22.406  49.838  49.681  1.00  0.00    -0.173 NA
HETATM   10  N   UNL     1      23.137  48.728  49.557  1.00  0.00    -0.272 N 
HETATM   11  H   UNL     1      24.125  48.758  49.794  1.00  0.00     0.189 HD
BRANCH   8  12
HETATM   12  C   UNL     1      20.102  50.472  49.236  1.00  0.00    -0.005 A 
HETATM   13  C   UNL     1      18.985  50.312  50.065  1.00  0.00     0.016 A 
HETATM   14  C   UNL     1      17.954  51.256  50.057  1.00  0.00     0.037 A 
HETATM   15  C   UNL     1      18.019  52.373  49.222  1.00  0.00     0.068 A 
HETATM   16  C   UNL     1      19.116  52.526  48.373  1.00  0.00     0.037 A 
HETATM   17  C   UNL     1      20.149  51.578  48.379  1.00  0.00     0.016 A 
BRANCH  15  18
HETATM   18  O   UNL     1      16.954  53.224  49.319  1.00  0.00    -0.356 OA
HETATM   19  C   UNL     1      15.831  52.762  50.059  1.00  0.00     0.210 C 
ENDBRANCH  15  18
ENDBRANCH   8  12
ENDBRANCH   1   5
BRANCH   2  20
HETATM   20  N   UNL     1      24.499  44.796  50.175  1.00  0.00    -0.165 NA
HETATM   21  C   UNL     1      25.259  44.494  51.179  1.00  0.00     0.157 A 
HETATM   22  C   UNL     1      25.774  43.050  51.370  1.00  0.00     0.277 A 
HETATM   23  C   UNL     1      25.805  45.262  52.308  1.00  0.00     0.027 A 
HETATM   24  O   UNL     1      25.586  42.108  50.634  1.00  0.00    -0.266 OA
HETATM   25  N   UNL     1      26.469  43.066  52.557  1.00  0.00    -0.321 N 
HETATM   26  C   UNL     1      26.498  44.343  53.102  1.00  0.00     0.048 A 
HETATM   27  H   UNL     1      26.923  42.246  52.929  1.00  0.00     0.169 HD
HETATM   28  C   UNL     1      27.149  44.714  54.261  1.00  0.00     0.030 A 
HETATM   29  C   UNL     1      27.111  46.064  54.617  1.00  0.00     0.002 A 
HETATM   30  C   UNL     1      26.446  47.002  53.807  1.00  0.00     0.001 A 
HETATM   31  C   UNL     1      25.793  46.607  52.633  1.00  0.00     0.016 A 
ENDBRANCH   2  20
TORSDOF 4
ENDMDL
MODEL 3
REMARK VINA RESULT:      -8.9      5.782      9.321
REMARK  4 active torsions:
REMARK  status: ('A' for Active; 'I' for Inactive)
REMARK    1  A    between atoms: C_3  and  C_4 
REMARK       I    between atoms: C_4  and  N_5 
REMARK    2  A    between atoms: N_5  and  N_6 
REMARK    3  A    between atoms: C_21  and  C_22 
REMARK    4  A    between atoms: C_25  and  O_26 
ROOT
HETATM    1  C   UNL     1      24.869  44.312  49.410  1.00  0.00     0.290 C 
HETATM    2  N   UNL     1      26.238  44.171  49.244  1.00  0.00    -0.241 N 
HETATM    3  O   UNL     1      24.081  43.370  49.442  1.00  0.00    -0.264 OA
HETATM    4  H   UNL     1      26.827  44.986  49.224  1.00  0.00     0.192 HD
ENDROOT
BRANCH   1   5
HETATM    5  C   UNL     1      24.391  45.676  49.463  1.00  0.00     0.127 A 
HETATM    6  C   UNL     1      23.390  46.407  48.831  1.00  0.00     0.003 A 
HETATM    7  C   UNL     1      22.475  45.976  47.741  1.00  0.00     0.053 C 
HETATM    8  C   UNL     1      23.463  47.716  49.421  1.00  0.00     0.095 A 
HETATM    9  N   UNL     1      24.477  47.790  50.293  1.00  0.00    -0.173 NA
HETATM   10  N   UNL     1      25.034  46.576  50.268  1.00  0.00    -0.272 N 
HETATM   11  H   UNL     1      25.853  46.396  50.840  1.00  0.00     0.189 HD
BRANCH   8  12
HETATM   12  C   UNL     1      22.627  48.890  49.164  1.00  0.00    -0.005 A 
HETATM   13  C   UNL     1      21.232  48.778  49.203  1.00  0.00     0.016 A 
HETATM   14  C   UNL     1      20.424  49.895  48.974  1.00  0.00     0.037 A 
HETATM   15  C   UNL     1      20.993  51.140  48.701  1.00  0.00     0.068 A 
HETATM   16  C   UNL     1      22.382  51.254  48.633  1.00  0.00     0.037 A 
HETATM   17  C   UNL     1      23.193  50.133  48.861  1.00  0.00     0.016 A 
BRANCH  15  18
HETATM   18  O   UNL     1      20.094  52.152  48.507  1.00  0.00    -0.356 OA
HETATM   19  C   UNL     1      18.873  52.070  49.231  1.00  0.00     0.210 C 
ENDBRANCH  15  18
ENDBRANCH   8  12
ENDBRANCH   1   5
BRANCH   2  20
HETATM   20  N   UNL     1      26.814  42.941  49.314  1.00  0.00    -0.165 NA
HETATM   21  C   UNL     1      27.276  42.505  50.443  1.00  0.00     0.157 A 
HETATM   22  C   UNL     1      27.762  41.046  50.584  1.00  0.00     0.277 A 
HETATM   23  C   UNL     1      27.461  43.115  51.768  1.00  0.00     0.027 A 
HETATM   24  O   UNL     1      27.815  40.209  49.712  1.00  0.00    -0.266 OA
HETATM   25  N   UNL     1      28.100  40.902  51.910  1.00  0.00    -0.321 N 
HETATM   26  C   UNL     1      27.936  42.097  52.600  1.00  0.00     0.048 A 
HETATM   27  H   UNL     1      28.459  40.038  52.287  1.00  0.00     0.169 HD
HETATM   28  C   UNL     1      28.228  42.309  53.932  1.00  0.00     0.030 A 
HETATM   29  C   UNL     1      28.050  43.600  54.433  1.00  0.00     0.002 A 
HETATM   30  C   UNL     1      27.606  44.641  53.595  1.00  0.00     0.001 A 
HETATM   31  C   UNL     1      27.318  44.406  52.245  1.00  0.00     0.016 A 
ENDBRANCH   2  20
TORSDOF 4
ENDMDL
MODEL 4
REMARK VINA RESULT:      -8.7      4.720      8.986
REMARK  4 active torsions:
REMARK  status: ('A' for Active; 'I' for Inactive)
REMARK    1  A    between atoms: C_3  and  C_4 
REMARK       I    between atoms: C_4  and  N_5 
REMARK    2  A    between atoms: N_5  and  N_6 
REMARK    3  A    between atoms: C_21  and  C_22 
REMARK    4  A    between atoms: C_25  and  O_26 
ROOT
HETATM    1  C   UNL     1      24.914  43.508  50.901  1.00  0.00     0.290 C 
HETATM    2  N   UNL     1      24.973  43.909  49.574  1.00  0.00    -0.241 N 
HETATM    3  O   UNL     1      23.896  43.096  51.449  1.00  0.00    -0.264 OA
HETATM    4  H   UNL     1      25.840  44.239  49.188  1.00  0.00     0.192 HD
ENDROOT
BRANCH   1   5
HETATM    5  C   UNL     1      26.137  43.684  51.652  1.00  0.00     0.127 A 
HETATM    6  C   UNL     1      26.463  43.948  52.979  1.00  0.00     0.003 A 
HETATM    7  C   UNL     1      25.551  44.238  54.117  1.00  0.00     0.053 C 
HETATM    8  C   UNL     1      27.900  43.941  53.013  1.00  0.00     0.095 A 
HETATM    9  N   UNL     1      28.405  43.757  51.785  1.00  0.00    -0.173 NA
HETATM   10  N   UNL     1      27.336  43.647  50.993  1.00  0.00    -0.272 N 
HETATM   11  H   UNL     1      27.471  43.526  49.994  1.00  0.00     0.189 HD
BRANCH   8  12
HETATM   12  C   UNL     1      28.795  44.129  54.155  1.00  0.00    -0.005 A 
HETATM   13  C   UNL     1      28.665  45.261  54.969  1.00  0.00     0.016 A 
HETATM   14  C   UNL     1      29.505  45.443  56.071  1.00  0.00     0.037 A 
HETATM   15  C   UNL     1      30.489  44.502  56.378  1.00  0.00     0.068 A 
HETATM   16  C   UNL     1      30.643  43.385  55.557  1.00  0.00     0.037 A 
HETATM   17  C   UNL     1      29.802  43.202  54.449  1.00  0.00     0.016 A 
BRANCH  15  18
HETATM   18  O   UNL     1      31.235  44.793  57.487  1.00  0.00    -0.356 OA
HETATM   19  C   UNL     1      30.782  45.868  58.299  1.00  0.00     0.210 C 
ENDBRANCH  15  18
ENDBRANCH   8  12
ENDBRANCH   1   5
BRANCH   2  20
HETATM   20  N   UNL     1      23.926  43.667  48.739  1.00  0.00    -0.165 NA
HETATM   21  C   UNL     1      23.207  44.650  48.301  1.00  0.00     0.157 A 
HETATM   22  C   UNL     1      22.136  44.418  47.212  1.00  0.00     0.277 A 
HETATM   23  C   UNL     1      23.157  46.088  48.606  1.00  0.00     0.027 A 
HETATM   24  O   UNL     1      21.827  43.362  46.709  1.00  0.00    -0.266 OA
HETATM   25  N   UNL     1      21.631  45.666  46.927  1.00  0.00    -0.321 N 
HETATM   26  C   UNL     1      22.210  46.636  47.735  1.00  0.00     0.048 A 
HETATM   27  H   UNL     1      20.902  45.812  46.245  1.00  0.00     0.169 HD
HETATM   28  C   UNL     1      21.895  47.980  47.739  1.00  0.00     0.030 A 
HETATM   29  C   UNL     1      22.550  48.791  48.669  1.00  0.00     0.002 A 
HETATM   30  C   UNL     1      23.478  48.243  49.574  1.00  0.00     0.001 A 
HETATM   31  C   UNL     1      23.782  46.876  49.556  1.00  0.00     0.016 A 
ENDBRANCH   2  20
TORSDOF 4
ENDMDL
MODEL 5
REMARK VINA RESULT:      -8.6      6.125      9.229
REMARK  4 active torsions:
REMARK  status: ('A' for Active; 'I' for Inactive)
REMARK    1  A    between atoms: C_3  and  C_4 
REMARK       I    between atoms: C_4  and  N_5 
REMARK    2  A    between atoms: N_5  and  N_6 
REMARK    3  A    between atoms: C_21  and  C_22 
REMARK    4  A    between atoms: C_25  and  O_26 
ROOT
HETATM    1  C   UNL     1      25.947  45.940  49.979  1.00  0.00     0.290 C 
HETATM    2  N   UNL     1      25.696  45.380  51.222  1.00  0.00    -0.241 N 
HETATM    3  O   UNL     1      26.873  45.601  49.247  1.00  0.00    -0.264 OA
HETATM    4  H   UNL     1      24.921  45.706  51.772  1.00  0.00     0.192 HD
ENDROOT
BRANCH   1   5
HETATM    5  C   UNL     1      25.079  47.036  49.611  1.00  0.00     0.127 A 
HETATM    6  C   UNL     1      23.745  47.170  49.238  1.00  0.00     0.003 A 
HETATM    7  C   UNL     1      22.736  46.103  49.004  1.00  0.00     0.053 C 
HETATM    8  C   UNL     1      23.552  48.583  49.061  1.00  0.00     0.095 A 
HETATM    9  N   UNL     1      24.701  49.248  49.245  1.00  0.00    -0.173 NA
HETATM   10  N   UNL     1      25.597  48.300  49.531  1.00  0.00    -0.272 N 
HETATM   11  H   UNL     1      26.565  48.566  49.688  1.00  0.00     0.189 HD
BRANCH   8  12
HETATM   12  C   UNL     1      22.333  49.309  48.702  1.00  0.00    -0.005 A 
HETATM   13  C   UNL     1      22.037  50.531  49.318  1.00  0.00     0.016 A 
HETATM   14  C   UNL     1      20.883  51.239  48.973  1.00  0.00     0.037 A 
HETATM   15  C   UNL     1      20.005  50.740  48.009  1.00  0.00     0.068 A 
HETATM   16  C   UNL     1      20.278  49.511  47.409  1.00  0.00     0.037 A 
HETATM   17  C   UNL     1      21.435  48.798  47.757  1.00  0.00     0.016 A 
BRANCH  15  18
HETATM   18  O   UNL     1      18.922  51.535  47.754  1.00  0.00    -0.356 OA
HETATM   19  C   UNL     1      18.542  52.447  48.777  1.00  0.00     0.210 C 
ENDBRANCH  15  18
ENDBRANCH   8  12
ENDBRANCH   1   5
BRANCH   2  20
HETATM   20  N   UNL     1      26.360  44.260  51.615  1.00  0.00    -0.165 NA
HETATM   21  C   UNL     1      27.012  44.252  52.734  1.00  0.00     0.157 A 
HETATM   22  C   UNL     1      27.615  42.941  53.286  1.00  0.00     0.277 A 
HETATM   23  C   UNL     1      27.349  45.289  53.721  1.00  0.00     0.027 A 
HETATM   24  O   UNL     1      27.596  41.853  52.757  1.00  0.00    -0.266 OA
HETATM   25  N   UNL     1      28.153  43.274  54.507  1.00  0.00    -0.321 N 
HETATM   26  C   UNL     1      28.011  44.632  54.763  1.00  0.00     0.048 A 
HETATM   27  H   UNL     1      28.623  42.601  55.094  1.00  0.00     0.169 HD
HETATM   28  C   UNL     1      28.481  45.300  55.876  1.00  0.00     0.030 A 
HETATM   29  C   UNL     1      28.289  46.682  55.925  1.00  0.00     0.002 A 
HETATM   30  C   UNL     1      27.655  47.359  54.866  1.00  0.00     0.001 A 
HETATM   31  C   UNL     1      27.188  46.663  53.744  1.00  0.00     0.016 A 
ENDBRANCH   2  20
TORSDOF 4
ENDMDL
MODEL 6
REMARK VINA RESULT:      -8.6      1.639      1.885
REMARK  4 active torsions:
REMARK  status: ('A' for Active; 'I' for Inactive)
REMARK    1  A    between atoms: C_3  and  C_4 
REMARK       I    between atoms: C_4  and  N_5 
REMARK    2  A    between atoms: N_5  and  N_6 
REMARK    3  A    between atoms: C_21  and  C_22 
REMARK    4  A    between atoms: C_25  and  O_26 
ROOT
HETATM    1  C   UNL     1      25.879  43.807  52.164  1.00  0.00     0.290 C 
HETATM    2  N   UNL     1      27.004  44.534  52.522  1.00  0.00    -0.241 N 
HETATM    3  O   UNL     1      24.808  43.861  52.761  1.00  0.00    -0.264 OA
HETATM    4  H   UNL     1      27.852  44.441  51.990  1.00  0.00     0.192 HD
ENDROOT
BRANCH   1   5
HETATM    5  C   UNL     1      26.064  42.889  51.062  1.00  0.00     0.127 A 
HETATM    6  C   UNL     1      26.833  41.753  50.829  1.00  0.00     0.003 A 
HETATM    7  C   UNL     1      27.858  41.131  51.707  1.00  0.00     0.053 C 
HETATM    8  C   UNL     1      26.466  41.327  49.506  1.00  0.00     0.095 A 
HETATM    9  N   UNL     1      25.594  42.181  48.953  1.00  0.00    -0.173 NA
HETATM   10  N   UNL     1      25.404  43.118  49.885  1.00  0.00    -0.272 N 
HETATM   11  H   UNL     1      24.790  43.902  49.680  1.00  0.00     0.189 HD
BRANCH   8  12
HETATM   12  C   UNL     1      26.934  40.163  48.750  1.00  0.00    -0.005 A 
HETATM   13  C   UNL     1      26.654  38.871  49.210  1.00  0.00     0.016 A 
HETATM   14  C   UNL     1      27.083  37.753  48.489  1.00  0.00     0.037 A 
HETATM   15  C   UNL     1      27.799  37.905  47.301  1.00  0.00     0.068 A 
HETATM   16  C   UNL     1      28.106  39.189  46.850  1.00  0.00     0.037 A 
HETATM   17  C   UNL     1      27.678  40.311  47.574  1.00  0.00     0.016 A 
BRANCH  15  18
HETATM   18  O   UNL     1      28.149  36.734  46.688  1.00  0.00    -0.356 OA
HETATM   19  C   UNL     1      29.177  36.806  45.708  1.00  0.00     0.210 C 
ENDBRANCH  15  18
ENDBRANCH   8  12
ENDBRANCH   1   5
BRANCH   2  20
HETATM   20  N   UNL     1      26.914  45.521  53.454  1.00  0.00    -0.165 NA
HETATM   21  C   UNL     1      27.786  45.593  54.408  1.00  0.00     0.157 A 
HETATM   22  C   UNL     1      27.811  46.807  55.363  1.00  0.00     0.277 A 
HETATM   23  C   UNL     1      28.884  44.720  54.849  1.00  0.00     0.027 A 
HETATM   24  O   UNL     1      27.045  47.744  55.368  1.00  0.00    -0.266 OA
HETATM   25  N   UNL     1      28.896  46.602  56.184  1.00  0.00    -0.321 N 
HETATM   26  C   UNL     1      29.517  45.393  55.898  1.00  0.00     0.048 A 
HETATM   27  H   UNL     1      29.149  47.247  56.917  1.00  0.00     0.169 HD
HETATM   28  C   UNL     1      30.603  44.863  56.565  1.00  0.00     0.030 A 
HETATM   29  C   UNL     1      31.052  43.602  56.166  1.00  0.00     0.002 A 
HETATM   30  C   UNL     1      30.400  42.901  55.135  1.00  0.00     0.001 A 
HETATM   31  C   UNL     1      29.297  43.454  54.472  1.00  0.00     0.016 A 
ENDBRANCH   2  20
TORSDOF 4
ENDMDL
MODEL 7
REMARK VINA RESULT:      -8.4      2.329      9.481
REMARK  4 active torsions:
REMARK  status: ('A' for Active; 'I' for Inactive)
REMARK    1  A    between atoms: C_3  and  C_4 
REMARK       I    between atoms: C_4  and  N_5 
REMARK    2  A    between atoms: N_5  and  N_6 
REMARK    3  A    between atoms: C_21  and  C_22 
REMARK    4  A    between atoms: C_25  and  O_26 
ROOT
HETATM    1  C   UNL     1      26.855  40.479  50.645  1.00  0.00     0.290 C 
HETATM    2  N   UNL     1      27.758  39.485  50.300  1.00  0.00    -0.241 N 
HETATM    3  O   UNL     1      25.688  40.508  50.266  1.00  0.00    -0.264 OA
HETATM    4  H   UNL     1      28.702  39.523  50.643  1.00  0.00     0.192 HD
ENDROOT
BRANCH   1   5
HETATM    5  C   UNL     1      27.401  41.559  51.436  1.00  0.00     0.127 A 
HETATM    6  C   UNL     1      27.902  41.694  52.728  1.00  0.00     0.003 A 
HETATM    7  C   UNL     1      27.953  40.680  53.813  1.00  0.00     0.053 C 
HETATM    8  C   UNL     1      28.317  43.067  52.819  1.00  0.00     0.095 A 
HETATM    9  N   UNL     1      28.024  43.730  51.691  1.00  0.00    -0.173 NA
HETATM   10  N   UNL     1      27.446  42.819  50.905  1.00  0.00    -0.272 N 
HETATM   11  H   UNL     1      27.109  43.099  49.989  1.00  0.00     0.189 HD
BRANCH   8  12
HETATM   12  C   UNL     1      28.950  43.766  53.939  1.00  0.00    -0.005 A 
HETATM   13  C   UNL     1      28.379  44.940  54.444  1.00  0.00     0.016 A 
HETATM   14  C   UNL     1      28.968  45.608  55.522  1.00  0.00     0.037 A 
HETATM   15  C   UNL     1      30.134  45.117  56.112  1.00  0.00     0.068 A 
HETATM   16  C   UNL     1      30.723  43.962  55.597  1.00  0.00     0.037 A 
HETATM   17  C   UNL     1      30.135  43.294  54.514  1.00  0.00     0.016 A 
BRANCH  15  18
HETATM   18  O   UNL     1      30.599  45.856  57.164  1.00  0.00    -0.356 OA
HETATM   19  C   UNL     1      31.071  45.134  58.295  1.00  0.00     0.210 C 
ENDBRANCH  15  18
ENDBRANCH   8  12
ENDBRANCH   1   5
BRANCH   2  20
HETATM   20  N   UNL     1      27.328  38.356  49.673  1.00  0.00    -0.165 NA
HETATM   21  C   UNL     1      27.413  38.259  48.384  1.00  0.00     0.157 A 
HETATM   22  C   UNL     1      27.105  36.923  47.674  1.00  0.00     0.277 A 
HETATM   23  C   UNL     1      27.780  39.201  47.316  1.00  0.00     0.027 A 
HETATM   24  O   UNL     1      26.726  35.895  48.189  1.00  0.00    -0.266 OA
HETATM   25  N   UNL     1      27.372  37.148  46.343  1.00  0.00    -0.321 N 
HETATM   26  C   UNL     1      27.755  38.466  46.127  1.00  0.00     0.048 A 
HETATM   27  H   UNL     1      27.251  36.437  45.638  1.00  0.00     0.169 HD
HETATM   28  C   UNL     1      28.049  39.033  44.903  1.00  0.00     0.030 A 
HETATM   29  C   UNL     1      28.360  40.394  44.883  1.00  0.00     0.002 A 
HETATM   30  C   UNL     1      28.353  41.151  46.069  1.00  0.00     0.001 A 
HETATM   31  C   UNL     1      28.050  40.558  47.301  1.00  0.00     0.016 A 
ENDBRANCH   2  20
TORSDOF 4
ENDMDL
MODEL 8
REMARK VINA RESULT:      -8.3      1.598      1.842
REMARK  4 active torsions:
REMARK  status: ('A' for Active; 'I' for Inactive)
REMARK    1  A    between atoms: C_3  and  C_4 
REMARK       I    between atoms: C_4  and  N_5 
REMARK    2  A    between atoms: N_5  and  N_6 
REMARK    3  A    between atoms: C_21  and  C_22 
REMARK    4  A    between atoms: C_25  and  O_26 
ROOT
HETATM    1  C   UNL     1      27.575  42.668  53.435  1.00  0.00     0.290 C 
HETATM    2  N   UNL     1      28.188  43.896  53.240  1.00  0.00    -0.241 N 
HETATM    3  O   UNL     1      26.889  42.390  54.415  1.00  0.00    -0.264 OA
HETATM    4  H   UNL     1      28.740  44.056  52.416  1.00  0.00     0.192 HD
ENDROOT
BRANCH   1   5
HETATM    5  C   UNL     1      27.862  41.670  52.429  1.00  0.00     0.127 A 
HETATM    6  C   UNL     1      27.330  41.320  51.192  1.00  0.00     0.003 A 
HETATM    7  C   UNL     1      26.132  41.874  50.507  1.00  0.00     0.053 C 
HETATM    8  C   UNL     1      28.160  40.243  50.726  1.00  0.00     0.095 A 
HETATM    9  N   UNL     1      29.082  39.920  51.643  1.00  0.00    -0.173 NA
HETATM   10  N   UNL     1      28.855  40.757  52.658  1.00  0.00    -0.272 N 
HETATM   11  H   UNL     1      29.425  40.683  53.496  1.00  0.00     0.189 HD
BRANCH   8  12
HETATM   12  C   UNL     1      28.089  39.504  49.464  1.00  0.00    -0.005 A 
HETATM   13  C   UNL     1      27.794  38.136  49.469  1.00  0.00     0.016 A 
HETATM   14  C   UNL     1      27.710  37.423  48.269  1.00  0.00     0.037 A 
HETATM   15  C   UNL     1      27.919  38.063  47.047  1.00  0.00     0.068 A 
HETATM   16  C   UNL     1      28.240  39.421  47.034  1.00  0.00     0.037 A 
HETATM   17  C   UNL     1      28.328  40.135  48.237  1.00  0.00     0.016 A 
BRANCH  15  18
HETATM   18  O   UNL     1      27.796  37.257  45.949  1.00  0.00    -0.356 OA
HETATM   19  C   UNL     1      27.821  37.895  44.679  1.00  0.00     0.210 C 
ENDBRANCH  15  18
ENDBRANCH   8  12
ENDBRANCH   1   5
BRANCH   2  20
HETATM   20  N   UNL     1      27.885  44.948  54.048  1.00  0.00    -0.165 NA
HETATM   21  C   UNL     1      28.612  45.194  55.091  1.00  0.00     0.157 A 
HETATM   22  C   UNL     1      28.399  46.485  55.912  1.00  0.00     0.277 A 
HETATM   23  C   UNL     1      29.715  44.481  55.753  1.00  0.00     0.027 A 
HETATM   24  O   UNL     1      27.558  47.335  55.726  1.00  0.00    -0.266 OA
HETATM   25  N   UNL     1      29.377  46.467  56.879  1.00  0.00    -0.321 N 
HETATM   26  C   UNL     1      30.137  45.307  56.798  1.00  0.00     0.048 A 
HETATM   27  H   UNL     1      29.471  47.198  57.568  1.00  0.00     0.169 HD
HETATM   28  C   UNL     1      31.168  44.954  57.647  1.00  0.00     0.030 A 
HETATM   29  C   UNL     1      31.777  43.715  57.438  1.00  0.00     0.002 A 
HETATM   30  C   UNL     1      31.336  42.861  56.411  1.00  0.00     0.001 A 
HETATM   31  C   UNL     1      30.287  43.236  55.562  1.00  0.00     0.016 A 
ENDBRANCH   2  20
TORSDOF 4
ENDMDL
MODEL 9
REMARK VINA RESULT:      -8.3      7.388     10.576
REMARK  4 active torsions:
REMARK  status: ('A' for Active; 'I' for Inactive)
REMARK    1  A    between atoms: C_3  and  C_4 
REMARK       I    between atoms: C_4  and  N_5 
REMARK    2  A    between atoms: N_5  and  N_6 
REMARK    3  A    between atoms: C_21  and  C_22 
REMARK    4  A    between atoms: C_25  and  O_26 
ROOT
HETATM    1  C   UNL     1      22.202  46.668  48.261  1.00  0.00     0.290 C 
HETATM    2  N   UNL     1      20.904  46.723  48.748  1.00  0.00    -0.241 N 
HETATM    3  O   UNL     1      22.484  46.556  47.071  1.00  0.00    -0.264 OA
HETATM    4  H   UNL     1      20.743  46.812  49.736  1.00  0.00     0.192 HD
ENDROOT
BRANCH   1   5
HETATM    5  C   UNL     1      23.238  46.668  49.269  1.00  0.00     0.127 A 
HETATM    6  C   UNL     1      23.846  45.709  50.074  1.00  0.00     0.003 A 
HETATM    7  C   UNL     1      23.516  44.266  50.206  1.00  0.00     0.053 C 
HETATM    8  C   UNL     1      24.844  46.431  50.815  1.00  0.00     0.095 A 
HETATM    9  N   UNL     1      24.796  47.740  50.530  1.00  0.00    -0.173 NA
HETATM   10  N   UNL     1      23.808  47.856  49.640  1.00  0.00    -0.272 N 
HETATM   11  H   UNL     1      23.563  48.777  49.290  1.00  0.00     0.189 HD
BRANCH   8  12
HETATM   12  C   UNL     1      25.811  45.926  51.791  1.00  0.00    -0.005 A 
HETATM   13  C   UNL     1      25.891  46.507  53.063  1.00  0.00     0.016 A 
HETATM   14  C   UNL     1      26.801  46.024  54.007  1.00  0.00     0.037 A 
HETATM   15  C   UNL     1      27.646  44.956  53.699  1.00  0.00     0.068 A 
HETATM   16  C   UNL     1      27.591  44.390  52.425  1.00  0.00     0.037 A 
HETATM   17  C   UNL     1      26.681  44.876  51.476  1.00  0.00     0.016 A 
BRANCH  15  18
HETATM   18  O   UNL     1      28.479  44.573  54.714  1.00  0.00    -0.356 OA
HETATM   19  C   UNL     1      28.942  45.598  55.584  1.00  0.00     0.210 C 
ENDBRANCH  15  18
ENDBRANCH   8  12
ENDBRANCH   1   5
BRANCH   2  20
HETATM   20  N   UNL     1      19.857  46.863  47.891  1.00  0.00    -0.165 NA
HETATM   21  C   UNL     1      19.379  48.040  47.640  1.00  0.00     0.157 A 
HETATM   22  C   UNL     1      18.317  48.239  46.536  1.00  0.00     0.277 A 
HETATM   23  C   UNL     1      19.629  49.378  48.196  1.00  0.00     0.027 A 
HETATM   24  O   UNL     1      17.805  47.380  45.856  1.00  0.00    -0.266 OA
HETATM   25  N   UNL     1      18.101  49.597  46.481  1.00  0.00    -0.321 N 
HETATM   26  C   UNL     1      18.849  50.262  47.443  1.00  0.00     0.048 A 
HETATM   27  H   UNL     1      17.441  50.015  45.841  1.00  0.00     0.169 HD
HETATM   28  C   UNL     1      18.831  51.620  47.688  1.00  0.00     0.030 A 
HETATM   29  C   UNL     1      19.615  52.095  48.741  1.00  0.00     0.002 A 
HETATM   30  C   UNL     1      20.375  51.210  49.527  1.00  0.00     0.001 A 
HETATM   31  C   UNL     1      20.379  49.834  49.265  1.00  0.00     0.016 A 
ENDBRANCH   2  20
TORSDOF 4
ENDMDL
MODEL 10
REMARK VINA RESULT:      -8.3      7.259     10.016
REMARK  4 active torsions:
REMARK  status: ('A' for Active; 'I' for Inactive)
REMARK    1  A    between atoms: C_3  and  C_4 
REMARK       I    between atoms: C_4  and  N_5 
REMARK    2  A    between atoms: N_5  and  N_6 
REMARK    3  A    between atoms: C_21  and  C_22 
REMARK    4  A    between atoms: C_25  and  O_26 
ROOT
HETATM    1  C   UNL     1      23.121  48.414  48.947  1.00  0.00     0.290 C 
HETATM    2  N   UNL     1      21.949  48.822  49.566  1.00  0.00    -0.241 N 
HETATM    3  O   UNL     1      23.553  48.900  47.905  1.00  0.00    -0.264 OA
HETATM    4  H   UNL     1      21.651  48.378  50.417  1.00  0.00     0.192 HD
ENDROOT
BRANCH   1   5
HETATM    5  C   UNL     1      23.788  47.292  49.570  1.00  0.00     0.127 A 
HETATM    6  C   UNL     1      25.040  47.066  50.135  1.00  0.00     0.003 A 
HETATM    7  C   UNL     1      26.209  47.982  50.197  1.00  0.00     0.053 C 
HETATM    8  C   UNL     1      24.990  45.709  50.606  1.00  0.00     0.095 A 
HETATM    9  N   UNL     1      23.821  45.136  50.287  1.00  0.00    -0.173 NA
HETATM   10  N   UNL     1      23.145  46.087  49.639  1.00  0.00    -0.272 N 
HETATM   11  H   UNL     1      22.223  45.874  49.270  1.00  0.00     0.189 HD
BRANCH   8  12
HETATM   12  C   UNL     1      26.015  44.942  51.317  1.00  0.00    -0.005 A 
HETATM   13  C   UNL     1      26.200  45.127  52.692  1.00  0.00     0.016 A 
HETATM   14  C   UNL     1      27.166  44.390  53.383  1.00  0.00     0.037 A 
HETATM   15  C   UNL     1      27.963  43.459  52.714  1.00  0.00     0.068 A 
HETATM   16  C   UNL     1      27.803  43.288  51.339  1.00  0.00     0.037 A 
HETATM   17  C   UNL     1      26.835  44.029  50.645  1.00  0.00     0.016 A 
BRANCH  15  18
HETATM   18  O   UNL     1      28.859  42.797  53.507  1.00  0.00    -0.356 OA
HETATM   19  C   UNL     1      30.220  42.820  53.093  1.00  0.00     0.210 C 
ENDBRANCH  15  18
ENDBRANCH   8  12
ENDBRANCH   1   5
BRANCH   2  20
HETATM   20  N   UNL     1      21.310  49.947  49.147  1.00  0.00    -0.165 NA
HETATM   21  C   UNL     1      20.049  49.905  48.855  1.00  0.00     0.157 A 
HETATM   22  C   UNL     1      19.266  51.203  48.558  1.00  0.00     0.277 A 
HETATM   23  C   UNL     1      19.070  48.815  48.732  1.00  0.00     0.027 A 
HETATM   24  O   UNL     1      19.711  52.328  48.516  1.00  0.00    -0.266 OA
HETATM   25  N   UNL     1      17.961  50.807  48.374  1.00  0.00    -0.321 N 
HETATM   26  C   UNL     1      17.841  49.426  48.465  1.00  0.00     0.048 A 
HETATM   27  H   UNL     1      17.222  51.459  48.158  1.00  0.00     0.169 HD
HETATM   28  C   UNL     1      16.680  48.701  48.285  1.00  0.00     0.030 A 
HETATM   29  C   UNL     1      16.773  47.309  48.361  1.00  0.00     0.002 A 
HETATM   30  C   UNL     1      18.011  46.683  48.593  1.00  0.00     0.001 A 
HETATM   31  C   UNL     1      19.178  47.436  48.771  1.00  0.00     0.016 A 
ENDBRANCH   2  20
TORSDOF 4
ENDMDL
