MODEL 1
REMARK VINA RESULT:      -7.4      0.000      0.000
REMARK  2 active torsions:
REMARK  status: ('A' for Active; 'I' for Inactive)
REMARK    1  A    between atoms: S_2  and  N_3 
REMARK    2  A    between atoms: C_10  and  N_11 
ROOT
HETATM    1  N   UNL     1      24.892  43.305  49.754  1.00  0.00    -0.311 N 
HETATM    2  C   UNL     1      25.879  44.296  49.268  1.00  0.00     0.138 C 
HETATM    3  C   UNL     1      26.163  45.362  50.326  1.00  0.00     0.059 C 
HETATM    4  C   UNL     1      26.523  44.771  51.708  1.00  0.00     0.073 C 
HETATM    5  O   UNL     1      27.841  44.208  51.571  1.00  0.00    -0.339 OA
HETATM    6  C   UNL     1      28.543  43.962  52.719  1.00  0.00     0.078 A 
HETATM    7  C   UNL     1      28.214  44.505  53.967  1.00  0.00     0.005 A 
HETATM    8  C   UNL     1      27.040  45.432  54.090  1.00  0.00     0.222 C 
HETATM    9  C   UNL     1      26.569  45.924  52.724  1.00  0.00     0.076 C 
HETATM   10  C   UNL     1      29.644  43.119  52.576  1.00  0.00     0.037 A 
HETATM   11  C   UNL     1      30.408  42.771  53.686  1.00  0.00     0.003 A 
HETATM   12  C   UNL     1      30.066  43.262  54.943  1.00  0.00     0.001 A 
HETATM   13  C   UNL     1      28.972  44.119  55.087  1.00  0.00     0.012 A 
HETATM   14  C   UNL     1      25.515  43.669  52.104  1.00  0.00     0.059 C 
HETATM   15  C   UNL     1      25.346  42.638  50.992  1.00  0.00     0.138 C 
ENDROOT
BRANCH   8  16
HETATM   16  N   UNL     1      27.348  46.641  54.910  1.00  0.00    -0.071 N 
HETATM   17  H   UNL     1      28.268  47.028  54.677  1.00  0.00     0.275 HD
HETATM   18  H   UNL     1      26.652  47.379  54.738  1.00  0.00     0.275 HD
HETATM   19  H   UNL     1      27.349  46.430  55.915  1.00  0.00     0.275 HD
ENDBRANCH   8  16
BRANCH   1  20
HETATM   20  S   UNL     1      23.238  43.681  49.655  1.00  0.00     0.224 S 
HETATM   21  C   UNL     1      22.764  42.897  48.127  1.00  0.00     0.186 C 
HETATM   22  O   UNL     1      23.129  45.118  49.514  1.00  0.00    -0.206 OA
HETATM   23  O   UNL     1      22.566  42.996  50.736  1.00  0.00    -0.206 OA
ENDBRANCH   1  20
TORSDOF 2
ENDMDL
MODEL 2
REMARK VINA RESULT:      -7.3     12.312     13.315
REMARK  2 active torsions:
REMARK  status: ('A' for Active; 'I' for Inactive)
REMARK    1  A    between atoms: S_2  and  N_3 
REMARK    2  A    between atoms: C_10  and  N_11 
ROOT
HETATM    1  N   UNL     1      28.173  50.682  40.480  1.00  0.00    -0.311 N 
HETATM    2  C   UNL     1      28.238  49.612  41.501  1.00  0.00     0.138 C 
HETATM    3  C   UNL     1      29.553  48.838  41.413  1.00  0.00     0.059 C 
HETATM    4  C   UNL     1      30.800  49.750  41.405  1.00  0.00     0.073 C 
HETATM    5  O   UNL     1      30.919  50.277  42.740  1.00  0.00    -0.339 OA
HETATM    6  C   UNL     1      32.128  50.801  43.105  1.00  0.00     0.078 A 
HETATM    7  C   UNL     1      33.321  50.574  42.408  1.00  0.00     0.005 A 
HETATM    8  C   UNL     1      33.316  49.692  41.192  1.00  0.00     0.222 C 
HETATM    9  C   UNL     1      32.029  48.880  41.094  1.00  0.00     0.076 C 
HETATM   10  C   UNL     1      32.113  51.595  44.252  1.00  0.00     0.037 A 
HETATM   11  C   UNL     1      33.281  52.209  44.692  1.00  0.00     0.003 A 
HETATM   12  C   UNL     1      34.465  52.035  43.983  1.00  0.00     0.001 A 
HETATM   13  C   UNL     1      34.487  51.227  42.843  1.00  0.00     0.012 A 
HETATM   14  C   UNL     1      30.619  50.905  40.395  1.00  0.00     0.059 C 
HETATM   15  C   UNL     1      29.297  51.634  40.608  1.00  0.00     0.138 C 
ENDROOT
BRANCH   8  16
HETATM   16  N   UNL     1      34.451  48.722  41.184  1.00  0.00    -0.071 N 
HETATM   17  H   UNL     1      34.730  48.463  42.136  1.00  0.00     0.275 HD
HETATM   18  H   UNL     1      34.181  47.858  40.696  1.00  0.00     0.275 HD
HETATM   19  H   UNL     1      35.280  49.108  40.716  1.00  0.00     0.275 HD
ENDBRANCH   8  16
BRANCH   1  20
HETATM   20  S   UNL     1      27.695  50.276  38.900  1.00  0.00     0.224 S 
HETATM   21  C   UNL     1      26.005  49.766  39.137  1.00  0.00     0.186 C 
HETATM   22  O   UNL     1      28.489  49.139  38.487  1.00  0.00    -0.206 OA
HETATM   23  O   UNL     1      27.690  51.492  38.117  1.00  0.00    -0.206 OA
ENDBRANCH   1  20
TORSDOF 2
ENDMDL
MODEL 3
REMARK VINA RESULT:      -6.9     13.165     15.395
REMARK  2 active torsions:
REMARK  status: ('A' for Active; 'I' for Inactive)
REMARK    1  A    between atoms: S_2  and  N_3 
REMARK    2  A    between atoms: C_10  and  N_11 
ROOT
HETATM    1  N   UNL     1      33.805  50.700  42.318  1.00  0.00    -0.311 N 
HETATM    2  C   UNL     1      32.738  50.885  43.328  1.00  0.00     0.138 C 
HETATM    3  C   UNL     1      31.855  52.086  42.990  1.00  0.00     0.059 C 
HETATM    4  C   UNL     1      31.324  52.065  41.539  1.00  0.00     0.073 C 
HETATM    5  O   UNL     1      30.337  51.018  41.489  1.00  0.00    -0.339 OA
HETATM    6  C   UNL     1      29.454  51.034  40.446  1.00  0.00     0.078 A 
HETATM    7  C   UNL     1      29.236  52.146  39.623  1.00  0.00     0.005 A 
HETATM    8  C   UNL     1      29.984  53.422  39.884  1.00  0.00     0.222 C 
HETATM    9  C   UNL     1      30.643  53.415  41.260  1.00  0.00     0.076 C 
HETATM   10  C   UNL     1      28.752  49.846  40.239  1.00  0.00     0.037 A 
HETATM   11  C   UNL     1      27.855  49.739  39.181  1.00  0.00     0.003 A 
HETATM   12  C   UNL     1      27.663  50.819  38.324  1.00  0.00     0.001 A 
HETATM   13  C   UNL     1      28.353  52.015  38.537  1.00  0.00     0.012 A 
HETATM   14  C   UNL     1      32.470  51.761  40.548  1.00  0.00     0.059 C 
HETATM   15  C   UNL     1      33.251  50.518  40.960  1.00  0.00     0.138 C 
ENDROOT
BRANCH   8  16
HETATM   16  N   UNL     1      29.102  54.625  39.824  1.00  0.00    -0.071 N 
HETATM   17  H   UNL     1      28.872  54.968  40.763  1.00  0.00     0.275 HD
HETATM   18  H   UNL     1      29.572  55.391  39.324  1.00  0.00     0.275 HD
HETATM   19  H   UNL     1      28.216  54.426  39.344  1.00  0.00     0.275 HD
ENDBRANCH   8  16
BRANCH   1  20
HETATM   20  S   UNL     1      35.221  51.631  42.444  1.00  0.00     0.224 S 
HETATM   21  C   UNL     1      36.493  50.384  42.449  1.00  0.00     0.186 C 
HETATM   22  O   UNL     1      35.190  52.294  43.731  1.00  0.00    -0.206 OA
HETATM   23  O   UNL     1      35.352  52.399  41.226  1.00  0.00    -0.206 OA
ENDBRANCH   1  20
TORSDOF 2
ENDMDL
MODEL 4
REMARK VINA RESULT:      -6.9     12.858     14.875
REMARK  2 active torsions:
REMARK  status: ('A' for Active; 'I' for Inactive)
REMARK    1  A    between atoms: S_2  and  N_3 
REMARK    2  A    between atoms: C_10  and  N_11 
ROOT
HETATM    1  N   UNL     1      33.199  50.188  40.983  1.00  0.00    -0.311 N 
HETATM    2  C   UNL     1      32.472  49.309  41.928  1.00  0.00     0.138 C 
HETATM    3  C   UNL     1      31.141  49.929  42.351  1.00  0.00     0.059 C 
HETATM    4  C   UNL     1      30.274  50.390  41.158  1.00  0.00     0.073 C 
HETATM    5  O   UNL     1      29.791  49.190  40.526  1.00  0.00    -0.339 OA
HETATM    6  C   UNL     1      28.715  49.307  39.692  1.00  0.00     0.078 A 
HETATM    7  C   UNL     1      27.867  50.421  39.660  1.00  0.00     0.005 A 
HETATM    8  C   UNL     1      28.111  51.568  40.598  1.00  0.00     0.222 C 
HETATM    9  C   UNL     1      29.080  51.184  41.713  1.00  0.00     0.076 C 
HETATM   10  C   UNL     1      28.493  48.219  38.848  1.00  0.00     0.037 A 
HETATM   11  C   UNL     1      27.447  48.247  37.930  1.00  0.00     0.003 A 
HETATM   12  C   UNL     1      26.625  49.368  37.852  1.00  0.00     0.001 A 
HETATM   13  C   UNL     1      26.835  50.453  38.706  1.00  0.00     0.012 A 
HETATM   14  C   UNL     1      31.121  51.211  40.160  1.00  0.00     0.059 C 
HETATM   15  C   UNL     1      32.400  50.475  39.773  1.00  0.00     0.138 C 
ENDROOT
BRANCH   8  16
HETATM   16  N   UNL     1      26.858  52.051  41.251  1.00  0.00    -0.071 N 
HETATM   17  H   UNL     1      26.228  52.493  40.573  1.00  0.00     0.275 HD
HETATM   18  H   UNL     1      26.349  51.265  41.677  1.00  0.00     0.275 HD
HETATM   19  H   UNL     1      27.052  52.743  41.985  1.00  0.00     0.275 HD
ENDBRANCH   8  16
BRANCH   1  20
HETATM   20  S   UNL     1      34.125  51.470  41.606  1.00  0.00     0.224 S 
HETATM   21  C   UNL     1      35.617  50.642  42.118  1.00  0.00     0.186 C 
HETATM   22  O   UNL     1      33.431  51.978  42.770  1.00  0.00    -0.206 OA
HETATM   23  O   UNL     1      34.455  52.347  40.506  1.00  0.00    -0.206 OA
ENDBRANCH   1  20
TORSDOF 2
ENDMDL
MODEL 5
REMARK VINA RESULT:      -6.8     11.882     13.467
REMARK  2 active torsions:
REMARK  status: ('A' for Active; 'I' for Inactive)
REMARK    1  A    between atoms: S_2  and  N_3 
REMARK    2  A    between atoms: C_10  and  N_11 
ROOT
HETATM    1  N   UNL     1      27.993  47.107  38.905  1.00  0.00    -0.311 N 
HETATM    2  C   UNL     1      27.189  47.510  40.081  1.00  0.00     0.138 C 
HETATM    3  C   UNL     1      28.080  47.833  41.280  1.00  0.00     0.059 C 
HETATM    4  C   UNL     1      29.215  48.829  40.948  1.00  0.00     0.073 C 
HETATM    5  O   UNL     1      28.582  50.109  40.764  1.00  0.00    -0.339 OA
HETATM    6  C   UNL     1      29.377  51.219  40.835  1.00  0.00     0.078 A 
HETATM    7  C   UNL     1      30.666  51.224  41.381  1.00  0.00     0.005 A 
HETATM    8  C   UNL     1      31.238  49.959  41.951  1.00  0.00     0.222 C 
HETATM    9  C   UNL     1      30.159  48.900  42.159  1.00  0.00     0.076 C 
HETATM   10  C   UNL     1      28.815  52.389  40.323  1.00  0.00     0.037 A 
HETATM   11  C   UNL     1      29.550  53.570  40.310  1.00  0.00     0.003 A 
HETATM   12  C   UNL     1      30.852  53.582  40.803  1.00  0.00     0.001 A 
HETATM   13  C   UNL     1      31.412  52.415  41.331  1.00  0.00     0.012 A 
HETATM   14  C   UNL     1      29.942  48.406  39.651  1.00  0.00     0.059 C 
HETATM   15  C   UNL     1      28.958  48.156  38.513  1.00  0.00     0.138 C 
ENDROOT
BRANCH   8  16
HETATM   16  N   UNL     1      31.903  50.174  43.271  1.00  0.00    -0.071 N 
HETATM   17  H   UNL     1      31.860  51.158  43.556  1.00  0.00     0.275 HD
HETATM   18  H   UNL     1      31.438  49.620  44.002  1.00  0.00     0.275 HD
HETATM   19  H   UNL     1      32.894  49.904  43.247  1.00  0.00     0.275 HD
ENDBRANCH   8  16
BRANCH   1  20
HETATM   20  S   UNL     1      28.531  45.498  38.794  1.00  0.00     0.224 S 
HETATM   21  C   UNL     1      27.104  44.671  38.120  1.00  0.00     0.186 C 
HETATM   22  O   UNL     1      28.771  45.029  40.141  1.00  0.00    -0.206 OA
HETATM   23  O   UNL     1      29.582  45.455  37.802  1.00  0.00    -0.206 OA
ENDBRANCH   1  20
TORSDOF 2
ENDMDL
MODEL 6
REMARK VINA RESULT:      -6.7     12.912     15.192
REMARK  2 active torsions:
REMARK  status: ('A' for Active; 'I' for Inactive)
REMARK    1  A    between atoms: S_2  and  N_3 
REMARK    2  A    between atoms: C_10  and  N_11 
ROOT
HETATM    1  N   UNL     1      31.809  51.772  41.468  1.00  0.00    -0.311 N 
HETATM    2  C   UNL     1      32.072  52.002  40.029  1.00  0.00     0.138 C 
HETATM    3  C   UNL     1      31.999  50.698  39.235  1.00  0.00     0.059 C 
HETATM    4  C   UNL     1      30.705  49.894  39.498  1.00  0.00     0.073 C 
HETATM    5  O   UNL     1      29.643  50.626  38.859  1.00  0.00    -0.339 OA
HETATM    6  C   UNL     1      28.476  49.957  38.615  1.00  0.00     0.078 A 
HETATM    7  C   UNL     1      28.354  48.562  38.643  1.00  0.00     0.005 A 
HETATM    8  C   UNL     1      29.559  47.715  38.935  1.00  0.00     0.222 C 
HETATM    9  C   UNL     1      30.850  48.521  38.823  1.00  0.00     0.076 C 
HETATM   10  C   UNL     1      27.376  50.762  38.320  1.00  0.00     0.037 A 
HETATM   11  C   UNL     1      26.129  50.188  38.091  1.00  0.00     0.003 A 
HETATM   12  C   UNL     1      25.980  48.806  38.164  1.00  0.00     0.001 A 
HETATM   13  C   UNL     1      27.083  47.995  38.444  1.00  0.00     0.012 A 
HETATM   14  C   UNL     1      30.435  49.785  41.015  1.00  0.00     0.059 C 
HETATM   15  C   UNL     1      30.487  51.150  41.693  1.00  0.00     0.138 C 
ENDROOT
BRANCH   8  16
HETATM   16  N   UNL     1      29.682  46.554  38.005  1.00  0.00    -0.071 N 
HETATM   17  H   UNL     1      30.654  46.234  37.932  1.00  0.00     0.275 HD
HETATM   18  H   UNL     1      29.122  45.761  38.345  1.00  0.00     0.275 HD
HETATM   19  H   UNL     1      29.364  46.788  37.057  1.00  0.00     0.275 HD
ENDBRANCH   8  16
BRANCH   1  20
HETATM   20  S   UNL     1      33.083  51.234  42.456  1.00  0.00     0.224 S 
HETATM   21  C   UNL     1      32.419  51.477  44.092  1.00  0.00     0.186 C 
HETATM   22  O   UNL     1      34.199  52.131  42.250  1.00  0.00    -0.206 OA
HETATM   23  O   UNL     1      33.234  49.812  42.241  1.00  0.00    -0.206 OA
ENDBRANCH   1  20
TORSDOF 2
ENDMDL
MODEL 7
REMARK VINA RESULT:      -6.6     12.389     13.783
REMARK  2 active torsions:
REMARK  status: ('A' for Active; 'I' for Inactive)
REMARK    1  A    between atoms: S_2  and  N_3 
REMARK    2  A    between atoms: C_10  and  N_11 
ROOT
HETATM    1  N   UNL     1      26.875  48.951  39.732  1.00  0.00    -0.311 N 
HETATM    2  C   UNL     1      27.773  47.774  39.739  1.00  0.00     0.138 C 
HETATM    3  C   UNL     1      29.102  48.084  39.051  1.00  0.00     0.059 C 
HETATM    4  C   UNL     1      29.779  49.369  39.579  1.00  0.00     0.073 C 
HETATM    5  O   UNL     1      30.258  49.055  40.899  1.00  0.00    -0.339 OA
HETATM    6  C   UNL     1      31.210  49.876  41.436  1.00  0.00     0.078 A 
HETATM    7  C   UNL     1      31.970  50.785  40.688  1.00  0.00     0.005 A 
HETATM    8  C   UNL     1      31.769  50.877  39.203  1.00  0.00     0.222 C 
HETATM    9  C   UNL     1      30.976  49.688  38.669  1.00  0.00     0.076 C 
HETATM   10  C   UNL     1      31.398  49.754  42.812  1.00  0.00     0.037 A 
HETATM   11  C   UNL     1      32.316  50.569  43.468  1.00  0.00     0.003 A 
HETATM   12  C   UNL     1      33.043  51.512  42.748  1.00  0.00     0.001 A 
HETATM   13  C   UNL     1      32.869  51.626  41.366  1.00  0.00     0.012 A 
HETATM   14  C   UNL     1      28.759  50.528  39.647  1.00  0.00     0.059 C 
HETATM   15  C   UNL     1      27.494  50.118  40.395  1.00  0.00     0.138 C 
ENDROOT
BRANCH   8  16
HETATM   16  N   UNL     1      33.059  50.919  38.452  1.00  0.00    -0.071 N 
HETATM   17  H   UNL     1      33.763  51.477  38.947  1.00  0.00     0.275 HD
HETATM   18  H   UNL     1      33.440  49.971  38.340  1.00  0.00     0.275 HD
HETATM   19  H   UNL     1      32.943  51.330  37.517  1.00  0.00     0.275 HD
ENDBRANCH   8  16
BRANCH   1  20
HETATM   20  S   UNL     1      25.950  49.267  38.342  1.00  0.00     0.224 S 
HETATM   21  C   UNL     1      25.676  47.631  37.692  1.00  0.00     0.186 C 
HETATM   22  O   UNL     1      26.786  50.016  37.428  1.00  0.00    -0.206 OA
HETATM   23  O   UNL     1      24.676  49.796  38.774  1.00  0.00    -0.206 OA
ENDBRANCH   1  20
TORSDOF 2
ENDMDL
MODEL 8
REMARK VINA RESULT:      -6.6     17.083     19.146
REMARK  2 active torsions:
REMARK  status: ('A' for Active; 'I' for Inactive)
REMARK    1  A    between atoms: S_2  and  N_3 
REMARK    2  A    between atoms: C_10  and  N_11 
ROOT
HETATM    1  N   UNL     1      39.679  49.879  66.483  1.00  0.00    -0.311 N 
HETATM    2  C   UNL     1      39.658  48.822  67.519  1.00  0.00     0.138 C 
HETATM    3  C   UNL     1      38.462  47.888  67.336  1.00  0.00     0.059 C 
HETATM    4  C   UNL     1      38.332  47.336  65.899  1.00  0.00     0.073 C 
HETATM    5  O   UNL     1      39.404  46.390  65.735  1.00  0.00    -0.339 OA
HETATM    6  C   UNL     1      39.300  45.491  64.710  1.00  0.00     0.078 A 
HETATM    7  C   UNL     1      38.108  45.218  64.028  1.00  0.00     0.005 A 
HETATM    8  C   UNL     1      36.843  45.920  64.431  1.00  0.00     0.222 C 
HETATM    9  C   UNL     1      36.987  46.599  65.789  1.00  0.00     0.076 C 
HETATM   10  C   UNL     1      40.482  44.832  64.371  1.00  0.00     0.037 A 
HETATM   11  C   UNL     1      40.498  43.923  63.318  1.00  0.00     0.003 A 
HETATM   12  C   UNL     1      39.333  43.677  62.597  1.00  0.00     0.001 A 
HETATM   13  C   UNL     1      38.144  44.324  62.944  1.00  0.00     0.012 A 
HETATM   14  C   UNL     1      38.470  48.477  64.867  1.00  0.00     0.059 C 
HETATM   15  C   UNL     1      39.721  49.312  65.119  1.00  0.00     0.138 C 
ENDROOT
BRANCH   8  16
HETATM   16  N   UNL     1      35.677  44.991  64.524  1.00  0.00    -0.071 N 
HETATM   17  H   UNL     1      35.059  45.243  65.303  1.00  0.00     0.275 HD
HETATM   18  H   UNL     1      35.117  45.030  63.663  1.00  0.00     0.275 HD
HETATM   19  H   UNL     1      35.974  44.019  64.670  1.00  0.00     0.275 HD
ENDBRANCH   8  16
BRANCH   1  20
HETATM   20  S   UNL     1      38.713  51.261  66.704  1.00  0.00     0.224 S 
HETATM   21  C   UNL     1      38.571  51.341  68.478  1.00  0.00     0.186 C 
HETATM   22  O   UNL     1      37.416  50.977  66.128  1.00  0.00    -0.206 OA
HETATM   23  O   UNL     1      39.478  52.406  66.264  1.00  0.00    -0.206 OA
ENDBRANCH   1  20
TORSDOF 2
ENDMDL
MODEL 9
REMARK VINA RESULT:      -6.6      8.930     12.020
REMARK  2 active torsions:
REMARK  status: ('A' for Active; 'I' for Inactive)
REMARK    1  A    between atoms: S_2  and  N_3 
REMARK    2  A    between atoms: C_10  and  N_11 
ROOT
HETATM    1  N   UNL     1      21.715  49.401  48.141  1.00  0.00    -0.311 N 
HETATM    2  C   UNL     1      20.841  48.588  49.018  1.00  0.00     0.138 C 
HETATM    3  C   UNL     1      19.917  49.471  49.855  1.00  0.00     0.059 C 
HETATM    4  C   UNL     1      19.140  50.511  49.016  1.00  0.00     0.073 C 
HETATM    5  O   UNL     1      18.156  49.770  48.271  1.00  0.00    -0.339 OA
HETATM    6  C   UNL     1      17.105  50.469  47.748  1.00  0.00     0.078 A 
HETATM    7  C   UNL     1      16.750  51.764  48.148  1.00  0.00     0.005 A 
HETATM    8  C   UNL     1      17.536  52.451  49.227  1.00  0.00     0.222 C 
HETATM    9  C   UNL     1      18.425  51.469  49.984  1.00  0.00     0.076 C 
HETATM   10  C   UNL     1      16.373  49.802  46.766  1.00  0.00     0.037 A 
HETATM   11  C   UNL     1      15.304  50.434  46.138  1.00  0.00     0.003 A 
HETATM   12  C   UNL     1      14.970  51.739  46.488  1.00  0.00     0.001 A 
HETATM   13  C   UNL     1      15.690  52.405  47.483  1.00  0.00     0.012 A 
HETATM   14  C   UNL     1      20.094  51.247  48.049  1.00  0.00     0.059 C 
HETATM   15  C   UNL     1      20.931  50.266  47.234  1.00  0.00     0.138 C 
ENDROOT
BRANCH   8  16
HETATM   16  N   UNL     1      16.662  53.120  50.235  1.00  0.00    -0.071 N 
HETATM   17  H   UNL     1      15.850  52.539  50.472  1.00  0.00     0.275 HD
HETATM   18  H   UNL     1      17.182  53.291  51.105  1.00  0.00     0.275 HD
HETATM   19  H   UNL     1      16.305  54.021  49.893  1.00  0.00     0.275 HD
ENDBRANCH   8  16
BRANCH   1  20
HETATM   20  S   UNL     1      23.134  50.070  48.794  1.00  0.00     0.224 S 
HETATM   21  C   UNL     1      24.077  48.617  49.212  1.00  0.00     0.186 C 
HETATM   22  O   UNL     1      22.764  50.771  50.005  1.00  0.00    -0.206 OA
HETATM   23  O   UNL     1      23.825  50.760  47.727  1.00  0.00    -0.206 OA
ENDBRANCH   1  20
TORSDOF 2
ENDMDL
MODEL 10
REMARK VINA RESULT:      -6.5     13.134     14.387
REMARK  2 active torsions:
REMARK  status: ('A' for Active; 'I' for Inactive)
REMARK    1  A    between atoms: S_2  and  N_3 
REMARK    2  A    between atoms: C_10  and  N_11 
ROOT
HETATM    1  N   UNL     1      29.293  50.750  38.346  1.00  0.00    -0.311 N 
HETATM    2  C   UNL     1      29.532  52.200  38.532  1.00  0.00     0.138 C 
HETATM    3  C   UNL     1      29.836  52.530  39.993  1.00  0.00     0.059 C 
HETATM    4  C   UNL     1      30.948  51.646  40.602  1.00  0.00     0.073 C 
HETATM    5  O   UNL     1      32.179  52.079  39.995  1.00  0.00    -0.339 OA
HETATM    6  C   UNL     1      33.345  51.731  40.619  1.00  0.00     0.078 A 
HETATM    7  C   UNL     1      33.418  51.279  41.943  1.00  0.00     0.005 A 
HETATM    8  C   UNL     1      32.165  51.174  42.763  1.00  0.00     0.222 C 
HETATM    9  C   UNL     1      31.005  51.922  42.113  1.00  0.00     0.076 C 
HETATM   10  C   UNL     1      34.498  51.862  39.846  1.00  0.00     0.037 A 
HETATM   11  C   UNL     1      35.736  51.500  40.370  1.00  0.00     0.003 A 
HETATM   12  C   UNL     1      35.820  51.002  41.666  1.00  0.00     0.001 A 
HETATM   13  C   UNL     1      34.669  50.885  42.449  1.00  0.00     0.012 A 
HETATM   14  C   UNL     1      30.692  50.157  40.278  1.00  0.00     0.059 C 
HETATM   15  C   UNL     1      30.449  49.941  38.788  1.00  0.00     0.138 C 
ENDROOT
BRANCH   8  16
HETATM   16  N   UNL     1      32.332  51.731  44.138  1.00  0.00    -0.071 N 
HETATM   17  H   UNL     1      31.927  52.670  44.214  1.00  0.00     0.275 HD
HETATM   18  H   UNL     1      31.857  51.134  44.828  1.00  0.00     0.275 HD
HETATM   19  H   UNL     1      33.322  51.801  44.404  1.00  0.00     0.275 HD
ENDBRANCH   8  16
BRANCH   1  20
HETATM   20  S   UNL     1      27.750  50.125  38.689  1.00  0.00     0.224 S 
HETATM   21  C   UNL     1      28.049  48.369  38.699  1.00  0.00     0.186 C 
HETATM   22  O   UNL     1      26.890  50.462  37.574  1.00  0.00    -0.206 OA
HETATM   23  O   UNL     1      27.402  50.527  40.033  1.00  0.00    -0.206 OA
ENDBRANCH   1  20
TORSDOF 2
ENDMDL
