MODEL 1
REMARK VINA RESULT:      -7.5      0.000      0.000
REMARK  5 active torsions:
REMARK  status: ('A' for Active; 'I' for Inactive)
REMARK    1  A    between atoms: C_2  and  O_3 
REMARK    2  A    between atoms: C_4  and  C_5 
REMARK    3  A    between atoms: C_5  and  O_6 
REMARK    4  A    between atoms: C_9  and  C_10 
REMARK    5  A    between atoms: C_22  and  O_23 
ROOT
HETATM    1  C   UNL     1      31.944  52.534  39.478  1.00  0.00     0.047 C 
HETATM    2  C   UNL     1      30.606  51.849  39.801  1.00  0.00     0.073 C 
HETATM    3  C   UNL     1      30.373  51.752  41.346  1.00  0.00     0.133 C 
HETATM    4  C   UNL     1      31.123  50.622  42.116  1.00  0.00     0.074 C 
HETATM    5  C   UNL     1      31.436  49.460  41.239  1.00  0.00     0.030 A 
HETATM    6  C   UNL     1      31.174  49.420  39.887  1.00  0.00     0.042 A 
HETATM    7  N   UNL     1      31.556  48.186  39.443  1.00  0.00    -0.279 N 
HETATM    8  H   UNL     1      31.500  47.804  38.504  1.00  0.00     0.189 HD
HETATM    9  N   UNL     1      32.039  47.403  40.432  1.00  0.00    -0.149 NA
HETATM   10  C   UNL     1      31.935  48.183  41.500  1.00  0.00     0.190 A 
HETATM   11  C   UNL     1      30.531  50.478  39.072  1.00  0.00     0.097 C 
ENDROOT
BRANCH   4  12
HETATM   12  C   UNL     1      32.405  51.107  42.787  1.00  0.00    -0.047 A 
HETATM   13  C   UNL     1      33.682  51.055  42.202  1.00  0.00     0.027 A 
HETATM   14  C   UNL     1      34.800  51.545  42.882  1.00  0.00     0.011 A 
HETATM   15 BR   UNL     1      36.502  51.466  42.061  1.00  0.00    -0.051 Br
HETATM   16  C   UNL     1      34.674  52.091  44.155  1.00  0.00     0.019 A 
HETATM   17  C   UNL     1      33.420  52.150  44.753  1.00  0.00     0.002 A 
HETATM   18  C   UNL     1      32.297  51.670  44.074  1.00  0.00     0.008 A 
ENDBRANCH   4  12
BRANCH   3  19
HETATM   19  C   UNL     1      28.888  51.655  41.644  1.00  0.00     0.266 C 
HETATM   20  O   UNL     1      28.129  52.612  41.529  1.00  0.00    -0.265 OA
BRANCH  19  21
HETATM   21  O   UNL     1      28.510  50.409  42.031  1.00  0.00    -0.326 OA
HETATM   22  C   UNL     1      27.581  49.774  41.151  1.00  0.00     0.213 C 
ENDBRANCH  19  21
ENDBRANCH   3  19
BRANCH   2  23
HETATM   23  O   UNL     1      29.607  52.697  39.203  1.00  0.00    -0.389 OA
HETATM   24  H   UNL     1      28.734  52.279  39.315  1.00  0.00     0.210 HD
ENDBRANCH   2  23
BRANCH  10  25
HETATM   25  O   UNL     1      32.311  47.631  42.647  1.00  0.00    -0.343 OA
HETATM   26  H   UNL     1      32.571  48.382  43.206  1.00  0.00     0.219 HD
ENDBRANCH  10  25
TORSDOF 5
ENDMDL
MODEL 2
REMARK VINA RESULT:      -7.1      3.611      5.827
REMARK  5 active torsions:
REMARK  status: ('A' for Active; 'I' for Inactive)
REMARK    1  A    between atoms: C_2  and  O_3 
REMARK    2  A    between atoms: C_4  and  C_5 
REMARK    3  A    between atoms: C_5  and  O_6 
REMARK    4  A    between atoms: C_9  and  C_10 
REMARK    5  A    between atoms: C_22  and  O_23 
ROOT
HETATM    1  C   UNL     1      31.701  50.889  38.211  1.00  0.00     0.047 C 
HETATM    2  C   UNL     1      32.057  51.120  39.689  1.00  0.00     0.073 C 
HETATM    3  C   UNL     1      31.823  49.828  40.540  1.00  0.00     0.133 C 
HETATM    4  C   UNL     1      30.358  49.497  40.958  1.00  0.00     0.074 C 
HETATM    5  C   UNL     1      29.509  50.718  41.035  1.00  0.00     0.030 A 
HETATM    6  C   UNL     1      29.941  51.982  40.694  1.00  0.00     0.042 A 
HETATM    7  N   UNL     1      28.904  52.837  40.939  1.00  0.00    -0.279 N 
HETATM    8  H   UNL     1      28.869  53.845  40.813  1.00  0.00     0.189 HD
HETATM    9  N   UNL     1      27.819  52.210  41.441  1.00  0.00    -0.149 NA
HETATM   10  C   UNL     1      28.216  50.946  41.508  1.00  0.00     0.190 A 
HETATM   11  C   UNL     1      31.293  52.365  40.222  1.00  0.00     0.097 C 
ENDROOT
BRANCH   4  12
HETATM   12  C   UNL     1      29.691  48.478  40.038  1.00  0.00    -0.047 A 
HETATM   13  C   UNL     1      28.558  48.736  39.248  1.00  0.00     0.027 A 
HETATM   14  C   UNL     1      28.027  47.747  38.416  1.00  0.00     0.011 A 
HETATM   15 BR   UNL     1      26.506  48.131  37.360  1.00  0.00    -0.051 Br
HETATM   16  C   UNL     1      28.607  46.483  38.354  1.00  0.00     0.019 A 
HETATM   17  C   UNL     1      29.728  46.206  39.130  1.00  0.00     0.002 A 
HETATM   18  C   UNL     1      30.267  47.195  39.958  1.00  0.00     0.008 A 
ENDBRANCH   4  12
BRANCH   3  19
HETATM   19  C   UNL     1      32.699  49.855  41.780  1.00  0.00     0.266 C 
HETATM   20  O   UNL     1      33.921  49.766  41.726  1.00  0.00    -0.265 OA
BRANCH  19  21
HETATM   21  O   UNL     1      31.984  50.000  42.925  1.00  0.00    -0.326 OA
HETATM   22  C   UNL     1      32.335  51.147  43.700  1.00  0.00     0.213 C 
ENDBRANCH  19  21
ENDBRANCH   3  19
BRANCH   2  23
HETATM   23  O   UNL     1      33.456  51.460  39.679  1.00  0.00    -0.389 OA
HETATM   24  H   UNL     1      33.974  50.651  39.513  1.00  0.00     0.210 HD
ENDBRANCH   2  23
BRANCH  10  25
HETATM   25  O   UNL     1      27.332  50.098  42.019  1.00  0.00    -0.343 OA
HETATM   26  H   UNL     1      26.513  50.614  42.094  1.00  0.00     0.219 HD
ENDBRANCH  10  25
TORSDOF 5
ENDMDL
MODEL 3
REMARK VINA RESULT:      -6.9     12.373     13.498
REMARK  5 active torsions:
REMARK  status: ('A' for Active; 'I' for Inactive)
REMARK    1  A    between atoms: C_2  and  O_3 
REMARK    2  A    between atoms: C_4  and  C_5 
REMARK    3  A    between atoms: C_5  and  O_6 
REMARK    4  A    between atoms: C_9  and  C_10 
REMARK    5  A    between atoms: C_22  and  O_23 
ROOT
HETATM    1  C   UNL     1      27.251  45.689  49.791  1.00  0.00     0.047 C 
HETATM    2  C   UNL     1      26.183  44.582  49.778  1.00  0.00     0.073 C 
HETATM    3  C   UNL     1      25.252  44.674  51.032  1.00  0.00     0.133 C 
HETATM    4  C   UNL     1      25.802  44.109  52.378  1.00  0.00     0.074 C 
HETATM    5  C   UNL     1      26.819  43.043  52.163  1.00  0.00     0.030 A 
HETATM    6  C   UNL     1      27.286  42.660  50.924  1.00  0.00     0.042 A 
HETATM    7  N   UNL     1      28.166  41.635  51.129  1.00  0.00    -0.279 N 
HETATM    8  H   UNL     1      28.692  41.103  50.442  1.00  0.00     0.189 HD
HETATM    9  N   UNL     1      28.291  41.308  52.434  1.00  0.00    -0.149 NA
HETATM   10  C   UNL     1      27.457  42.153  53.028  1.00  0.00     0.190 A 
HETATM   11  C   UNL     1      26.866  43.196  49.608  1.00  0.00     0.097 C 
ENDROOT
BRANCH   4  12
HETATM   12  C   UNL     1      26.388  45.189  53.284  1.00  0.00    -0.047 A 
HETATM   13  C   UNL     1      27.534  45.028  54.080  1.00  0.00     0.027 A 
HETATM   14  C   UNL     1      28.014  46.082  54.862  1.00  0.00     0.011 A 
HETATM   15 BR   UNL     1      29.565  45.833  55.916  1.00  0.00    -0.051 Br
HETATM   16  C   UNL     1      27.364  47.312  54.873  1.00  0.00     0.019 A 
HETATM   17  C   UNL     1      26.226  47.492  54.094  1.00  0.00     0.002 A 
HETATM   18  C   UNL     1      25.747  46.444  53.303  1.00  0.00     0.008 A 
ENDBRANCH   4  12
BRANCH   3  19
HETATM   19  C   UNL     1      23.910  44.029  50.735  1.00  0.00     0.266 C 
HETATM   20  O   UNL     1      23.604  42.918  51.156  1.00  0.00    -0.265 OA
BRANCH  19  21
HETATM   21  O   UNL     1      23.105  44.818  49.978  1.00  0.00    -0.326 OA
HETATM   22  C   UNL     1      22.096  44.111  49.255  1.00  0.00     0.213 C 
ENDBRANCH  19  21
ENDBRANCH   3  19
BRANCH   2  23
HETATM   23  O   UNL     1      25.421  44.823  48.579  1.00  0.00    -0.389 OA
HETATM   24  H   UNL     1      26.012  45.205  47.904  1.00  0.00     0.210 HD
ENDBRANCH   2  23
BRANCH  10  25
HETATM   25  O   UNL     1      27.352  42.017  54.344  1.00  0.00    -0.343 OA
HETATM   26  H   UNL     1      28.181  41.590  54.613  1.00  0.00     0.219 HD
ENDBRANCH  10  25
TORSDOF 5
ENDMDL
MODEL 4
REMARK VINA RESULT:      -6.9      3.272      4.828
REMARK  5 active torsions:
REMARK  status: ('A' for Active; 'I' for Inactive)
REMARK    1  A    between atoms: C_2  and  O_3 
REMARK    2  A    between atoms: C_4  and  C_5 
REMARK    3  A    between atoms: C_5  and  O_6 
REMARK    4  A    between atoms: C_9  and  C_10 
REMARK    5  A    between atoms: C_22  and  O_23 
ROOT
HETATM    1  C   UNL     1      27.732  49.843  41.769  1.00  0.00     0.047 C 
HETATM    2  C   UNL     1      27.243  49.378  40.387  1.00  0.00     0.073 C 
HETATM    3  C   UNL     1      28.265  48.396  39.721  1.00  0.00     0.133 C 
HETATM    4  C   UNL     1      29.527  49.019  39.051  1.00  0.00     0.074 C 
HETATM    5  C   UNL     1      29.288  50.417  38.597  1.00  0.00     0.030 A 
HETATM    6  C   UNL     1      28.118  51.111  38.819  1.00  0.00     0.042 A 
HETATM    7  N   UNL     1      28.258  52.331  38.220  1.00  0.00    -0.279 N 
HETATM    8  H   UNL     1      27.592  53.096  38.174  1.00  0.00     0.189 HD
HETATM    9  N   UNL     1      29.449  52.473  37.599  1.00  0.00    -0.149 NA
HETATM   10  C   UNL     1      30.036  51.304  37.822  1.00  0.00     0.190 A 
HETATM   11  C   UNL     1      26.903  50.614  39.508  1.00  0.00     0.097 C 
ENDROOT
BRANCH   4  12
HETATM   12  C   UNL     1      30.759  48.987  39.952  1.00  0.00    -0.047 A 
HETATM   13  C   UNL     1      31.272  50.097  40.644  1.00  0.00     0.027 A 
HETATM   14  C   UNL     1      32.394  49.970  41.467  1.00  0.00     0.011 A 
HETATM   15 BR   UNL     1      33.053  51.484  42.390  1.00  0.00    -0.051 Br
HETATM   16  C   UNL     1      33.029  48.742  41.618  1.00  0.00     0.019 A 
HETATM   17  C   UNL     1      32.539  47.630  40.940  1.00  0.00     0.002 A 
HETATM   18  C   UNL     1      31.412  47.750  40.122  1.00  0.00     0.008 A 
ENDBRANCH   4  12
BRANCH   3  19
HETATM   19  C   UNL     1      27.556  47.508  38.715  1.00  0.00     0.266 C 
HETATM   20  O   UNL     1      27.379  47.844  37.549  1.00  0.00    -0.265 OA
BRANCH  19  21
HETATM   21  O   UNL     1      27.164  46.321  39.247  1.00  0.00    -0.326 OA
HETATM   22  C   UNL     1      28.138  45.699  40.085  1.00  0.00     0.213 C 
ENDBRANCH  19  21
ENDBRANCH   3  19
BRANCH   2  23
HETATM   23  O   UNL     1      26.002  48.696  40.649  1.00  0.00    -0.389 OA
HETATM   24  H   UNL     1      26.028  47.821  40.220  1.00  0.00     0.210 HD
ENDBRANCH   2  23
BRANCH  10  25
HETATM   25  O   UNL     1      31.235  51.154  37.271  1.00  0.00    -0.343 OA
HETATM   26  H   UNL     1      31.584  52.058  37.197  1.00  0.00     0.219 HD
ENDBRANCH  10  25
TORSDOF 5
ENDMDL
MODEL 5
REMARK VINA RESULT:      -6.8      1.659      2.238
REMARK  5 active torsions:
REMARK  status: ('A' for Active; 'I' for Inactive)
REMARK    1  A    between atoms: C_2  and  O_3 
REMARK    2  A    between atoms: C_4  and  C_5 
REMARK    3  A    between atoms: C_5  and  O_6 
REMARK    4  A    between atoms: C_9  and  C_10 
REMARK    5  A    between atoms: C_22  and  O_23 
ROOT
HETATM    1  C   UNL     1      32.009  51.147  37.946  1.00  0.00     0.047 C 
HETATM    2  C   UNL     1      30.557  51.431  38.366  1.00  0.00     0.073 C 
HETATM    3  C   UNL     1      30.493  52.118  39.771  1.00  0.00     0.133 C 
HETATM    4  C   UNL     1      30.664  51.207  41.024  1.00  0.00     0.074 C 
HETATM    5  C   UNL     1      30.248  49.803  40.757  1.00  0.00     0.030 A 
HETATM    6  C   UNL     1      29.841  49.340  39.524  1.00  0.00     0.042 A 
HETATM    7  N   UNL     1      29.499  48.027  39.685  1.00  0.00    -0.279 N 
HETATM    8  H   UNL     1      29.147  47.373  38.992  1.00  0.00     0.189 HD
HETATM    9  N   UNL     1      29.640  47.604  40.960  1.00  0.00    -0.149 NA
HETATM   10  C   UNL     1      30.068  48.693  41.584  1.00  0.00     0.190 A 
HETATM   11  C   UNL     1      29.720  50.124  38.273  1.00  0.00     0.097 C 
ENDROOT
BRANCH   4  12
HETATM   12  C   UNL     1      32.087  51.213  41.577  1.00  0.00    -0.047 A 
HETATM   13  C   UNL     1      33.233  50.871  40.839  1.00  0.00     0.027 A 
HETATM   14  C   UNL     1      34.501  50.928  41.422  1.00  0.00     0.011 A 
HETATM   15 BR   UNL     1      36.022  50.468  40.397  1.00  0.00    -0.051 Br
HETATM   16  C   UNL     1      34.658  51.322  42.747  1.00  0.00     0.019 A 
HETATM   17  C   UNL     1      33.537  51.663  43.496  1.00  0.00     0.002 A 
HETATM   18  C   UNL     1      32.266  51.616  42.916  1.00  0.00     0.008 A 
ENDBRANCH   4  12
BRANCH   3  19
HETATM   19  C   UNL     1      29.207  52.912  39.905  1.00  0.00     0.266 C 
HETATM   20  O   UNL     1      28.101  52.381  39.898  1.00  0.00    -0.265 OA
BRANCH  19  21
HETATM   21  O   UNL     1      29.424  54.245  40.045  1.00  0.00    -0.326 OA
HETATM   22  C   UNL     1      30.707  54.583  40.574  1.00  0.00     0.213 C 
ENDBRANCH  19  21
ENDBRANCH   3  19
BRANCH   2  23
HETATM   23  O   UNL     1      30.052  52.324  37.355  1.00  0.00    -0.389 OA
HETATM   24  H   UNL     1      30.447  52.082  36.497  1.00  0.00     0.210 HD
ENDBRANCH   2  23
BRANCH  10  25
HETATM   25  O   UNL     1      30.252  48.565  42.892  1.00  0.00    -0.343 OA
HETATM   26  H   UNL     1      31.198  48.743  43.025  1.00  0.00     0.219 HD
ENDBRANCH  10  25
TORSDOF 5
ENDMDL
MODEL 6
REMARK VINA RESULT:      -6.8      3.018      5.525
REMARK  5 active torsions:
REMARK  status: ('A' for Active; 'I' for Inactive)
REMARK    1  A    between atoms: C_2  and  O_3 
REMARK    2  A    between atoms: C_4  and  C_5 
REMARK    3  A    between atoms: C_5  and  O_6 
REMARK    4  A    between atoms: C_9  and  C_10 
REMARK    5  A    between atoms: C_22  and  O_23 
ROOT
HETATM    1  C   UNL     1      32.636  48.101  40.846  1.00  0.00     0.047 C 
HETATM    2  C   UNL     1      32.617  49.588  41.237  1.00  0.00     0.073 C 
HETATM    3  C   UNL     1      31.219  50.013  41.797  1.00  0.00     0.133 C 
HETATM    4  C   UNL     1      30.083  50.284  40.764  1.00  0.00     0.074 C 
HETATM    5  C   UNL     1      30.620  50.702  39.439  1.00  0.00     0.030 A 
HETATM    6  C   UNL     1      31.963  50.760  39.134  1.00  0.00     0.042 A 
HETATM    7  N   UNL     1      32.060  51.227  37.853  1.00  0.00    -0.279 N 
HETATM    8  H   UNL     1      32.896  51.404  37.304  1.00  0.00     0.189 HD
HETATM    9  N   UNL     1      30.856  51.498  37.304  1.00  0.00    -0.149 NA
HETATM   10  C   UNL     1      30.013  51.195  38.283  1.00  0.00     0.190 A 
HETATM   11  C   UNL     1      33.096  50.451  40.036  1.00  0.00     0.097 C 
ENDROOT
BRANCH   4  12
HETATM   12  C   UNL     1      29.151  49.090  40.575  1.00  0.00    -0.047 A 
HETATM   13  C   UNL     1      29.520  47.876  39.971  1.00  0.00     0.027 A 
HETATM   14  C   UNL     1      28.604  46.826  39.861  1.00  0.00     0.011 A 
HETATM   15 BR   UNL     1      29.137  45.203  39.049  1.00  0.00    -0.051 Br
HETATM   16  C   UNL     1      27.307  46.960  40.345  1.00  0.00     0.019 A 
HETATM   17  C   UNL     1      26.921  48.154  40.945  1.00  0.00     0.002 A 
HETATM   18  C   UNL     1      27.835  49.205  41.064  1.00  0.00     0.008 A 
ENDBRANCH   4  12
BRANCH   3  19
HETATM   19  C   UNL     1      31.365  51.223  42.702  1.00  0.00     0.266 C 
HETATM   20  O   UNL     1      31.054  52.355  42.346  1.00  0.00    -0.265 OA
BRANCH  19  21
HETATM   21  O   UNL     1      31.856  50.905  43.928  1.00  0.00    -0.326 OA
HETATM   22  C   UNL     1      32.501  51.985  44.605  1.00  0.00     0.213 C 
ENDBRANCH  19  21
ENDBRANCH   3  19
BRANCH   2  23
HETATM   23  O   UNL     1      33.619  49.709  42.265  1.00  0.00    -0.389 OA
HETATM   24  H   UNL     1      33.179  49.692  43.135  1.00  0.00     0.210 HD
ENDBRANCH   2  23
BRANCH  10  25
HETATM   25  O   UNL     1      28.731  51.414  38.019  1.00  0.00    -0.343 OA
HETATM   26  H   UNL     1      28.319  51.536  38.890  1.00  0.00     0.219 HD
ENDBRANCH  10  25
TORSDOF 5
ENDMDL
MODEL 7
REMARK VINA RESULT:      -6.8      3.504      5.761
REMARK  5 active torsions:
REMARK  status: ('A' for Active; 'I' for Inactive)
REMARK    1  A    between atoms: C_2  and  O_3 
REMARK    2  A    between atoms: C_4  and  C_5 
REMARK    3  A    between atoms: C_5  and  O_6 
REMARK    4  A    between atoms: C_9  and  C_10 
REMARK    5  A    between atoms: C_22  and  O_23 
ROOT
HETATM    1  C   UNL     1      27.617  50.052  41.275  1.00  0.00     0.047 C 
HETATM    2  C   UNL     1      28.738  50.744  40.482  1.00  0.00     0.073 C 
HETATM    3  C   UNL     1      29.193  49.875  39.262  1.00  0.00     0.133 C 
HETATM    4  C   UNL     1      30.152  48.680  39.550  1.00  0.00     0.074 C 
HETATM    5  C   UNL     1      30.969  48.900  40.776  1.00  0.00     0.030 A 
HETATM    6  C   UNL     1      30.833  49.990  41.608  1.00  0.00     0.042 A 
HETATM    7  N   UNL     1      31.777  49.863  42.588  1.00  0.00    -0.279 N 
HETATM    8  H   UNL     1      31.972  50.487  43.365  1.00  0.00     0.189 HD
HETATM    9  N   UNL     1      32.540  48.759  42.437  1.00  0.00    -0.149 NA
HETATM   10  C   UNL     1      32.048  48.213  41.332  1.00  0.00     0.190 A 
HETATM   11  C   UNL     1      29.898  51.128  41.441  1.00  0.00     0.097 C 
ENDROOT
BRANCH   4  12
HETATM   12  C   UNL     1      29.424  47.343  39.664  1.00  0.00    -0.047 A 
HETATM   13  C   UNL     1      28.344  47.093  40.528  1.00  0.00     0.027 A 
HETATM   14  C   UNL     1      27.721  45.842  40.549  1.00  0.00     0.011 A 
HETATM   15 BR   UNL     1      26.266  45.543  41.720  1.00  0.00    -0.051 Br
HETATM   16  C   UNL     1      28.158  44.816  39.717  1.00  0.00     0.019 A 
HETATM   17  C   UNL     1      29.226  45.043  38.855  1.00  0.00     0.002 A 
HETATM   18  C   UNL     1      29.848  46.294  38.825  1.00  0.00     0.008 A 
ENDBRANCH   4  12
BRANCH   3  19
HETATM   19  C   UNL     1      29.808  50.758  38.192  1.00  0.00     0.266 C 
HETATM   20  O   UNL     1      29.163  51.612  37.592  1.00  0.00    -0.265 OA
BRANCH  19  21
HETATM   21  O   UNL     1      31.127  50.505  37.996  1.00  0.00    -0.326 OA
HETATM   22  C   UNL     1      31.995  51.586  38.341  1.00  0.00     0.213 C 
ENDBRANCH  19  21
ENDBRANCH   3  19
BRANCH   2  23
HETATM   23  O   UNL     1      28.151  51.975  40.019  1.00  0.00    -0.389 OA
HETATM   24  H   UNL     1      28.852  52.650  39.951  1.00  0.00     0.210 HD
ENDBRANCH   2  23
BRANCH  10  25
HETATM   25  O   UNL     1      32.660  47.108  40.923  1.00  0.00    -0.343 OA
HETATM   26  H   UNL     1      33.215  46.843  41.675  1.00  0.00     0.219 HD
ENDBRANCH  10  25
TORSDOF 5
ENDMDL
MODEL 8
REMARK VINA RESULT:      -6.7      3.730      4.817
REMARK  5 active torsions:
REMARK  status: ('A' for Active; 'I' for Inactive)
REMARK    1  A    between atoms: C_2  and  O_3 
REMARK    2  A    between atoms: C_4  and  C_5 
REMARK    3  A    between atoms: C_5  and  O_6 
REMARK    4  A    between atoms: C_9  and  C_10 
REMARK    5  A    between atoms: C_22  and  O_23 
ROOT
HETATM    1  C   UNL     1      29.227  51.646  42.042  1.00  0.00     0.047 C 
HETATM    2  C   UNL     1      29.071  52.452  40.742  1.00  0.00     0.073 C 
HETATM    3  C   UNL     1      29.067  51.517  39.487  1.00  0.00     0.133 C 
HETATM    4  C   UNL     1      30.444  50.990  38.979  1.00  0.00     0.074 C 
HETATM    5  C   UNL     1      31.561  51.905  39.341  1.00  0.00     0.030 A 
HETATM    6  C   UNL     1      31.412  53.040  40.108  1.00  0.00     0.042 A 
HETATM    7  N   UNL     1      32.640  53.635  40.182  1.00  0.00    -0.279 N 
HETATM    8  H   UNL     1      32.902  54.493  40.658  1.00  0.00     0.189 HD
HETATM    9  N   UNL     1      33.587  52.964  39.491  1.00  0.00    -0.149 NA
HETATM   10  C   UNL     1      32.909  51.945  38.979  1.00  0.00     0.190 A 
HETATM   11  C   UNL     1      30.153  53.567  40.685  1.00  0.00     0.097 C 
ENDROOT
BRANCH   4  12
HETATM   12  C   UNL     1      30.765  49.583  39.477  1.00  0.00    -0.047 A 
HETATM   13  C   UNL     1      30.127  48.412  39.031  1.00  0.00     0.027 A 
HETATM   14  C   UNL     1      30.503  47.161  39.527  1.00  0.00     0.011 A 
HETATM   15 BR   UNL     1      29.629  45.606  38.899  1.00  0.00    -0.051 Br
HETATM   16  C   UNL     1      31.514  47.047  40.475  1.00  0.00     0.019 A 
HETATM   17  C   UNL     1      32.157  48.193  40.932  1.00  0.00     0.002 A 
HETATM   18  C   UNL     1      31.791  49.446  40.433  1.00  0.00     0.008 A 
ENDBRANCH   4  12
BRANCH   3  19
HETATM   19  C   UNL     1      28.338  52.189  38.338  1.00  0.00     0.266 C 
HETATM   20  O   UNL     1      28.655  53.295  37.912  1.00  0.00    -0.265 OA
BRANCH  19  21
HETATM   21  O   UNL     1      27.327  51.430  37.842  1.00  0.00    -0.326 OA
HETATM   22  C   UNL     1      26.934  50.345  38.683  1.00  0.00     0.213 C 
ENDBRANCH  19  21
ENDBRANCH   3  19
BRANCH   2  23
HETATM   23  O   UNL     1      27.797  53.111  40.871  1.00  0.00    -0.389 OA
HETATM   24  H   UNL     1      27.628  53.285  41.816  1.00  0.00     0.210 HD
ENDBRANCH   2  23
BRANCH  10  25
HETATM   25  O   UNL     1      33.608  51.129  38.200  1.00  0.00    -0.343 OA
HETATM   26  H   UNL     1      34.026  51.714  37.546  1.00  0.00     0.219 HD
ENDBRANCH  10  25
TORSDOF 5
ENDMDL
MODEL 9
REMARK VINA RESULT:      -6.6      3.234      5.264
REMARK  5 active torsions:
REMARK  status: ('A' for Active; 'I' for Inactive)
REMARK    1  A    between atoms: C_2  and  O_3 
REMARK    2  A    between atoms: C_4  and  C_5 
REMARK    3  A    between atoms: C_5  and  O_6 
REMARK    4  A    between atoms: C_9  and  C_10 
REMARK    5  A    between atoms: C_22  and  O_23 
ROOT
HETATM    1  C   UNL     1      32.538  51.613  43.259  1.00  0.00     0.047 C 
HETATM    2  C   UNL     1      33.497  51.399  42.076  1.00  0.00     0.073 C 
HETATM    3  C   UNL     1      32.837  51.823  40.722  1.00  0.00     0.133 C 
HETATM    4  C   UNL     1      31.831  50.826  40.070  1.00  0.00     0.074 C 
HETATM    5  C   UNL     1      32.103  49.417  40.466  1.00  0.00     0.030 A 
HETATM    6  C   UNL     1      33.074  49.043  41.371  1.00  0.00     0.042 A 
HETATM    7  N   UNL     1      33.051  47.678  41.438  1.00  0.00    -0.279 N 
HETATM    8  H   UNL     1      33.635  47.061  41.994  1.00  0.00     0.189 HD
HETATM    9  N   UNL     1      32.132  47.131  40.613  1.00  0.00    -0.149 NA
HETATM   10  C   UNL     1      31.594  48.193  40.028  1.00  0.00     0.190 A 
HETATM   11  C   UNL     1      34.019  49.934  42.084  1.00  0.00     0.097 C 
ENDROOT
BRANCH   4  12
HETATM   12  C   UNL     1      30.373  51.162  40.376  1.00  0.00    -0.047 A 
HETATM   13  C   UNL     1      29.267  50.483  39.840  1.00  0.00     0.027 A 
HETATM   14  C   UNL     1      27.965  50.845  40.196  1.00  0.00     0.011 A 
HETATM   15 BR   UNL     1      26.499  49.903  39.460  1.00  0.00    -0.051 Br
HETATM   16  C   UNL     1      27.736  51.889  41.086  1.00  0.00     0.019 A 
HETATM   17  C   UNL     1      28.817  52.576  41.628  1.00  0.00     0.002 A 
HETATM   18  C   UNL     1      30.122  52.213  41.281  1.00  0.00     0.008 A 
ENDBRANCH   4  12
BRANCH   3  19
HETATM   19  C   UNL     1      33.908  52.181  39.709  1.00  0.00     0.266 C 
HETATM   20  O   UNL     1      34.261  51.411  38.821  1.00  0.00    -0.265 OA
BRANCH  19  21
HETATM   21  O   UNL     1      34.406  53.432  39.890  1.00  0.00    -0.326 OA
HETATM   22  C   UNL     1      35.694  53.645  39.312  1.00  0.00     0.213 C 
ENDBRANCH  19  21
ENDBRANCH   3  19
BRANCH   2  23
HETATM   23  O   UNL     1      34.625  52.247  42.363  1.00  0.00    -0.389 OA
HETATM   24  H   UNL     1      34.303  53.069  42.776  1.00  0.00     0.210 HD
ENDBRANCH   2  23
BRANCH  10  25
HETATM   25  O   UNL     1      30.667  47.932  39.116  1.00  0.00    -0.343 OA
HETATM   26  H   UNL     1      30.667  48.712  38.536  1.00  0.00     0.219 HD
ENDBRANCH  10  25
TORSDOF 5
ENDMDL
MODEL 10
REMARK VINA RESULT:      -6.6     11.515     13.656
REMARK  5 active torsions:
REMARK  status: ('A' for Active; 'I' for Inactive)
REMARK    1  A    between atoms: C_2  and  O_3 
REMARK    2  A    between atoms: C_4  and  C_5 
REMARK    3  A    between atoms: C_5  and  O_6 
REMARK    4  A    between atoms: C_9  and  C_10 
REMARK    5  A    between atoms: C_22  and  O_23 
ROOT
HETATM    1  C   UNL     1      20.807  45.717  48.183  1.00  0.00     0.047 C 
HETATM    2  C   UNL     1      19.617  46.522  47.636  1.00  0.00     0.073 C 
HETATM    3  C   UNL     1      20.087  47.869  46.992  1.00  0.00     0.133 C 
HETATM    4  C   UNL     1      20.425  49.047  47.956  1.00  0.00     0.074 C 
HETATM    5  C   UNL     1      19.685  48.946  49.244  1.00  0.00     0.030 A 
HETATM    6  C   UNL     1      18.864  47.891  49.582  1.00  0.00     0.042 A 
HETATM    7  N   UNL     1      18.333  48.176  50.808  1.00  0.00    -0.279 N 
HETATM    8  H   UNL     1      17.680  47.628  51.360  1.00  0.00     0.189 HD
HETATM    9  N   UNL     1      18.743  49.370  51.289  1.00  0.00    -0.149 NA
HETATM   10  C   UNL     1      19.534  49.818  50.322  1.00  0.00     0.190 A 
HETATM   11  C   UNL     1      18.550  46.704  48.752  1.00  0.00     0.097 C 
ENDROOT
BRANCH   4  12
HETATM   12  C   UNL     1      21.919  49.175  48.242  1.00  0.00    -0.047 A 
HETATM   13  C   UNL     1      22.656  48.290  49.047  1.00  0.00     0.027 A 
HETATM   14  C   UNL     1      24.029  48.472  49.236  1.00  0.00     0.011 A 
HETATM   15 BR   UNL     1      24.992  47.257  50.319  1.00  0.00    -0.051 Br
HETATM   16  C   UNL     1      24.695  49.535  48.634  1.00  0.00     0.019 A 
HETATM   17  C   UNL     1      23.983  50.423  47.835  1.00  0.00     0.002 A 
HETATM   18  C   UNL     1      22.611  50.242  47.636  1.00  0.00     0.008 A 
ENDBRANCH   4  12
BRANCH   3  19
HETATM   19  C   UNL     1      19.071  48.341  45.968  1.00  0.00     0.266 C 
HETATM   20  O   UNL     1      18.890  47.760  44.902  1.00  0.00    -0.265 OA
BRANCH  19  21
HETATM   21  O   UNL     1      18.394  49.447  46.370  1.00  0.00    -0.326 OA
HETATM   22  C   UNL     1      16.984  49.263  46.498  1.00  0.00     0.213 C 
ENDBRANCH  19  21
ENDBRANCH   3  19
BRANCH   2  23
HETATM   23  O   UNL     1      19.031  45.672  46.631  1.00  0.00    -0.389 OA
HETATM   24  H   UNL     1      19.594  44.884  46.520  1.00  0.00     0.210 HD
ENDBRANCH   2  23
BRANCH  10  25
HETATM   25  O   UNL     1      20.051  51.024  50.523  1.00  0.00    -0.343 OA
HETATM   26  H   UNL     1      20.913  50.998  50.077  1.00  0.00     0.219 HD
ENDBRANCH  10  25
TORSDOF 5
ENDMDL
