MODEL 1
REMARK VINA RESULT:     -10.6      0.000      0.000
REMARK  7 active torsions:
REMARK  status: ('A' for Active; 'I' for Inactive)
REMARK    1  A    between atoms: C_4  and  C_5 
REMARK    2  A    between atoms: C_5  and  N_6 
REMARK    3  A    between atoms: N_6  and  C_7 
REMARK    4  A    between atoms: C_11  and  N_12 
REMARK       I    between atoms: N_12  and  C_13 
REMARK    5  A    between atoms: C_13  and  C_14 
REMARK    6  A    between atoms: C_17  and  C_18 
REMARK    7  A    between atoms: C_18  and  C_19 
ROOT
HETATM    1  N   UNL     1      24.256  46.988  50.725  1.00  0.00    -0.323 N 
HETATM    2  C   UNL     1      24.498  48.010  49.823  1.00  0.00     0.256 C 
HETATM    3  O   UNL     1      25.576  48.563  49.638  1.00  0.00    -0.267 OA
HETATM    4  H   UNL     1      23.316  46.624  50.779  1.00  0.00     0.169 HD
ENDROOT
BRANCH   1   5
HETATM    5  C   UNL     1      25.153  46.454  51.677  1.00  0.00     0.036 A 
HETATM    6  C   UNL     1      25.633  47.151  52.784  1.00  0.00     0.055 A 
HETATM    7  C   UNL     1      26.450  46.504  53.721  1.00  0.00     0.057 A 
HETATM    8  C   UNL     1      26.799  45.145  53.584  1.00  0.00     0.030 A 
HETATM    9 CL   UNL     1      26.971  47.403  55.109  1.00  0.00    -0.082 Cl
HETATM   10  C   UNL     1      26.373  44.485  52.427  1.00  0.00     0.027 A 
HETATM   11  C   UNL     1      25.546  45.123  51.496  1.00  0.00     0.031 A 
BRANCH   8  12
HETATM   12  N   UNL     1      27.616  44.505  54.538  1.00  0.00    -0.287 NA
HETATM   13  H   UNL     1      27.213  43.605  54.804  1.00  0.00     0.128 HD
BRANCH  12  14
HETATM   14  C   UNL     1      29.040  44.412  54.233  1.00  0.00     0.131 C 
BRANCH  14  15
HETATM   15  C   UNL     1      29.849  44.407  55.508  1.00  0.00    -0.045 A 
HETATM   16  C   UNL     1      30.755  43.364  55.760  1.00  0.00     0.008 A 
HETATM   17  C   UNL     1      31.520  43.356  56.927  1.00  0.00     0.001 A 
HETATM   18  C   UNL     1      31.385  44.387  57.854  1.00  0.00     0.000 A 
HETATM   19  C   UNL     1      30.479  45.420  57.621  1.00  0.00     0.001 A 
HETATM   20  C   UNL     1      29.709  45.429  56.456  1.00  0.00     0.008 A 
ENDBRANCH  14  15
ENDBRANCH  12  14
ENDBRANCH   8  12
ENDBRANCH   1   5
BRANCH   2  21
HETATM   21  C   UNL     1      23.311  48.494  49.045  1.00  0.00     0.032 A 
HETATM   22  C   UNL     1      22.392  47.639  48.425  1.00  0.00     0.017 A 
HETATM   23  C   UNL     1      21.271  48.162  47.770  1.00  0.00     0.008 A 
HETATM   24  C   UNL     1      21.055  49.545  47.711  1.00  0.00    -0.057 A 
HETATM   25  C   UNL     1      22.005  50.399  48.283  1.00  0.00     0.008 A 
HETATM   26  C   UNL     1      23.118  49.879  48.947  1.00  0.00     0.017 A 
BRANCH  24  27
HETATM   27  C   UNL     1      19.819  50.108  47.044  1.00  0.00     0.053 C 
BRANCH  27  28
HETATM   28  C   UNL     1      18.638  50.414  47.976  1.00  0.00     0.091 C 
HETATM   29  C   UNL     1      18.882  51.649  48.806  1.00  0.00     0.229 C 
HETATM   30  O   UNL     1      19.047  52.777  48.372  1.00  0.00    -0.273 OA
HETATM   31  N   UNL     1      18.933  51.297  50.115  1.00  0.00    -0.297 N 
HETATM   32  C   UNL     1      18.710  49.977  50.324  1.00  0.00     0.225 C 
HETATM   33  H   UNL     1      19.160  51.944  50.853  1.00  0.00     0.171 HD
HETATM   34  O   UNL     1      18.759  49.409  51.401  1.00  0.00    -0.273 OA
HETATM   35  C   UNL     1      18.334  49.337  49.018  1.00  0.00     0.117 C 
ENDBRANCH  27  28
ENDBRANCH  24  27
ENDBRANCH   2  21
TORSDOF 7
ENDMDL
MODEL 2
REMARK VINA RESULT:     -10.6      3.457     11.462
REMARK  7 active torsions:
REMARK  status: ('A' for Active; 'I' for Inactive)
REMARK    1  A    between atoms: C_4  and  C_5 
REMARK    2  A    between atoms: C_5  and  N_6 
REMARK    3  A    between atoms: N_6  and  C_7 
REMARK    4  A    between atoms: C_11  and  N_12 
REMARK       I    between atoms: N_12  and  C_13 
REMARK    5  A    between atoms: C_13  and  C_14 
REMARK    6  A    between atoms: C_17  and  C_18 
REMARK    7  A    between atoms: C_18  and  C_19 
ROOT
HETATM    1  N   UNL     1      25.731  45.475  50.914  1.00  0.00    -0.323 N 
HETATM    2  C   UNL     1      25.511  44.710  52.046  1.00  0.00     0.256 C 
HETATM    3  O   UNL     1      24.416  44.425  52.519  1.00  0.00    -0.267 OA
HETATM    4  H   UNL     1      26.688  45.636  50.636  1.00  0.00     0.169 HD
ENDROOT
BRANCH   1   5
HETATM    5  C   UNL     1      24.767  46.163  50.144  1.00  0.00     0.036 A 
HETATM    6  C   UNL     1      24.668  47.551  50.063  1.00  0.00     0.055 A 
HETATM    7  C   UNL     1      23.734  48.139  49.200  1.00  0.00     0.057 A 
HETATM    8  C   UNL     1      22.884  47.361  48.388  1.00  0.00     0.030 A 
HETATM    9 CL   UNL     1      23.694  49.869  49.098  1.00  0.00    -0.082 Cl
HETATM   10  C   UNL     1      22.944  45.972  48.541  1.00  0.00     0.027 A 
HETATM   11  C   UNL     1      23.884  45.380  49.392  1.00  0.00     0.031 A 
BRANCH   8  12
HETATM   12  N   UNL     1      21.953  47.966  47.520  1.00  0.00    -0.287 NA
HETATM   13  H   UNL     1      22.095  47.638  46.563  1.00  0.00     0.128 HD
BRANCH  12  14
HETATM   14  C   UNL     1      20.551  47.928  47.922  1.00  0.00     0.131 C 
BRANCH  14  15
HETATM   15  C   UNL     1      20.141  49.255  48.514  1.00  0.00    -0.045 A 
HETATM   16  C   UNL     1      19.475  49.298  49.750  1.00  0.00     0.008 A 
HETATM   17  C   UNL     1      19.106  50.518  50.315  1.00  0.00     0.001 A 
HETATM   18  C   UNL     1      19.394  51.708  49.650  1.00  0.00     0.000 A 
HETATM   19  C   UNL     1      20.043  51.679  48.417  1.00  0.00     0.001 A 
HETATM   20  C   UNL     1      20.411  50.458  47.847  1.00  0.00     0.008 A 
ENDBRANCH  14  15
ENDBRANCH  12  14
ENDBRANCH   8  12
ENDBRANCH   1   5
BRANCH   2  21
HETATM   21  C   UNL     1      26.738  44.234  52.766  1.00  0.00     0.032 A 
HETATM   22  C   UNL     1      27.952  43.959  52.125  1.00  0.00     0.017 A 
HETATM   23  C   UNL     1      29.074  43.580  52.870  1.00  0.00     0.008 A 
HETATM   24  C   UNL     1      29.001  43.455  54.264  1.00  0.00    -0.057 A 
HETATM   25  C   UNL     1      27.773  43.676  54.895  1.00  0.00     0.008 A 
HETATM   26  C   UNL     1      26.654  44.066  54.155  1.00  0.00     0.017 A 
BRANCH  24  27
HETATM   27  C   UNL     1      30.227  43.092  55.074  1.00  0.00     0.053 C 
BRANCH  27  28
HETATM   28  C   UNL     1      30.945  44.263  55.761  1.00  0.00     0.091 C 
HETATM   29  C   UNL     1      31.404  43.903  57.151  1.00  0.00     0.229 C 
HETATM   30  O   UNL     1      32.208  43.029  57.431  1.00  0.00    -0.273 OA
HETATM   31  N   UNL     1      30.746  44.680  58.047  1.00  0.00    -0.297 N 
HETATM   32  C   UNL     1      29.913  45.578  57.468  1.00  0.00     0.225 C 
HETATM   33  H   UNL     1      30.833  44.569  59.045  1.00  0.00     0.171 HD
HETATM   34  O   UNL     1      29.173  46.345  58.058  1.00  0.00    -0.273 OA
HETATM   35  C   UNL     1      30.093  45.513  55.978  1.00  0.00     0.117 C 
ENDBRANCH  27  28
ENDBRANCH  24  27
ENDBRANCH   2  21
TORSDOF 7
ENDMDL
MODEL 3
REMARK VINA RESULT:     -10.5      2.131      2.658
REMARK  7 active torsions:
REMARK  status: ('A' for Active; 'I' for Inactive)
REMARK    1  A    between atoms: C_4  and  C_5 
REMARK    2  A    between atoms: C_5  and  N_6 
REMARK    3  A    between atoms: N_6  and  C_7 
REMARK    4  A    between atoms: C_11  and  N_12 
REMARK       I    between atoms: N_12  and  C_13 
REMARK    5  A    between atoms: C_13  and  C_14 
REMARK    6  A    between atoms: C_17  and  C_18 
REMARK    7  A    between atoms: C_18  and  C_19 
ROOT
HETATM    1  N   UNL     1      23.934  47.163  50.004  1.00  0.00    -0.323 N 
HETATM    2  C   UNL     1      24.235  48.405  49.469  1.00  0.00     0.256 C 
HETATM    3  O   UNL     1      25.361  48.851  49.281  1.00  0.00    -0.267 OA
HETATM    4  H   UNL     1      22.960  46.922  50.109  1.00  0.00     0.169 HD
ENDROOT
BRANCH   1   5
HETATM    5  C   UNL     1      24.839  46.217  50.534  1.00  0.00     0.036 A 
HETATM    6  C   UNL     1      25.319  45.109  49.837  1.00  0.00     0.055 A 
HETATM    7  C   UNL     1      26.284  44.277  50.419  1.00  0.00     0.057 A 
HETATM    8  C   UNL     1      26.804  44.533  51.704  1.00  0.00     0.030 A 
HETATM    9 CL   UNL     1      26.886  42.947  49.483  1.00  0.00    -0.082 Cl
HETATM   10  C   UNL     1      26.254  45.603  52.418  1.00  0.00     0.027 A 
HETATM   11  C   UNL     1      25.300  46.444  51.836  1.00  0.00     0.031 A 
BRANCH   8  12
HETATM   12  N   UNL     1      27.779  43.691  52.274  1.00  0.00    -0.287 NA
HETATM   13  H   UNL     1      28.713  44.078  52.126  1.00  0.00     0.128 HD
BRANCH  12  14
HETATM   14  C   UNL     1      27.563  43.267  53.654  1.00  0.00     0.131 C 
BRANCH  14  15
HETATM   15  C   UNL     1      28.702  43.732  54.528  1.00  0.00    -0.045 A 
HETATM   16  C   UNL     1      28.670  45.015  55.101  1.00  0.00     0.008 A 
HETATM   17  C   UNL     1      29.708  45.450  55.924  1.00  0.00     0.001 A 
HETATM   18  C   UNL     1      30.791  44.612  56.180  1.00  0.00     0.000 A 
HETATM   19  C   UNL     1      30.841  43.342  55.607  1.00  0.00     0.001 A 
HETATM   20  C   UNL     1      29.805  42.905  54.780  1.00  0.00     0.008 A 
ENDBRANCH  14  15
ENDBRANCH  12  14
ENDBRANCH   8  12
ENDBRANCH   1   5
BRANCH   2  21
HETATM   21  C   UNL     1      23.062  49.278  49.138  1.00  0.00     0.032 A 
HETATM   22  C   UNL     1      21.736  48.828  49.147  1.00  0.00     0.017 A 
HETATM   23  C   UNL     1      20.686  49.718  48.890  1.00  0.00     0.008 A 
HETATM   24  C   UNL     1      20.941  51.066  48.607  1.00  0.00    -0.057 A 
HETATM   25  C   UNL     1      22.270  51.500  48.544  1.00  0.00     0.008 A 
HETATM   26  C   UNL     1      23.319  50.617  48.812  1.00  0.00     0.017 A 
BRANCH  24  27
HETATM   27  C   UNL     1      19.804  52.038  48.376  1.00  0.00     0.053 C 
BRANCH  27  28
HETATM   28  C   UNL     1      18.391  51.474  48.581  1.00  0.00     0.091 C 
HETATM   29  C   UNL     1      17.413  52.028  47.576  1.00  0.00     0.229 C 
HETATM   30  O   UNL     1      17.476  51.880  46.367  1.00  0.00    -0.273 OA
HETATM   31  N   UNL     1      16.474  52.755  48.231  1.00  0.00    -0.297 N 
HETATM   32  C   UNL     1      16.633  52.751  49.576  1.00  0.00     0.225 C 
HETATM   33  H   UNL     1      15.757  53.285  47.759  1.00  0.00     0.171 HD
HETATM   34  O   UNL     1      15.954  53.373  50.374  1.00  0.00    -0.273 OA
HETATM   35  C   UNL     1      17.746  51.806  49.928  1.00  0.00     0.117 C 
ENDBRANCH  27  28
ENDBRANCH  24  27
ENDBRANCH   2  21
TORSDOF 7
ENDMDL
MODEL 4
REMARK VINA RESULT:     -10.3      1.385      2.016
REMARK  7 active torsions:
REMARK  status: ('A' for Active; 'I' for Inactive)
REMARK    1  A    between atoms: C_4  and  C_5 
REMARK    2  A    between atoms: C_5  and  N_6 
REMARK    3  A    between atoms: N_6  and  C_7 
REMARK    4  A    between atoms: C_11  and  N_12 
REMARK       I    between atoms: N_12  and  C_13 
REMARK    5  A    between atoms: C_13  and  C_14 
REMARK    6  A    between atoms: C_17  and  C_18 
REMARK    7  A    between atoms: C_18  and  C_19 
ROOT
HETATM    1  N   UNL     1      24.336  47.117  50.768  1.00  0.00    -0.323 N 
HETATM    2  C   UNL     1      24.592  48.140  49.871  1.00  0.00     0.256 C 
HETATM    3  O   UNL     1      25.697  48.596  49.599  1.00  0.00    -0.267 OA
HETATM    4  H   UNL     1      23.375  46.840  50.901  1.00  0.00     0.169 HD
ENDROOT
BRANCH   1   5
HETATM    5  C   UNL     1      25.261  46.473  51.620  1.00  0.00     0.036 A 
HETATM    6  C   UNL     1      25.896  45.268  51.326  1.00  0.00     0.055 A 
HETATM    7  C   UNL     1      26.866  44.754  52.197  1.00  0.00     0.057 A 
HETATM    8  C   UNL     1      27.235  45.433  53.376  1.00  0.00     0.030 A 
HETATM    9 CL   UNL     1      27.665  43.281  51.752  1.00  0.00    -0.082 Cl
HETATM   10  C   UNL     1      26.531  46.599  53.694  1.00  0.00     0.027 A 
HETATM   11  C   UNL     1      25.572  47.122  52.820  1.00  0.00     0.031 A 
BRANCH   8  12
HETATM   12  N   UNL     1      28.217  44.908  54.240  1.00  0.00    -0.287 NA
HETATM   13  H   UNL     1      28.897  44.357  53.712  1.00  0.00     0.128 HD
BRANCH  12  14
HETATM   14  C   UNL     1      28.852  45.840  55.166  1.00  0.00     0.131 C 
BRANCH  14  15
HETATM   15  C   UNL     1      29.837  45.111  56.048  1.00  0.00    -0.045 A 
HETATM   16  C   UNL     1      30.482  43.957  55.576  1.00  0.00     0.008 A 
HETATM   17  C   UNL     1      31.406  43.284  56.374  1.00  0.00     0.001 A 
HETATM   18  C   UNL     1      31.693  43.754  57.654  1.00  0.00     0.000 A 
HETATM   19  C   UNL     1      31.050  44.892  58.139  1.00  0.00     0.001 A 
HETATM   20  C   UNL     1      30.121  45.566  57.343  1.00  0.00     0.008 A 
ENDBRANCH  14  15
ENDBRANCH  12  14
ENDBRANCH   8  12
ENDBRANCH   1   5
BRANCH   2  21
HETATM   21  C   UNL     1      23.391  48.756  49.218  1.00  0.00     0.032 A 
HETATM   22  C   UNL     1      22.258  48.027  48.840  1.00  0.00     0.017 A 
HETATM   23  C   UNL     1      21.147  48.681  48.294  1.00  0.00     0.008 A 
HETATM   24  C   UNL     1      21.154  50.068  48.103  1.00  0.00    -0.057 A 
HETATM   25  C   UNL     1      22.309  50.787  48.429  1.00  0.00     0.008 A 
HETATM   26  C   UNL     1      23.414  50.138  48.986  1.00  0.00     0.017 A 
BRANCH  24  27
HETATM   27  C   UNL     1      19.936  50.781  47.556  1.00  0.00     0.053 C 
BRANCH  27  28
HETATM   28  C   UNL     1      19.292  51.816  48.491  1.00  0.00     0.091 C 
HETATM   29  C   UNL     1      18.635  51.165  49.682  1.00  0.00     0.229 C 
HETATM   30  O   UNL     1      19.204  50.503  50.535  1.00  0.00    -0.273 OA
HETATM   31  N   UNL     1      17.300  51.397  49.630  1.00  0.00    -0.297 N 
HETATM   32  C   UNL     1      16.930  52.169  48.580  1.00  0.00     0.225 C 
HETATM   33  H   UNL     1      16.643  50.997  50.281  1.00  0.00     0.171 HD
HETATM   34  O   UNL     1      15.786  52.469  48.285  1.00  0.00    -0.273 OA
HETATM   35  C   UNL     1      18.165  52.643  47.870  1.00  0.00     0.117 C 
ENDBRANCH  27  28
ENDBRANCH  24  27
ENDBRANCH   2  21
TORSDOF 7
ENDMDL
MODEL 5
REMARK VINA RESULT:      -9.9      2.183      2.824
REMARK  7 active torsions:
REMARK  status: ('A' for Active; 'I' for Inactive)
REMARK    1  A    between atoms: C_4  and  C_5 
REMARK    2  A    between atoms: C_5  and  N_6 
REMARK    3  A    between atoms: N_6  and  C_7 
REMARK    4  A    between atoms: C_11  and  N_12 
REMARK       I    between atoms: N_12  and  C_13 
REMARK    5  A    between atoms: C_13  and  C_14 
REMARK    6  A    between atoms: C_17  and  C_18 
REMARK    7  A    between atoms: C_18  and  C_19 
ROOT
HETATM    1  N   UNL     1      23.697  47.220  49.989  1.00  0.00    -0.323 N 
HETATM    2  C   UNL     1      23.907  48.489  49.477  1.00  0.00     0.256 C 
HETATM    3  O   UNL     1      24.998  49.015  49.287  1.00  0.00    -0.267 OA
HETATM    4  H   UNL     1      22.742  46.911  50.099  1.00  0.00     0.169 HD
ENDROOT
BRANCH   1   5
HETATM    5  C   UNL     1      24.669  46.327  50.491  1.00  0.00     0.036 A 
HETATM    6  C   UNL     1      25.149  45.216  49.800  1.00  0.00     0.055 A 
HETATM    7  C   UNL     1      26.181  44.440  50.346  1.00  0.00     0.057 A 
HETATM    8  C   UNL     1      26.767  44.759  51.588  1.00  0.00     0.030 A 
HETATM    9 CL   UNL     1      26.777  43.103  49.417  1.00  0.00    -0.082 Cl
HETATM   10  C   UNL     1      26.220  45.830  52.302  1.00  0.00     0.027 A 
HETATM   11  C   UNL     1      25.199  46.615  51.754  1.00  0.00     0.031 A 
BRANCH   8  12
HETATM   12  N   UNL     1      27.809  43.974  52.123  1.00  0.00    -0.287 NA
HETATM   13  H   UNL     1      28.700  44.468  52.050  1.00  0.00     0.128 HD
BRANCH  12  14
HETATM   14  C   UNL     1      27.593  43.403  53.448  1.00  0.00     0.131 C 
BRANCH  14  15
HETATM   15  C   UNL     1      28.694  43.833  54.387  1.00  0.00    -0.045 A 
HETATM   16  C   UNL     1      28.633  45.090  55.010  1.00  0.00     0.008 A 
HETATM   17  C   UNL     1      29.635  45.493  55.894  1.00  0.00     0.001 A 
HETATM   18  C   UNL     1      30.709  44.647  56.161  1.00  0.00     0.000 A 
HETATM   19  C   UNL     1      30.787  43.402  55.538  1.00  0.00     0.001 A 
HETATM   20  C   UNL     1      29.787  42.997  54.651  1.00  0.00     0.008 A 
ENDBRANCH  14  15
ENDBRANCH  12  14
ENDBRANCH   8  12
ENDBRANCH   1   5
BRANCH   2  21
HETATM   21  C   UNL     1      22.674  49.288  49.175  1.00  0.00     0.032 A 
HETATM   22  C   UNL     1      21.375  48.789  49.325  1.00  0.00     0.017 A 
HETATM   23  C   UNL     1      20.270  49.615  49.086  1.00  0.00     0.008 A 
HETATM   24  C   UNL     1      20.442  50.944  48.680  1.00  0.00    -0.057 A 
HETATM   25  C   UNL     1      21.741  51.422  48.477  1.00  0.00     0.008 A 
HETATM   26  C   UNL     1      22.846  50.605  48.726  1.00  0.00     0.017 A 
BRANCH  24  27
HETATM   27  C   UNL     1      19.248  51.850  48.467  1.00  0.00     0.053 C 
BRANCH  27  28
HETATM   28  C   UNL     1      18.472  51.637  47.159  1.00  0.00     0.091 C 
HETATM   29  C   UNL     1      17.056  51.187  47.413  1.00  0.00     0.229 C 
HETATM   30  O   UNL     1      16.203  51.824  48.009  1.00  0.00    -0.273 OA
HETATM   31  N   UNL     1      16.894  49.939  46.908  1.00  0.00    -0.297 N 
HETATM   32  C   UNL     1      18.000  49.463  46.288  1.00  0.00     0.225 C 
HETATM   33  H   UNL     1      16.049  49.401  47.024  1.00  0.00     0.171 HD
HETATM   34  O   UNL     1      18.123  48.350  45.806  1.00  0.00    -0.273 OA
HETATM   35  C   UNL     1      19.033  50.553  46.238  1.00  0.00     0.117 C 
ENDBRANCH  27  28
ENDBRANCH  24  27
ENDBRANCH   2  21
TORSDOF 7
ENDMDL
MODEL 6
REMARK VINA RESULT:      -9.8      1.412      2.276
REMARK  7 active torsions:
REMARK  status: ('A' for Active; 'I' for Inactive)
REMARK    1  A    between atoms: C_4  and  C_5 
REMARK    2  A    between atoms: C_5  and  N_6 
REMARK    3  A    between atoms: N_6  and  C_7 
REMARK    4  A    between atoms: C_11  and  N_12 
REMARK       I    between atoms: N_12  and  C_13 
REMARK    5  A    between atoms: C_13  and  C_14 
REMARK    6  A    between atoms: C_17  and  C_18 
REMARK    7  A    between atoms: C_18  and  C_19 
ROOT
HETATM    1  N   UNL     1      24.252  47.286  50.934  1.00  0.00    -0.323 N 
HETATM    2  C   UNL     1      24.559  48.054  49.824  1.00  0.00     0.256 C 
HETATM    3  O   UNL     1      25.682  48.252  49.375  1.00  0.00    -0.267 OA
HETATM    4  H   UNL     1      23.281  47.210  51.197  1.00  0.00     0.169 HD
ENDROOT
BRANCH   1   5
HETATM    5  C   UNL     1      25.158  46.671  51.827  1.00  0.00     0.036 A 
HETATM    6  C   UNL     1      25.792  47.326  52.881  1.00  0.00     0.055 A 
HETATM    7  C   UNL     1      26.605  46.607  53.767  1.00  0.00     0.057 A 
HETATM    8  C   UNL     1      26.797  45.217  53.633  1.00  0.00     0.030 A 
HETATM    9 CL   UNL     1      27.323  47.463  55.093  1.00  0.00    -0.082 Cl
HETATM   10  C   UNL     1      26.216  44.592  52.525  1.00  0.00     0.027 A 
HETATM   11  C   UNL     1      25.393  45.304  51.645  1.00  0.00     0.031 A 
BRANCH   8  12
HETATM   12  N   UNL     1      27.613  44.505  54.535  1.00  0.00    -0.287 NA
HETATM   13  H   UNL     1      27.185  43.607  54.768  1.00  0.00     0.128 HD
BRANCH  12  14
HETATM   14  C   UNL     1      29.025  44.380  54.193  1.00  0.00     0.131 C 
BRANCH  14  15
HETATM   15  C   UNL     1      29.865  44.343  55.448  1.00  0.00    -0.045 A 
HETATM   16  C   UNL     1      29.818  45.413  56.356  1.00  0.00     0.008 A 
HETATM   17  C   UNL     1      30.576  45.384  57.527  1.00  0.00     0.001 A 
HETATM   18  C   UNL     1      31.392  44.288  57.800  1.00  0.00     0.000 A 
HETATM   19  C   UNL     1      31.458  43.226  56.899  1.00  0.00     0.001 A 
HETATM   20  C   UNL     1      30.703  43.254  55.725  1.00  0.00     0.008 A 
ENDBRANCH  14  15
ENDBRANCH  12  14
ENDBRANCH   8  12
ENDBRANCH   1   5
BRANCH   2  21
HETATM   21  C   UNL     1      23.399  48.729  49.152  1.00  0.00     0.032 A 
HETATM   22  C   UNL     1      23.333  50.108  48.927  1.00  0.00     0.017 A 
HETATM   23  C   UNL     1      22.247  50.660  48.235  1.00  0.00     0.008 A 
HETATM   24  C   UNL     1      21.205  49.847  47.770  1.00  0.00    -0.057 A 
HETATM   25  C   UNL     1      21.248  48.476  48.046  1.00  0.00     0.008 A 
HETATM   26  C   UNL     1      22.336  47.922  48.725  1.00  0.00     0.017 A 
BRANCH  24  27
HETATM   27  C   UNL     1      20.056  50.436  46.982  1.00  0.00     0.053 C 
BRANCH  27  28
HETATM   28  C   UNL     1      18.735  50.601  47.748  1.00  0.00     0.091 C 
HETATM   29  C   UNL     1      17.686  49.628  47.275  1.00  0.00     0.229 C 
HETATM   30  O   UNL     1      17.763  48.411  47.339  1.00  0.00    -0.273 OA
HETATM   31  N   UNL     1      16.657  50.321  46.726  1.00  0.00    -0.297 N 
HETATM   32  C   UNL     1      16.821  51.664  46.790  1.00  0.00     0.225 C 
HETATM   33  H   UNL     1      15.872  49.879  46.274  1.00  0.00     0.171 HD
HETATM   34  O   UNL     1      16.066  52.496  46.317  1.00  0.00    -0.273 OA
HETATM   35  C   UNL     1      18.056  51.963  47.590  1.00  0.00     0.117 C 
ENDBRANCH  27  28
ENDBRANCH  24  27
ENDBRANCH   2  21
TORSDOF 7
ENDMDL
MODEL 7
REMARK VINA RESULT:      -9.6      2.816      3.910
REMARK  7 active torsions:
REMARK  status: ('A' for Active; 'I' for Inactive)
REMARK    1  A    between atoms: C_4  and  C_5 
REMARK    2  A    between atoms: C_5  and  N_6 
REMARK    3  A    between atoms: N_6  and  C_7 
REMARK    4  A    between atoms: C_11  and  N_12 
REMARK       I    between atoms: N_12  and  C_13 
REMARK    5  A    between atoms: C_13  and  C_14 
REMARK    6  A    between atoms: C_17  and  C_18 
REMARK    7  A    between atoms: C_18  and  C_19 
ROOT
HETATM    1  N   UNL     1      22.970  47.781  49.652  1.00  0.00    -0.323 N 
HETATM    2  C   UNL     1      22.319  48.151  48.487  1.00  0.00     0.256 C 
HETATM    3  O   UNL     1      22.472  47.635  47.385  1.00  0.00    -0.267 OA
HETATM    4  H   UNL     1      22.753  48.294  50.493  1.00  0.00     0.169 HD
ENDROOT
BRANCH   1   5
HETATM    5  C   UNL     1      24.003  46.827  49.791  1.00  0.00     0.036 A 
HETATM    6  C   UNL     1      23.934  45.518  49.319  1.00  0.00     0.055 A 
HETATM    7  C   UNL     1      25.047  44.673  49.426  1.00  0.00     0.057 A 
HETATM    8  C   UNL     1      26.259  45.115  49.995  1.00  0.00     0.030 A 
HETATM    9 CL   UNL     1      24.924  43.073  48.771  1.00  0.00    -0.082 Cl
HETATM   10  C   UNL     1      26.283  46.406  50.534  1.00  0.00     0.027 A 
HETATM   11  C   UNL     1      25.179  47.256  50.417  1.00  0.00     0.031 A 
BRANCH   8  12
HETATM   12  N   UNL     1      27.372  44.256  50.092  1.00  0.00    -0.287 NA
HETATM   13  H   UNL     1      28.226  44.798  50.243  1.00  0.00     0.128 HD
BRANCH  12  14
HETATM   14  C   UNL     1      27.258  43.125  51.005  1.00  0.00     0.131 C 
BRANCH  14  15
HETATM   15  C   UNL     1      28.078  43.373  52.249  1.00  0.00    -0.045 A 
HETATM   16  C   UNL     1      29.295  42.696  52.435  1.00  0.00     0.008 A 
HETATM   17  C   UNL     1      30.069  42.928  53.571  1.00  0.00     0.001 A 
HETATM   18  C   UNL     1      29.635  43.836  54.535  1.00  0.00     0.000 A 
HETATM   19  C   UNL     1      28.423  44.504  54.368  1.00  0.00     0.001 A 
HETATM   20  C   UNL     1      27.644  44.270  53.233  1.00  0.00     0.008 A 
ENDBRANCH  14  15
ENDBRANCH  12  14
ENDBRANCH   8  12
ENDBRANCH   1   5
BRANCH   2  21
HETATM   21  C   UNL     1      21.381  49.315  48.601  1.00  0.00     0.032 A 
HETATM   22  C   UNL     1      21.786  50.649  48.474  1.00  0.00     0.017 A 
HETATM   23  C   UNL     1      20.842  51.682  48.527  1.00  0.00     0.008 A 
HETATM   24  C   UNL     1      19.483  51.402  48.722  1.00  0.00    -0.057 A 
HETATM   25  C   UNL     1      19.089  50.072  48.904  1.00  0.00     0.008 A 
HETATM   26  C   UNL     1      20.028  49.039  48.839  1.00  0.00     0.017 A 
BRANCH  24  27
HETATM   27  C   UNL     1      18.457  52.515  48.732  1.00  0.00     0.053 C 
BRANCH  27  28
HETATM   28  C   UNL     1      17.018  52.093  49.061  1.00  0.00     0.091 C 
HETATM   29  C   UNL     1      16.114  52.198  47.859  1.00  0.00     0.229 C 
HETATM   30  O   UNL     1      16.236  51.571  46.819  1.00  0.00    -0.273 OA
HETATM   31  N   UNL     1      15.164  53.135  48.102  1.00  0.00    -0.297 N 
HETATM   32  C   UNL     1      15.250  53.677  49.340  1.00  0.00     0.225 C 
HETATM   33  H   UNL     1      14.491  53.432  47.413  1.00  0.00     0.171 HD
HETATM   34  O   UNL     1      14.550  54.575  49.775  1.00  0.00    -0.273 OA
HETATM   35  C   UNL     1      16.312  52.949  50.114  1.00  0.00     0.117 C 
ENDBRANCH  27  28
ENDBRANCH  24  27
ENDBRANCH   2  21
TORSDOF 7
ENDMDL
MODEL 8
REMARK VINA RESULT:      -9.5      2.763      3.974
REMARK  7 active torsions:
REMARK  status: ('A' for Active; 'I' for Inactive)
REMARK    1  A    between atoms: C_4  and  C_5 
REMARK    2  A    between atoms: C_5  and  N_6 
REMARK    3  A    between atoms: N_6  and  C_7 
REMARK    4  A    between atoms: C_11  and  N_12 
REMARK       I    between atoms: N_12  and  C_13 
REMARK    5  A    between atoms: C_13  and  C_14 
REMARK    6  A    between atoms: C_17  and  C_18 
REMARK    7  A    between atoms: C_18  and  C_19 
ROOT
HETATM    1  N   UNL     1      22.930  48.393  49.612  1.00  0.00    -0.323 N 
HETATM    2  C   UNL     1      22.090  48.614  48.534  1.00  0.00     0.256 C 
HETATM    3  O   UNL     1      22.187  48.090  47.430  1.00  0.00    -0.267 OA
HETATM    4  H   UNL     1      22.737  48.895  50.466  1.00  0.00     0.169 HD
ENDROOT
BRANCH   1   5
HETATM    5  C   UNL     1      24.111  47.619  49.634  1.00  0.00     0.036 A 
HETATM    6  C   UNL     1      25.388  48.123  49.392  1.00  0.00     0.055 A 
HETATM    7  C   UNL     1      26.508  47.292  49.525  1.00  0.00     0.057 A 
HETATM    8  C   UNL     1      26.386  45.943  49.914  1.00  0.00     0.030 A 
HETATM    9 CL   UNL     1      28.075  47.988  49.268  1.00  0.00    -0.082 Cl
HETATM   10  C   UNL     1      25.093  45.435  50.076  1.00  0.00     0.027 A 
HETATM   11  C   UNL     1      23.972  46.264  49.957  1.00  0.00     0.031 A 
BRANCH   8  12
HETATM   12  N   UNL     1      27.522  45.120  50.050  1.00  0.00    -0.287 NA
HETATM   13  H   UNL     1      28.298  45.650  50.452  1.00  0.00     0.128 HD
BRANCH  12  14
HETATM   14  C   UNL     1      27.330  43.829  50.702  1.00  0.00     0.131 C 
BRANCH  14  15
HETATM   15  C   UNL     1      28.054  43.800  52.027  1.00  0.00    -0.045 A 
HETATM   16  C   UNL     1      29.214  43.022  52.176  1.00  0.00     0.008 A 
HETATM   17  C   UNL     1      29.902  43.000  53.389  1.00  0.00     0.001 A 
HETATM   18  C   UNL     1      29.436  43.750  54.467  1.00  0.00     0.000 A 
HETATM   19  C   UNL     1      28.278  44.515  54.335  1.00  0.00     0.001 A 
HETATM   20  C   UNL     1      27.586  44.537  53.123  1.00  0.00     0.008 A 
ENDBRANCH  14  15
ENDBRANCH  12  14
ENDBRANCH   8  12
ENDBRANCH   1   5
BRANCH   2  21
HETATM   21  C   UNL     1      20.997  49.619  48.748  1.00  0.00     0.032 A 
HETATM   22  C   UNL     1      20.926  50.456  49.867  1.00  0.00     0.017 A 
HETATM   23  C   UNL     1      19.912  51.416  49.967  1.00  0.00     0.008 A 
HETATM   24  C   UNL     1      18.945  51.547  48.962  1.00  0.00    -0.057 A 
HETATM   25  C   UNL     1      18.986  50.670  47.872  1.00  0.00     0.008 A 
HETATM   26  C   UNL     1      20.005  49.720  47.763  1.00  0.00     0.017 A 
BRANCH  24  27
HETATM   27  C   UNL     1      17.877  52.615  49.048  1.00  0.00     0.053 C 
BRANCH  27  28
HETATM   28  C   UNL     1      16.433  52.134  48.845  1.00  0.00     0.091 C 
HETATM   29  C   UNL     1      15.844  52.653  47.557  1.00  0.00     0.229 C 
HETATM   30  O   UNL     1      16.259  52.409  46.436  1.00  0.00    -0.273 OA
HETATM   31  N   UNL     1      14.802  53.471  47.847  1.00  0.00    -0.297 N 
HETATM   32  C   UNL     1      14.547  53.564  49.174  1.00  0.00     0.225 C 
HETATM   33  H   UNL     1      14.299  53.995  47.149  1.00  0.00     0.171 HD
HETATM   34  O   UNL     1      13.702  54.277  49.688  1.00  0.00    -0.273 OA
HETATM   35  C   UNL     1      15.435  52.599  49.906  1.00  0.00     0.117 C 
ENDBRANCH  27  28
ENDBRANCH  24  27
ENDBRANCH   2  21
TORSDOF 7
ENDMDL
MODEL 9
REMARK VINA RESULT:      -9.0      1.901      2.718
REMARK  7 active torsions:
REMARK  status: ('A' for Active; 'I' for Inactive)
REMARK    1  A    between atoms: C_4  and  C_5 
REMARK    2  A    between atoms: C_5  and  N_6 
REMARK    3  A    between atoms: N_6  and  C_7 
REMARK    4  A    between atoms: C_11  and  N_12 
REMARK       I    between atoms: N_12  and  C_13 
REMARK    5  A    between atoms: C_13  and  C_14 
REMARK    6  A    between atoms: C_17  and  C_18 
REMARK    7  A    between atoms: C_18  and  C_19 
ROOT
HETATM    1  N   UNL     1      23.378  47.181  49.530  1.00  0.00    -0.323 N 
HETATM    2  C   UNL     1      23.160  48.519  49.247  1.00  0.00     0.256 C 
HETATM    3  O   UNL     1      23.947  49.435  49.460  1.00  0.00    -0.267 OA
HETATM    4  H   UNL     1      22.642  46.529  49.306  1.00  0.00     0.169 HD
ENDROOT
BRANCH   1   5
HETATM    5  C   UNL     1      24.482  46.617  50.207  1.00  0.00     0.036 A 
HETATM    6  C   UNL     1      25.065  47.159  51.351  1.00  0.00     0.055 A 
HETATM    7  C   UNL     1      26.101  46.476  52.003  1.00  0.00     0.057 A 
HETATM    8  C   UNL     1      26.573  45.232  51.538  1.00  0.00     0.030 A 
HETATM    9 CL   UNL     1      26.750  47.169  53.453  1.00  0.00    -0.082 Cl
HETATM   10  C   UNL     1      26.031  44.743  50.345  1.00  0.00     0.027 A 
HETATM   11  C   UNL     1      24.987  45.415  49.699  1.00  0.00     0.031 A 
BRANCH   8  12
HETATM   12  N   UNL     1      27.612  44.553  52.206  1.00  0.00    -0.287 NA
HETATM   13  H   UNL     1      28.468  45.111  52.191  1.00  0.00     0.128 HD
BRANCH  12  14
HETATM   14  C   UNL     1      27.312  44.026  53.533  1.00  0.00     0.131 C 
BRANCH  14  15
HETATM   15  C   UNL     1      28.546  44.066  54.403  1.00  0.00    -0.045 A 
HETATM   16  C   UNL     1      28.759  45.152  55.268  1.00  0.00     0.008 A 
HETATM   17  C   UNL     1      29.886  45.193  56.089  1.00  0.00     0.001 A 
HETATM   18  C   UNL     1      30.813  44.154  56.051  1.00  0.00     0.000 A 
HETATM   19  C   UNL     1      30.619  43.077  55.187  1.00  0.00     0.001 A 
HETATM   20  C   UNL     1      29.493  43.035  54.361  1.00  0.00     0.008 A 
ENDBRANCH  14  15
ENDBRANCH  12  14
ENDBRANCH   8  12
ENDBRANCH   1   5
BRANCH   2  21
HETATM   21  C   UNL     1      21.819  48.857  48.668  1.00  0.00     0.032 A 
HETATM   22  C   UNL     1      20.663  48.106  48.906  1.00  0.00     0.017 A 
HETATM   23  C   UNL     1      19.431  48.519  48.384  1.00  0.00     0.008 A 
HETATM   24  C   UNL     1      19.336  49.679  47.605  1.00  0.00    -0.057 A 
HETATM   25  C   UNL     1      20.503  50.397  47.321  1.00  0.00     0.008 A 
HETATM   26  C   UNL     1      21.731  49.993  47.852  1.00  0.00     0.017 A 
BRANCH  24  27
HETATM   27  C   UNL     1      17.997  50.152  47.079  1.00  0.00     0.053 C 
BRANCH  27  28
HETATM   28  C   UNL     1      17.775  51.671  47.086  1.00  0.00     0.091 C 
HETATM   29  C   UNL     1      17.140  52.140  48.371  1.00  0.00     0.229 C 
HETATM   30  O   UNL     1      17.628  52.039  49.485  1.00  0.00    -0.273 OA
HETATM   31  N   UNL     1      15.916  52.655  48.094  1.00  0.00    -0.297 N 
HETATM   32  C   UNL     1      15.620  52.654  46.772  1.00  0.00     0.225 C 
HETATM   33  H   UNL     1      15.272  52.964  48.806  1.00  0.00     0.171 HD
HETATM   34  O   UNL     1      14.563  53.010  46.280  1.00  0.00    -0.273 OA
HETATM   35  C   UNL     1      16.828  52.197  46.007  1.00  0.00     0.117 C 
ENDBRANCH  27  28
ENDBRANCH  24  27
ENDBRANCH   2  21
TORSDOF 7
ENDMDL
MODEL 10
REMARK VINA RESULT:      -9.0      3.930     12.116
REMARK  7 active torsions:
REMARK  status: ('A' for Active; 'I' for Inactive)
REMARK    1  A    between atoms: C_4  and  C_5 
REMARK    2  A    between atoms: C_5  and  N_6 
REMARK    3  A    between atoms: N_6  and  C_7 
REMARK    4  A    between atoms: C_11  and  N_12 
REMARK       I    between atoms: N_12  and  C_13 
REMARK    5  A    between atoms: C_13  and  C_14 
REMARK    6  A    between atoms: C_17  and  C_18 
REMARK    7  A    between atoms: C_18  and  C_19 
ROOT
HETATM    1  N   UNL     1      22.092  48.956  49.539  1.00  0.00    -0.323 N 
HETATM    2  C   UNL     1      23.255  48.839  48.796  1.00  0.00     0.256 C 
HETATM    3  O   UNL     1      23.522  49.464  47.776  1.00  0.00    -0.267 OA
HETATM    4  H   UNL     1      21.999  48.376  50.359  1.00  0.00     0.169 HD
ENDROOT
BRANCH   1   5
HETATM    5  C   UNL     1      20.949  49.724  49.224  1.00  0.00     0.036 A 
HETATM    6  C   UNL     1      20.067  49.435  48.185  1.00  0.00     0.055 A 
HETATM    7  C   UNL     1      18.910  50.206  48.010  1.00  0.00     0.057 A 
HETATM    8  C   UNL     1      18.598  51.277  48.872  1.00  0.00     0.030 A 
HETATM    9 CL   UNL     1      17.820  49.766  46.735  1.00  0.00    -0.082 Cl
HETATM   10  C   UNL     1      19.533  51.601  49.860  1.00  0.00     0.027 A 
HETATM   11  C   UNL     1      20.683  50.825  50.047  1.00  0.00     0.031 A 
BRANCH   8  12
HETATM   12  N   UNL     1      17.428  52.041  48.688  1.00  0.00    -0.287 NA
HETATM   13  H   UNL     1      17.266  52.207  47.692  1.00  0.00     0.128 HD
BRANCH  12  14
HETATM   14  C   UNL     1      16.227  51.591  49.383  1.00  0.00     0.131 C 
BRANCH  14  15
HETATM   15  C   UNL     1      15.158  52.655  49.321  1.00  0.00    -0.045 A 
HETATM   16  C   UNL     1      14.935  53.358  48.125  1.00  0.00     0.008 A 
HETATM   17  C   UNL     1      13.939  54.332  48.050  1.00  0.00     0.001 A 
HETATM   18  C   UNL     1      13.158  54.616  49.168  1.00  0.00     0.000 A 
HETATM   19  C   UNL     1      13.379  53.935  50.364  1.00  0.00     0.001 A 
HETATM   20  C   UNL     1      14.377  52.962  50.444  1.00  0.00     0.008 A 
ENDBRANCH  14  15
ENDBRANCH  12  14
ENDBRANCH   8  12
ENDBRANCH   1   5
BRANCH   2  21
HETATM   21  C   UNL     1      24.242  47.818  49.280  1.00  0.00     0.032 A 
HETATM   22  C   UNL     1      25.578  48.114  49.573  1.00  0.00     0.017 A 
HETATM   23  C   UNL     1      26.426  47.123  50.083  1.00  0.00     0.008 A 
HETATM   24  C   UNL     1      25.959  45.820  50.295  1.00  0.00    -0.057 A 
HETATM   25  C   UNL     1      24.639  45.513  49.948  1.00  0.00     0.008 A 
HETATM   26  C   UNL     1      23.788  46.504  49.451  1.00  0.00     0.017 A 
BRANCH  24  27
HETATM   27  C   UNL     1      26.862  44.761  50.890  1.00  0.00     0.053 C 
BRANCH  27  28
HETATM   28  C   UNL     1      27.122  44.875  52.399  1.00  0.00     0.091 C 
HETATM   29  C   UNL     1      27.382  43.530  53.028  1.00  0.00     0.229 C 
HETATM   30  O   UNL     1      28.309  42.784  52.756  1.00  0.00    -0.273 OA
HETATM   31  N   UNL     1      26.393  43.261  53.916  1.00  0.00    -0.297 N 
HETATM   32  C   UNL     1      25.489  44.263  54.032  1.00  0.00     0.225 C 
HETATM   33  H   UNL     1      26.313  42.383  54.406  1.00  0.00     0.171 HD
HETATM   34  O   UNL     1      24.483  44.237  54.719  1.00  0.00    -0.273 OA
HETATM   35  C   UNL     1      25.960  45.435  53.220  1.00  0.00     0.117 C 
ENDBRANCH  27  28
ENDBRANCH  24  27
ENDBRANCH   2  21
TORSDOF 7
ENDMDL
