MODEL 1
REMARK VINA RESULT:      -9.7      0.000      0.000
REMARK  8 active torsions:
REMARK  status: ('A' for Active; 'I' for Inactive)
REMARK    1  A    between atoms: O_2  and  C_3 
REMARK    2  A    between atoms: C_5  and  N_6 
REMARK       I    between atoms: N_6  and  C_7 
REMARK    3  A    between atoms: C_7  and  C_8 
REMARK    4  A    between atoms: C_8  and  N_9 
REMARK    5  A    between atoms: C_8  and  C_25 
REMARK    6  A    between atoms: N_9  and  C_12 
REMARK    7  A    between atoms: C_12  and  C_13 
REMARK    8  A    between atoms: C_16  and  N_17 
ROOT
HETATM    1  C   UNL     1      28.001  43.903  53.654  1.00  0.00     0.310 C 
ENDROOT
BRANCH   1   2
HETATM    2  C   UNL     1      28.463  43.082  52.423  1.00  0.00     0.257 C 
HETATM    3  N   UNL     1      27.561  42.170  51.921  1.00  0.00    -0.325 N 
HETATM    4  H   UNL     1      26.651  42.090  52.366  1.00  0.00     0.169 HD
HETATM    5  O   UNL     1      29.619  43.277  52.034  1.00  0.00    -0.270 OA
BRANCH   3   6
HETATM    6  C   UNL     1      27.743  41.332  50.796  1.00  0.00     0.037 A 
HETATM    7  C   UNL     1      28.215  40.019  50.866  1.00  0.00     0.066 A 
HETATM    8  C   UNL     1      28.393  39.251  49.707  1.00  0.00     0.070 A 
HETATM    9  C   UNL     1      28.079  39.798  48.465  1.00  0.00     0.037 A 
HETATM   10  C   UNL     1      27.602  41.107  48.384  1.00  0.00     0.005 A 
HETATM   11  C   UNL     1      27.441  41.872  49.541  1.00  0.00     0.029 A 
BRANCH   8  12
HETATM   12  O   UNL     1      28.878  37.992  49.931  1.00  0.00    -0.356 OA
HETATM   13  C   UNL     1      30.152  37.891  50.557  1.00  0.00     0.210 C 
ENDBRANCH   8  12
ENDBRANCH   3   6
ENDBRANCH   1   2
BRANCH   1  14
HETATM   14  N   UNL     1      26.777  43.222  54.221  1.00  0.00    -0.054 N 
HETATM   15  H   UNL     1      26.579  42.431  53.582  1.00  0.00     0.278 HD
HETATM   16  H   UNL     1      27.025  42.747  55.096  1.00  0.00     0.278 HD
BRANCH  14  17
HETATM   17  C   UNL     1      25.556  44.032  54.414  1.00  0.00     0.272 C 
BRANCH  17  18
HETATM   18  C   UNL     1      25.489  45.082  53.344  1.00  0.00    -0.033 A 
HETATM   19  C   UNL     1      25.083  44.752  52.048  1.00  0.00     0.011 A 
HETATM   20  C   UNL     1      25.173  45.694  51.015  1.00  0.00     0.030 A 
HETATM   21  C   UNL     1      25.674  46.982  51.238  1.00  0.00     0.037 A 
HETATM   22  C   UNL     1      26.037  47.314  52.551  1.00  0.00     0.030 A 
HETATM   23  C   UNL     1      25.953  46.379  53.590  1.00  0.00     0.011 A 
BRANCH  21  24
HETATM   24  N   UNL     1      25.834  47.919  50.181  1.00  0.00    -0.318 N 
HETATM   25  C   UNL     1      24.807  48.649  49.559  1.00  0.00     0.224 C 
HETATM   26  O   UNL     1      23.614  48.672  49.822  1.00  0.00    -0.273 OA
HETATM   27  C   UNL     1      25.405  49.383  48.381  1.00  0.00     0.105 C 
HETATM   28  C   UNL     1      26.890  49.371  48.682  1.00  0.00     0.029 C 
HETATM   29  C   UNL     1      27.080  48.092  49.467  1.00  0.00     0.133 C 
ENDBRANCH  21  24
ENDBRANCH  17  18
ENDBRANCH  14  17
ENDBRANCH   1  14
BRANCH   1  30
HETATM   30  C   UNL     1      29.065  44.083  54.711  1.00  0.00    -0.019 A 
HETATM   31  C   UNL     1      29.123  45.273  55.454  1.00  0.00     0.010 A 
HETATM   32  C   UNL     1      30.089  45.440  56.448  1.00  0.00     0.001 A 
HETATM   33  C   UNL     1      31.002  44.423  56.713  1.00  0.00     0.000 A 
HETATM   34  C   UNL     1      30.954  43.236  55.987  1.00  0.00     0.001 A 
HETATM   35  C   UNL     1      29.992  43.062  54.992  1.00  0.00     0.010 A 
ENDBRANCH   1  30
TORSDOF 8
ENDMDL
MODEL 2
REMARK VINA RESULT:      -9.6      3.417      9.393
REMARK  8 active torsions:
REMARK  status: ('A' for Active; 'I' for Inactive)
REMARK    1  A    between atoms: O_2  and  C_3 
REMARK    2  A    between atoms: C_5  and  N_6 
REMARK       I    between atoms: N_6  and  C_7 
REMARK    3  A    between atoms: C_7  and  C_8 
REMARK    4  A    between atoms: C_8  and  N_9 
REMARK    5  A    between atoms: C_8  and  C_25 
REMARK    6  A    between atoms: N_9  and  C_12 
REMARK    7  A    between atoms: C_12  and  C_13 
REMARK    8  A    between atoms: C_16  and  N_17 
ROOT
HETATM    1  C   UNL     1      23.929  47.548  49.563  1.00  0.00     0.310 C 
ENDROOT
BRANCH   1   2
HETATM    2  C   UNL     1      22.678  48.194  48.914  1.00  0.00     0.257 C 
HETATM    3  N   UNL     1      21.941  49.040  49.713  1.00  0.00    -0.325 N 
HETATM    4  H   UNL     1      22.253  49.204  50.666  1.00  0.00     0.169 HD
HETATM    5  O   UNL     1      22.421  47.852  47.756  1.00  0.00    -0.270 OA
BRANCH   3   6
HETATM    6  C   UNL     1      20.783  49.762  49.339  1.00  0.00     0.037 A 
HETATM    7  C   UNL     1      19.498  49.217  49.301  1.00  0.00     0.066 A 
HETATM    8  C   UNL     1      18.397  49.985  48.898  1.00  0.00     0.070 A 
HETATM    9  C   UNL     1      18.582  51.319  48.545  1.00  0.00     0.037 A 
HETATM   10  C   UNL     1      19.862  51.876  48.584  1.00  0.00     0.005 A 
HETATM   11  C   UNL     1      20.957  51.101  48.972  1.00  0.00     0.029 A 
BRANCH   8  12
HETATM   12  O   UNL     1      17.207  49.311  48.895  1.00  0.00    -0.356 OA
HETATM   13  C   UNL     1      17.261  47.903  48.691  1.00  0.00     0.210 C 
ENDBRANCH   8  12
ENDBRANCH   3   6
ENDBRANCH   1   2
BRANCH   1  14
HETATM   14  N   UNL     1      24.010  46.121  49.071  1.00  0.00    -0.054 N 
HETATM   15  H   UNL     1      23.298  46.045  48.322  1.00  0.00     0.278 HD
HETATM   16  H   UNL     1      24.890  45.985  48.560  1.00  0.00     0.278 HD
BRANCH  14  17
HETATM   17  C   UNL     1      23.825  45.034  50.055  1.00  0.00     0.272 C 
BRANCH  17  18
HETATM   18  C   UNL     1      25.077  44.893  50.871  1.00  0.00    -0.033 A 
HETATM   19  C   UNL     1      26.248  44.393  50.297  1.00  0.00     0.011 A 
HETATM   20  C   UNL     1      27.366  44.114  51.094  1.00  0.00     0.030 A 
HETATM   21  C   UNL     1      27.348  44.316  52.480  1.00  0.00     0.037 A 
HETATM   22  C   UNL     1      26.182  44.859  53.037  1.00  0.00     0.030 A 
HETATM   23  C   UNL     1      25.059  45.139  52.249  1.00  0.00     0.011 A 
BRANCH  21  24
HETATM   24  N   UNL     1      28.454  43.968  53.303  1.00  0.00    -0.318 N 
HETATM   25  C   UNL     1      28.705  44.451  54.598  1.00  0.00     0.224 C 
HETATM   26  O   UNL     1      28.026  45.200  55.284  1.00  0.00    -0.273 OA
HETATM   27  C   UNL     1      30.069  43.956  55.022  1.00  0.00     0.105 C 
HETATM   28  C   UNL     1      30.333  42.808  54.070  1.00  0.00     0.029 C 
HETATM   29  C   UNL     1      29.584  43.208  52.818  1.00  0.00     0.133 C 
ENDBRANCH  21  24
ENDBRANCH  17  18
ENDBRANCH  14  17
ENDBRANCH   1  14
BRANCH   1  30
HETATM   30  C   UNL     1      25.216  48.291  49.297  1.00  0.00    -0.019 A 
HETATM   31  C   UNL     1      25.207  49.454  48.509  1.00  0.00     0.010 A 
HETATM   32  C   UNL     1      26.388  50.160  48.275  1.00  0.00     0.001 A 
HETATM   33  C   UNL     1      27.587  49.717  48.827  1.00  0.00     0.000 A 
HETATM   34  C   UNL     1      27.612  48.568  49.613  1.00  0.00     0.001 A 
HETATM   35  C   UNL     1      26.435  47.858  49.850  1.00  0.00     0.010 A 
ENDBRANCH   1  30
TORSDOF 8
ENDMDL
MODEL 3
REMARK VINA RESULT:      -9.5      2.001      6.858
REMARK  8 active torsions:
REMARK  status: ('A' for Active; 'I' for Inactive)
REMARK    1  A    between atoms: O_2  and  C_3 
REMARK    2  A    between atoms: C_5  and  N_6 
REMARK       I    between atoms: N_6  and  C_7 
REMARK    3  A    between atoms: C_7  and  C_8 
REMARK    4  A    between atoms: C_8  and  N_9 
REMARK    5  A    between atoms: C_8  and  C_25 
REMARK    6  A    between atoms: N_9  and  C_12 
REMARK    7  A    between atoms: C_12  and  C_13 
REMARK    8  A    between atoms: C_16  and  N_17 
ROOT
HETATM    1  C   UNL     1      25.552  46.956  50.735  1.00  0.00     0.310 C 
ENDROOT
BRANCH   1   2
HETATM    2  C   UNL     1      26.116  45.623  50.181  1.00  0.00     0.257 C 
HETATM    3  N   UNL     1      25.698  44.471  50.811  1.00  0.00    -0.325 N 
HETATM    4  H   UNL     1      25.044  44.550  51.585  1.00  0.00     0.169 HD
HETATM    5  O   UNL     1      26.934  45.712  49.260  1.00  0.00    -0.270 OA
BRANCH   3   6
HETATM    6  C   UNL     1      26.052  43.145  50.471  1.00  0.00     0.037 A 
HETATM    7  C   UNL     1      26.984  42.378  51.174  1.00  0.00     0.066 A 
HETATM    8  C   UNL     1      27.305  41.076  50.767  1.00  0.00     0.070 A 
HETATM    9  C   UNL     1      26.672  40.528  49.654  1.00  0.00     0.037 A 
HETATM   10  C   UNL     1      25.735  41.283  48.946  1.00  0.00     0.005 A 
HETATM   11  C   UNL     1      25.431  42.585  49.348  1.00  0.00     0.029 A 
BRANCH   8  12
HETATM   12  O   UNL     1      28.246  40.456  51.542  1.00  0.00    -0.356 OA
HETATM   13  C   UNL     1      28.896  41.249  52.529  1.00  0.00     0.210 C 
ENDBRANCH   8  12
ENDBRANCH   3   6
ENDBRANCH   1   2
BRANCH   1  14
HETATM   14  N   UNL     1      26.369  47.325  51.951  1.00  0.00    -0.054 N 
HETATM   15  H   UNL     1      27.247  46.781  51.871  1.00  0.00     0.278 HD
HETATM   16  H   UNL     1      26.697  48.294  51.861  1.00  0.00     0.278 HD
BRANCH  14  17
HETATM   17  C   UNL     1      25.766  47.118  53.284  1.00  0.00     0.272 C 
BRANCH  17  18
HETATM   18  C   UNL     1      26.794  46.519  54.199  1.00  0.00    -0.033 A 
HETATM   19  C   UNL     1      27.786  47.317  54.776  1.00  0.00     0.011 A 
HETATM   20  C   UNL     1      28.835  46.734  55.499  1.00  0.00     0.030 A 
HETATM   21  C   UNL     1      28.932  45.346  55.662  1.00  0.00     0.037 A 
HETATM   22  C   UNL     1      27.907  44.561  55.116  1.00  0.00     0.030 A 
HETATM   23  C   UNL     1      26.856  45.133  54.390  1.00  0.00     0.011 A 
BRANCH  21  24
HETATM   24  N   UNL     1      30.031  44.745  56.333  1.00  0.00    -0.318 N 
HETATM   25  C   UNL     1      30.827  43.696  55.842  1.00  0.00     0.224 C 
HETATM   26  O   UNL     1      30.778  43.139  54.756  1.00  0.00    -0.273 OA
HETATM   27  C   UNL     1      31.756  43.259  56.951  1.00  0.00     0.105 C 
HETATM   28  C   UNL     1      31.731  44.434  57.908  1.00  0.00     0.029 C 
HETATM   29  C   UNL     1      30.347  45.013  57.718  1.00  0.00     0.133 C 
ENDBRANCH  21  24
ENDBRANCH  17  18
ENDBRANCH  14  17
ENDBRANCH   1  14
BRANCH   1  30
HETATM   30  C   UNL     1      25.530  48.082  49.729  1.00  0.00    -0.019 A 
HETATM   31  C   UNL     1      26.728  48.708  49.348  1.00  0.00     0.010 A 
HETATM   32  C   UNL     1      26.720  49.735  48.404  1.00  0.00     0.001 A 
HETATM   33  C   UNL     1      25.522  50.145  47.827  1.00  0.00     0.000 A 
HETATM   34  C   UNL     1      24.326  49.532  48.191  1.00  0.00     0.001 A 
HETATM   35  C   UNL     1      24.326  48.505  49.135  1.00  0.00     0.010 A 
ENDBRANCH   1  30
TORSDOF 8
ENDMDL
MODEL 4
REMARK VINA RESULT:      -9.5      2.545      7.147
REMARK  8 active torsions:
REMARK  status: ('A' for Active; 'I' for Inactive)
REMARK    1  A    between atoms: O_2  and  C_3 
REMARK    2  A    between atoms: C_5  and  N_6 
REMARK       I    between atoms: N_6  and  C_7 
REMARK    3  A    between atoms: C_7  and  C_8 
REMARK    4  A    between atoms: C_8  and  N_9 
REMARK    5  A    between atoms: C_8  and  C_25 
REMARK    6  A    between atoms: N_9  and  C_12 
REMARK    7  A    between atoms: C_12  and  C_13 
REMARK    8  A    between atoms: C_16  and  N_17 
ROOT
HETATM    1  C   UNL     1      25.244  47.040  50.698  1.00  0.00     0.310 C 
ENDROOT
BRANCH   1   2
HETATM    2  C   UNL     1      25.710  45.662  50.164  1.00  0.00     0.257 C 
HETATM    3  N   UNL     1      25.093  44.555  50.704  1.00  0.00    -0.325 N 
HETATM    4  H   UNL     1      24.369  44.694  51.403  1.00  0.00     0.169 HD
HETATM    5  O   UNL     1      26.632  45.672  49.343  1.00  0.00    -0.270 OA
BRANCH   3   6
HETATM    6  C   UNL     1      25.328  43.203  50.360  1.00  0.00     0.037 A 
HETATM    7  C   UNL     1      24.656  42.527  49.339  1.00  0.00     0.066 A 
HETATM    8  C   UNL     1      24.923  41.178  49.066  1.00  0.00     0.070 A 
HETATM    9  C   UNL     1      25.887  40.504  49.811  1.00  0.00     0.037 A 
HETATM   10  C   UNL     1      26.568  41.171  50.831  1.00  0.00     0.005 A 
HETATM   11  C   UNL     1      26.286  42.510  51.108  1.00  0.00     0.029 A 
BRANCH   8  12
HETATM   12  O   UNL     1      24.176  40.647  48.051  1.00  0.00    -0.356 OA
HETATM   13  C   UNL     1      22.833  41.103  47.928  1.00  0.00     0.210 C 
ENDBRANCH   8  12
ENDBRANCH   3   6
ENDBRANCH   1   2
BRANCH   1  14
HETATM   14  N   UNL     1      26.143  47.406  51.857  1.00  0.00    -0.054 N 
HETATM   15  H   UNL     1      27.080  47.038  51.608  1.00  0.00     0.278 HD
HETATM   16  H   UNL     1      26.296  48.422  51.863  1.00  0.00     0.278 HD
BRANCH  14  17
HETATM   17  C   UNL     1      25.761  46.944  53.207  1.00  0.00     0.272 C 
BRANCH  17  18
HETATM   18  C   UNL     1      26.971  46.378  53.891  1.00  0.00    -0.033 A 
HETATM   19  C   UNL     1      27.227  45.005  53.864  1.00  0.00     0.011 A 
HETATM   20  C   UNL     1      28.265  44.461  54.633  1.00  0.00     0.030 A 
HETATM   21  C   UNL     1      29.068  45.262  55.454  1.00  0.00     0.037 A 
HETATM   22  C   UNL     1      28.829  46.643  55.438  1.00  0.00     0.030 A 
HETATM   23  C   UNL     1      27.794  47.196  54.674  1.00  0.00     0.011 A 
BRANCH  21  24
HETATM   24  N   UNL     1      30.075  44.708  56.290  1.00  0.00    -0.318 N 
HETATM   25  C   UNL     1      30.465  45.194  57.549  1.00  0.00     0.224 C 
HETATM   26  O   UNL     1      30.003  46.127  58.189  1.00  0.00    -0.273 OA
HETATM   27  C   UNL     1      31.678  44.410  57.994  1.00  0.00     0.105 C 
HETATM   28  C   UNL     1      31.635  43.175  57.118  1.00  0.00     0.029 C 
HETATM   29  C   UNL     1      30.977  43.667  55.848  1.00  0.00     0.133 C 
ENDBRANCH  21  24
ENDBRANCH  17  18
ENDBRANCH  14  17
ENDBRANCH   1  14
BRANCH   1  30
HETATM   30  C   UNL     1      25.226  48.132  49.655  1.00  0.00    -0.019 A 
HETATM   31  C   UNL     1      24.008  48.543  49.089  1.00  0.00     0.010 A 
HETATM   32  C   UNL     1      23.979  49.566  48.140  1.00  0.00     0.001 A 
HETATM   33  C   UNL     1      25.160  50.191  47.749  1.00  0.00     0.000 A 
HETATM   34  C   UNL     1      26.374  49.797  48.304  1.00  0.00     0.001 A 
HETATM   35  C   UNL     1      26.411  48.775  49.253  1.00  0.00     0.010 A 
ENDBRANCH   1  30
TORSDOF 8
ENDMDL
MODEL 5
REMARK VINA RESULT:      -9.2      1.829      2.417
REMARK  8 active torsions:
REMARK  status: ('A' for Active; 'I' for Inactive)
REMARK    1  A    between atoms: O_2  and  C_3 
REMARK    2  A    between atoms: C_5  and  N_6 
REMARK       I    between atoms: N_6  and  C_7 
REMARK    3  A    between atoms: C_7  and  C_8 
REMARK    4  A    between atoms: C_8  and  N_9 
REMARK    5  A    between atoms: C_8  and  C_25 
REMARK    6  A    between atoms: N_9  and  C_12 
REMARK    7  A    between atoms: C_12  and  C_13 
REMARK    8  A    between atoms: C_16  and  N_17 
ROOT
HETATM    1  C   UNL     1      28.616  44.791  54.351  1.00  0.00     0.310 C 
ENDROOT
BRANCH   1   2
HETATM    2  C   UNL     1      28.103  43.479  53.702  1.00  0.00     0.257 C 
HETATM    3  N   UNL     1      28.312  43.344  52.347  1.00  0.00    -0.325 N 
HETATM    4  H   UNL     1      28.792  44.089  51.852  1.00  0.00     0.169 HD
HETATM    5  O   UNL     1      27.503  42.696  54.445  1.00  0.00    -0.270 OA
BRANCH   3   6
HETATM    6  C   UNL     1      27.960  42.233  51.545  1.00  0.00     0.037 A 
HETATM    7  C   UNL     1      28.691  41.044  51.489  1.00  0.00     0.066 A 
HETATM    8  C   UNL     1      28.296  39.990  50.653  1.00  0.00     0.070 A 
HETATM    9  C   UNL     1      27.147  40.122  49.877  1.00  0.00     0.037 A 
HETATM   10  C   UNL     1      26.406  41.304  49.928  1.00  0.00     0.005 A 
HETATM   11  C   UNL     1      26.813  42.355  50.752  1.00  0.00     0.029 A 
BRANCH   8  12
HETATM   12  O   UNL     1      29.118  38.898  50.691  1.00  0.00    -0.356 OA
HETATM   13  C   UNL     1      29.098  38.032  49.562  1.00  0.00     0.210 C 
ENDBRANCH   8  12
ENDBRANCH   3   6
ENDBRANCH   1   2
BRANCH   1  14
HETATM   14  N   UNL     1      27.409  45.562  54.831  1.00  0.00    -0.054 N 
HETATM   15  H   UNL     1      26.612  44.904  54.759  1.00  0.00     0.278 HD
HETATM   16  H   UNL     1      27.482  45.717  55.843  1.00  0.00     0.278 HD
BRANCH  14  17
HETATM   17  C   UNL     1      27.077  46.831  54.149  1.00  0.00     0.272 C 
BRANCH  17  18
HETATM   18  C   UNL     1      26.162  46.543  52.995  1.00  0.00    -0.033 A 
HETATM   19  C   UNL     1      25.331  45.420  53.009  1.00  0.00     0.011 A 
HETATM   20  C   UNL     1      24.597  45.066  51.869  1.00  0.00     0.030 A 
HETATM   21  C   UNL     1      24.676  45.810  50.685  1.00  0.00     0.037 A 
HETATM   22  C   UNL     1      25.480  46.958  50.698  1.00  0.00     0.030 A 
HETATM   23  C   UNL     1      26.218  47.320  51.832  1.00  0.00     0.011 A 
BRANCH  21  24
HETATM   24  N   UNL     1      23.991  45.416  49.504  1.00  0.00    -0.318 N 
HETATM   25  C   UNL     1      23.060  46.189  48.790  1.00  0.00     0.224 C 
HETATM   26  O   UNL     1      22.698  47.338  48.996  1.00  0.00    -0.273 OA
HETATM   27  C   UNL     1      22.458  45.316  47.714  1.00  0.00     0.105 C 
HETATM   28  C   UNL     1      23.448  44.175  47.597  1.00  0.00     0.029 C 
HETATM   29  C   UNL     1      24.023  44.064  48.992  1.00  0.00     0.133 C 
ENDBRANCH  21  24
ENDBRANCH  17  18
ENDBRANCH  14  17
ENDBRANCH   1  14
BRANCH   1  30
HETATM   30  C   UNL     1      29.609  44.579  55.469  1.00  0.00    -0.019 A 
HETATM   31  C   UNL     1      29.641  45.466  56.557  1.00  0.00     0.010 A 
HETATM   32  C   UNL     1      30.541  45.267  57.605  1.00  0.00     0.001 A 
HETATM   33  C   UNL     1      31.413  44.182  57.582  1.00  0.00     0.000 A 
HETATM   34  C   UNL     1      31.389  43.292  56.511  1.00  0.00     0.001 A 
HETATM   35  C   UNL     1      30.494  43.485  55.460  1.00  0.00     0.010 A 
ENDBRANCH   1  30
TORSDOF 8
ENDMDL
MODEL 6
REMARK VINA RESULT:      -9.2      1.661      2.428
REMARK  8 active torsions:
REMARK  status: ('A' for Active; 'I' for Inactive)
REMARK    1  A    between atoms: O_2  and  C_3 
REMARK    2  A    between atoms: C_5  and  N_6 
REMARK       I    between atoms: N_6  and  C_7 
REMARK    3  A    between atoms: C_7  and  C_8 
REMARK    4  A    between atoms: C_8  and  N_9 
REMARK    5  A    between atoms: C_8  and  C_25 
REMARK    6  A    between atoms: N_9  and  C_12 
REMARK    7  A    between atoms: C_12  and  C_13 
REMARK    8  A    between atoms: C_16  and  N_17 
ROOT
HETATM    1  C   UNL     1      27.930  43.423  52.557  1.00  0.00     0.310 C 
ENDROOT
BRANCH   1   2
HETATM    2  C   UNL     1      27.820  41.901  52.285  1.00  0.00     0.257 C 
HETATM    3  N   UNL     1      28.082  41.488  50.997  1.00  0.00    -0.325 N 
HETATM    4  H   UNL     1      28.339  42.185  50.305  1.00  0.00     0.169 HD
HETATM    5  O   UNL     1      27.454  41.198  53.232  1.00  0.00    -0.270 OA
BRANCH   3   6
HETATM    6  C   UNL     1      28.072  40.157  50.518  1.00  0.00     0.037 A 
HETATM    7  C   UNL     1      29.078  39.223  50.777  1.00  0.00     0.066 A 
HETATM    8  C   UNL     1      29.015  37.926  50.250  1.00  0.00     0.070 A 
HETATM    9  C   UNL     1      27.923  37.553  49.470  1.00  0.00     0.037 A 
HETATM   10  C   UNL     1      26.909  38.476  49.208  1.00  0.00     0.005 A 
HETATM   11  C   UNL     1      26.985  39.772  49.724  1.00  0.00     0.029 A 
BRANCH   8  12
HETATM   12  O   UNL     1      30.079  37.130  50.574  1.00  0.00    -0.356 OA
HETATM   13  C   UNL     1      30.067  36.528  51.864  1.00  0.00     0.210 C 
ENDBRANCH   8  12
ENDBRANCH   3   6
ENDBRANCH   1   2
BRANCH   1  14
HETATM   14  N   UNL     1      26.527  43.955  52.733  1.00  0.00    -0.054 N 
HETATM   15  H   UNL     1      26.210  43.604  53.654  1.00  0.00     0.278 HD
HETATM   16  H   UNL     1      26.562  44.971  52.880  1.00  0.00     0.278 HD
BRANCH  14  17
HETATM   17  C   UNL     1      25.524  43.630  51.697  1.00  0.00     0.272 C 
BRANCH  17  18
HETATM   18  C   UNL     1      25.161  44.884  50.956  1.00  0.00    -0.033 A 
HETATM   19  C   UNL     1      25.570  46.134  51.428  1.00  0.00     0.011 A 
HETATM   20  C   UNL     1      25.099  47.308  50.826  1.00  0.00     0.030 A 
HETATM   21  C   UNL     1      24.205  47.274  49.749  1.00  0.00     0.037 A 
HETATM   22  C   UNL     1      23.837  46.013  49.258  1.00  0.00     0.030 A 
HETATM   23  C   UNL     1      24.301  44.834  49.853  1.00  0.00     0.011 A 
BRANCH  21  24
HETATM   24  N   UNL     1      23.669  48.461  49.181  1.00  0.00    -0.318 N 
HETATM   25  C   UNL     1      22.314  48.703  48.895  1.00  0.00     0.224 C 
HETATM   26  O   UNL     1      21.344  47.994  49.116  1.00  0.00    -0.273 OA
HETATM   27  C   UNL     1      22.224  50.011  48.143  1.00  0.00     0.105 C 
HETATM   28  C   UNL     1      23.551  50.678  48.445  1.00  0.00     0.029 C 
HETATM   29  C   UNL     1      24.497  49.512  48.633  1.00  0.00     0.133 C 
ENDBRANCH  21  24
ENDBRANCH  17  18
ENDBRANCH  14  17
ENDBRANCH   1  14
BRANCH   1  30
HETATM   30  C   UNL     1      28.801  43.778  53.738  1.00  0.00    -0.019 A 
HETATM   31  C   UNL     1      29.926  42.995  54.042  1.00  0.00     0.010 A 
HETATM   32  C   UNL     1      30.750  43.327  55.119  1.00  0.00     0.001 A 
HETATM   33  C   UNL     1      30.463  44.444  55.899  1.00  0.00     0.000 A 
HETATM   34  C   UNL     1      29.353  45.233  55.607  1.00  0.00     0.001 A 
HETATM   35  C   UNL     1      28.526  44.906  54.533  1.00  0.00     0.010 A 
ENDBRANCH   1  30
TORSDOF 8
ENDMDL
MODEL 7
REMARK VINA RESULT:      -9.0      1.531      2.335
REMARK  8 active torsions:
REMARK  status: ('A' for Active; 'I' for Inactive)
REMARK    1  A    between atoms: O_2  and  C_3 
REMARK    2  A    between atoms: C_5  and  N_6 
REMARK       I    between atoms: N_6  and  C_7 
REMARK    3  A    between atoms: C_7  and  C_8 
REMARK    4  A    between atoms: C_8  and  N_9 
REMARK    5  A    between atoms: C_8  and  C_25 
REMARK    6  A    between atoms: N_9  and  C_12 
REMARK    7  A    between atoms: C_12  and  C_13 
REMARK    8  A    between atoms: C_16  and  N_17 
ROOT
HETATM    1  C   UNL     1      27.894  43.345  53.093  1.00  0.00     0.310 C 
ENDROOT
BRANCH   1   2
HETATM    2  C   UNL     1      27.964  41.837  52.743  1.00  0.00     0.257 C 
HETATM    3  N   UNL     1      28.307  41.524  51.446  1.00  0.00    -0.325 N 
HETATM    4  H   UNL     1      28.504  42.282  50.799  1.00  0.00     0.169 HD
HETATM    5  O   UNL     1      27.652  41.049  53.641  1.00  0.00    -0.270 OA
BRANCH   3   6
HETATM    6  C   UNL     1      28.461  40.228  50.901  1.00  0.00     0.037 A 
HETATM    7  C   UNL     1      27.642  39.695  49.903  1.00  0.00     0.066 A 
HETATM    8  C   UNL     1      27.837  38.392  49.424  1.00  0.00     0.070 A 
HETATM    9  C   UNL     1      28.875  37.620  49.938  1.00  0.00     0.037 A 
HETATM   10  C   UNL     1      29.703  38.143  50.933  1.00  0.00     0.005 A 
HETATM   11  C   UNL     1      29.494  39.437  51.416  1.00  0.00     0.029 A 
BRANCH   8  12
HETATM   12  O   UNL     1      26.947  38.003  48.461  1.00  0.00    -0.356 OA
HETATM   13  C   UNL     1      26.441  36.676  48.546  1.00  0.00     0.210 C 
ENDBRANCH   8  12
ENDBRANCH   3   6
ENDBRANCH   1   2
BRANCH   1  14
HETATM   14  N   UNL     1      26.476  43.648  53.518  1.00  0.00    -0.054 N 
HETATM   15  H   UNL     1      26.299  43.047  54.344  1.00  0.00     0.278 HD
HETATM   16  H   UNL     1      26.432  44.594  53.916  1.00  0.00     0.278 HD
BRANCH  14  17
HETATM   17  C   UNL     1      25.397  43.468  52.524  1.00  0.00     0.272 C 
BRANCH  17  18
HETATM   18  C   UNL     1      25.312  44.696  51.666  1.00  0.00    -0.033 A 
HETATM   19  C   UNL     1      25.522  45.964  52.214  1.00  0.00     0.011 A 
HETATM   20  C   UNL     1      25.288  47.115  51.451  1.00  0.00     0.030 A 
HETATM   21  C   UNL     1      24.831  47.040  50.130  1.00  0.00     0.037 A 
HETATM   22  C   UNL     1      24.666  45.762  49.578  1.00  0.00     0.030 A 
HETATM   23  C   UNL     1      24.896  44.605  50.333  1.00  0.00     0.011 A 
BRANCH  21  24
HETATM   24  N   UNL     1      24.523  48.203  49.374  1.00  0.00    -0.318 N 
HETATM   25  C   UNL     1      25.451  49.105  48.828  1.00  0.00     0.224 C 
HETATM   26  O   UNL     1      26.672  49.052  48.840  1.00  0.00    -0.273 OA
HETATM   27  C   UNL     1      24.684  50.278  48.263  1.00  0.00     0.105 C 
HETATM   28  C   UNL     1      23.275  49.738  48.126  1.00  0.00     0.029 C 
HETATM   29  C   UNL     1      23.179  48.719  49.241  1.00  0.00     0.133 C 
ENDBRANCH  21  24
ENDBRANCH  17  18
ENDBRANCH  14  17
ENDBRANCH   1  14
BRANCH   1  30
HETATM   30  C   UNL     1      28.885  43.781  54.146  1.00  0.00    -0.019 A 
HETATM   31  C   UNL     1      28.649  44.948  54.892  1.00  0.00     0.010 A 
HETATM   32  C   UNL     1      29.549  45.347  55.883  1.00  0.00     0.001 A 
HETATM   33  C   UNL     1      30.686  44.587  56.141  1.00  0.00     0.000 A 
HETATM   34  C   UNL     1      30.930  43.426  55.413  1.00  0.00     0.001 A 
HETATM   35  C   UNL     1      30.037  43.022  54.421  1.00  0.00     0.010 A 
ENDBRANCH   1  30
TORSDOF 8
ENDMDL
MODEL 8
REMARK VINA RESULT:      -9.0      2.110      5.957
REMARK  8 active torsions:
REMARK  status: ('A' for Active; 'I' for Inactive)
REMARK    1  A    between atoms: O_2  and  C_3 
REMARK    2  A    between atoms: C_5  and  N_6 
REMARK       I    between atoms: N_6  and  C_7 
REMARK    3  A    between atoms: C_7  and  C_8 
REMARK    4  A    between atoms: C_8  and  N_9 
REMARK    5  A    between atoms: C_8  and  C_25 
REMARK    6  A    between atoms: N_9  and  C_12 
REMARK    7  A    between atoms: C_12  and  C_13 
REMARK    8  A    between atoms: C_16  and  N_17 
ROOT
HETATM    1  C   UNL     1      26.634  42.248  50.902  1.00  0.00     0.310 C 
ENDROOT
BRANCH   1   2
HETATM    2  C   UNL     1      27.524  43.196  51.746  1.00  0.00     0.257 C 
HETATM    3  N   UNL     1      27.720  42.841  53.063  1.00  0.00    -0.325 N 
HETATM    4  H   UNL     1      27.290  41.987  53.406  1.00  0.00     0.169 HD
HETATM    5  O   UNL     1      27.933  44.215  51.181  1.00  0.00    -0.270 OA
BRANCH   3   6
HETATM    6  C   UNL     1      28.510  43.529  54.015  1.00  0.00     0.037 A 
HETATM    7  C   UNL     1      28.162  44.758  54.579  1.00  0.00     0.066 A 
HETATM    8  C   UNL     1      29.004  45.395  55.501  1.00  0.00     0.070 A 
HETATM    9  C   UNL     1      30.198  44.785  55.878  1.00  0.00     0.037 A 
HETATM   10  C   UNL     1      30.553  43.554  55.324  1.00  0.00     0.005 A 
HETATM   11  C   UNL     1      29.717  42.932  54.394  1.00  0.00     0.029 A 
BRANCH   8  12
HETATM   12  O   UNL     1      28.540  46.600  55.953  1.00  0.00    -0.356 OA
HETATM   13  C   UNL     1      27.874  47.432  55.010  1.00  0.00     0.210 C 
ENDBRANCH   8  12
ENDBRANCH   3   6
ENDBRANCH   1   2
BRANCH   1  14
HETATM   14  N   UNL     1      25.739  43.111  50.043  1.00  0.00    -0.054 N 
HETATM   15  H   UNL     1      26.331  43.902  49.733  1.00  0.00     0.278 HD
HETATM   16  H   UNL     1      25.537  42.623  49.162  1.00  0.00     0.278 HD
BRANCH  14  17
HETATM   17  C   UNL     1      24.485  43.621  50.636  1.00  0.00     0.272 C 
BRANCH  17  18
HETATM   18  C   UNL     1      24.212  44.995  50.099  1.00  0.00    -0.033 A 
HETATM   19  C   UNL     1      24.797  46.119  50.687  1.00  0.00     0.011 A 
HETATM   20  C   UNL     1      24.419  47.408  50.287  1.00  0.00     0.030 A 
HETATM   21  C   UNL     1      23.446  47.614  49.301  1.00  0.00     0.037 A 
HETATM   22  C   UNL     1      22.899  46.478  48.688  1.00  0.00     0.030 A 
HETATM   23  C   UNL     1      23.269  45.186  49.082  1.00  0.00     0.011 A 
BRANCH  21  24
HETATM   24  N   UNL     1      23.007  48.917  48.941  1.00  0.00    -0.318 N 
HETATM   25  C   UNL     1      21.695  49.408  49.051  1.00  0.00     0.224 C 
HETATM   26  O   UNL     1      20.706  48.858  49.511  1.00  0.00    -0.273 OA
HETATM   27  C   UNL     1      21.652  50.769  48.394  1.00  0.00     0.105 C 
HETATM   28  C   UNL     1      23.110  51.174  48.337  1.00  0.00     0.029 C 
HETATM   29  C   UNL     1      23.838  49.853  48.217  1.00  0.00     0.133 C 
ENDBRANCH  21  24
ENDBRANCH  17  18
ENDBRANCH  14  17
ENDBRANCH   1  14
BRANCH   1  30
HETATM   30  C   UNL     1      27.408  41.259  50.064  1.00  0.00    -0.019 A 
HETATM   31  C   UNL     1      28.085  40.194  50.679  1.00  0.00     0.010 A 
HETATM   32  C   UNL     1      28.785  39.262  49.911  1.00  0.00     0.001 A 
HETATM   33  C   UNL     1      28.813  39.380  48.524  1.00  0.00     0.000 A 
HETATM   34  C   UNL     1      28.144  40.429  47.899  1.00  0.00     0.001 A 
HETATM   35  C   UNL     1      27.443  41.364  48.661  1.00  0.00     0.010 A 
ENDBRANCH   1  30
TORSDOF 8
ENDMDL
MODEL 9
REMARK VINA RESULT:      -8.9      3.132      6.370
REMARK  8 active torsions:
REMARK  status: ('A' for Active; 'I' for Inactive)
REMARK    1  A    between atoms: O_2  and  C_3 
REMARK    2  A    between atoms: C_5  and  N_6 
REMARK       I    between atoms: N_6  and  C_7 
REMARK    3  A    between atoms: C_7  and  C_8 
REMARK    4  A    between atoms: C_8  and  N_9 
REMARK    5  A    between atoms: C_8  and  C_25 
REMARK    6  A    between atoms: N_9  and  C_12 
REMARK    7  A    between atoms: C_12  and  C_13 
REMARK    8  A    between atoms: C_16  and  N_17 
ROOT
HETATM    1  C   UNL     1      27.151  43.556  52.182  1.00  0.00     0.310 C 
ENDROOT
BRANCH   1   2
HETATM    2  C   UNL     1      27.518  43.745  53.676  1.00  0.00     0.257 C 
HETATM    3  N   UNL     1      28.505  44.666  53.952  1.00  0.00    -0.325 N 
HETATM    4  H   UNL     1      28.928  45.173  53.180  1.00  0.00     0.169 HD
HETATM    5  O   UNL     1      26.934  43.016  54.483  1.00  0.00    -0.270 OA
BRANCH   3   6
HETATM    6  C   UNL     1      28.988  45.028  55.232  1.00  0.00     0.037 A 
HETATM    7  C   UNL     1      30.147  44.504  55.809  1.00  0.00     0.066 A 
HETATM    8  C   UNL     1      30.556  44.892  57.092  1.00  0.00     0.070 A 
HETATM    9  C   UNL     1      29.806  45.829  57.799  1.00  0.00     0.037 A 
HETATM   10  C   UNL     1      28.649  46.364  57.230  1.00  0.00     0.005 A 
HETATM   11  C   UNL     1      28.239  45.962  55.957  1.00  0.00     0.029 A 
BRANCH   8  12
HETATM   12  O   UNL     1      31.698  44.282  57.531  1.00  0.00    -0.356 OA
HETATM   13  C   UNL     1      31.935  42.952  57.082  1.00  0.00     0.210 C 
ENDBRANCH   8  12
ENDBRANCH   3   6
ENDBRANCH   1   2
BRANCH   1  14
HETATM   14  N   UNL     1      26.120  42.453  52.103  1.00  0.00    -0.054 N 
HETATM   15  H   UNL     1      26.414  41.749  52.804  1.00  0.00     0.278 HD
HETATM   16  H   UNL     1      25.229  42.791  52.485  1.00  0.00     0.278 HD
BRANCH  14  17
HETATM   17  C   UNL     1      25.896  41.802  50.796  1.00  0.00     0.272 C 
BRANCH  17  18
HETATM   18  C   UNL     1      24.825  42.547  50.055  1.00  0.00    -0.033 A 
HETATM   19  C   UNL     1      25.029  42.962  48.736  1.00  0.00     0.011 A 
HETATM   20  C   UNL     1      24.095  43.791  48.101  1.00  0.00     0.030 A 
HETATM   21  C   UNL     1      22.942  44.236  48.758  1.00  0.00     0.037 A 
HETATM   22  C   UNL     1      22.728  43.777  50.065  1.00  0.00     0.030 A 
HETATM   23  C   UNL     1      23.655  42.949  50.710  1.00  0.00     0.011 A 
BRANCH  21  24
HETATM   24  N   UNL     1      22.027  45.135  48.144  1.00  0.00    -0.318 N 
HETATM   25  C   UNL     1      20.861  44.780  47.445  1.00  0.00     0.224 C 
HETATM   26  O   UNL     1      20.378  43.671  47.271  1.00  0.00    -0.273 OA
HETATM   27  C   UNL     1      20.296  46.032  46.817  1.00  0.00     0.105 C 
HETATM   28  C   UNL     1      20.965  47.145  47.598  1.00  0.00     0.029 C 
HETATM   29  C   UNL     1      22.297  46.547  47.992  1.00  0.00     0.133 C 
ENDBRANCH  21  24
ENDBRANCH  17  18
ENDBRANCH  14  17
ENDBRANCH   1  14
BRANCH   1  30
HETATM   30  C   UNL     1      26.660  44.812  51.503  1.00  0.00    -0.019 A 
HETATM   31  C   UNL     1      25.656  45.589  52.104  1.00  0.00     0.010 A 
HETATM   32  C   UNL     1      25.211  46.764  51.494  1.00  0.00     0.001 A 
HETATM   33  C   UNL     1      25.763  47.176  50.285  1.00  0.00     0.000 A 
HETATM   34  C   UNL     1      26.761  46.418  49.679  1.00  0.00     0.001 A 
HETATM   35  C   UNL     1      27.211  45.243  50.282  1.00  0.00     0.010 A 
ENDBRANCH   1  30
TORSDOF 8
ENDMDL
MODEL 10
REMARK VINA RESULT:      -8.7      2.105      7.572
REMARK  8 active torsions:
REMARK  status: ('A' for Active; 'I' for Inactive)
REMARK    1  A    between atoms: O_2  and  C_3 
REMARK    2  A    between atoms: C_5  and  N_6 
REMARK       I    between atoms: N_6  and  C_7 
REMARK    3  A    between atoms: C_7  and  C_8 
REMARK    4  A    between atoms: C_8  and  N_9 
REMARK    5  A    between atoms: C_8  and  C_25 
REMARK    6  A    between atoms: N_9  and  C_12 
REMARK    7  A    between atoms: C_12  and  C_13 
REMARK    8  A    between atoms: C_16  and  N_17 
ROOT
HETATM    1  C   UNL     1      26.043  45.447  52.785  1.00  0.00     0.310 C 
ENDROOT
BRANCH   1   2
HETATM    2  C   UNL     1      25.759  46.766  52.022  1.00  0.00     0.257 C 
HETATM    3  N   UNL     1      26.234  46.841  50.731  1.00  0.00    -0.325 N 
HETATM    4  H   UNL     1      26.728  46.040  50.347  1.00  0.00     0.169 HD
HETATM    5  O   UNL     1      25.181  47.655  52.655  1.00  0.00    -0.270 OA
BRANCH   3   6
HETATM    6  C   UNL     1      26.077  47.923  49.833  1.00  0.00     0.037 A 
HETATM    7  C   UNL     1      24.864  48.276  49.237  1.00  0.00     0.066 A 
HETATM    8  C   UNL     1      24.784  49.348  48.337  1.00  0.00     0.070 A 
HETATM    9  C   UNL     1      25.928  50.087  48.046  1.00  0.00     0.037 A 
HETATM   10  C   UNL     1      27.145  49.747  48.640  1.00  0.00     0.005 A 
HETATM   11  C   UNL     1      27.220  48.668  49.524  1.00  0.00     0.029 A 
BRANCH   8  12
HETATM   12  O   UNL     1      23.536  49.563  47.821  1.00  0.00    -0.356 OA
HETATM   13  C   UNL     1      22.526  48.618  48.157  1.00  0.00     0.210 C 
ENDBRANCH   8  12
ENDBRANCH   3   6
ENDBRANCH   1   2
BRANCH   1  14
HETATM   14  N   UNL     1      26.283  44.368  51.755  1.00  0.00    -0.054 N 
HETATM   15  H   UNL     1      26.549  44.868  50.887  1.00  0.00     0.278 HD
HETATM   16  H   UNL     1      27.142  43.856  51.990  1.00  0.00     0.278 HD
BRANCH  14  17
HETATM   17  C   UNL     1      25.188  43.417  51.474  1.00  0.00     0.272 C 
BRANCH  17  18
HETATM   18  C   UNL     1      25.731  42.266  50.677  1.00  0.00    -0.033 A 
HETATM   19  C   UNL     1      27.056  41.854  50.835  1.00  0.00     0.011 A 
HETATM   20  C   UNL     1      27.606  40.888  49.981  1.00  0.00     0.030 A 
HETATM   21  C   UNL     1      26.858  40.314  48.946  1.00  0.00     0.037 A 
HETATM   22  C   UNL     1      25.517  40.704  48.826  1.00  0.00     0.030 A 
HETATM   23  C   UNL     1      24.960  41.670  49.673  1.00  0.00     0.011 A 
BRANCH  21  24
HETATM   24  N   UNL     1      27.430  39.387  48.032  1.00  0.00    -0.318 N 
HETATM   25  C   UNL     1      27.860  39.671  46.725  1.00  0.00     0.224 C 
HETATM   26  O   UNL     1      27.883  40.744  46.140  1.00  0.00    -0.273 OA
HETATM   27  C   UNL     1      28.232  38.364  46.063  1.00  0.00     0.105 C 
HETATM   28  C   UNL     1      28.414  37.421  47.235  1.00  0.00     0.029 C 
HETATM   29  C   UNL     1      27.457  37.962  48.274  1.00  0.00     0.133 C 
ENDBRANCH  21  24
ENDBRANCH  17  18
ENDBRANCH  14  17
ENDBRANCH   1  14
BRANCH   1  30
HETATM   30  C   UNL     1      27.190  45.535  53.763  1.00  0.00    -0.019 A 
HETATM   31  C   UNL     1      27.363  46.691  54.542  1.00  0.00     0.010 A 
HETATM   32  C   UNL     1      28.408  46.772  55.464  1.00  0.00     0.001 A 
HETATM   33  C   UNL     1      29.286  45.703  55.621  1.00  0.00     0.000 A 
HETATM   34  C   UNL     1      29.125  44.549  54.859  1.00  0.00     0.001 A 
HETATM   35  C   UNL     1      28.083  44.461  53.936  1.00  0.00     0.010 A 
ENDBRANCH   1  30
TORSDOF 8
ENDMDL
