MODEL 1
REMARK VINA RESULT:      -8.3      0.000      0.000
REMARK  5 active torsions:
REMARK  status: ('A' for Active; 'I' for Inactive)
REMARK    1  A    between atoms: O_2  and  C_3 
REMARK    2  A    between atoms: C_4  and  N_5 
REMARK       I    between atoms: N_5  and  C_6 
REMARK    3  A    between atoms: C_6  and  C_7 
REMARK    4  A    between atoms: C_8  and  S_9 
REMARK    5  A    between atoms: S_9  and  C_10 
ROOT
HETATM    1  C   UNL     1      25.369  44.520  49.650  1.00  0.00     0.068 A 
HETATM    2  C   UNL     1      24.434  45.535  49.828  1.00  0.00     0.113 A 
HETATM    3  N   UNL     1      23.243  45.530  49.171  1.00  0.00    -0.253 NA
HETATM    4  C   UNL     1      22.984  44.492  48.344  1.00  0.00     0.118 A 
HETATM    5  C   UNL     1      23.859  43.442  48.124  1.00  0.00     0.020 A 
HETATM    6  C   UNL     1      25.078  43.456  48.791  1.00  0.00     0.021 A 
ENDROOT
BRANCH   1   7
HETATM    7  C   UNL     1      26.671  44.521  50.332  1.00  0.00     0.259 C 
HETATM    8  N   UNL     1      26.615  44.030  51.616  1.00  0.00    -0.320 N 
HETATM    9  H   UNL     1      25.719  43.708  51.974  1.00  0.00     0.169 HD
HETATM   10  O   UNL     1      27.632  45.001  49.748  1.00  0.00    -0.267 OA
BRANCH   8  11
HETATM   11  C   UNL     1      27.677  43.905  52.537  1.00  0.00     0.071 A 
HETATM   12  C   UNL     1      27.579  44.649  53.728  1.00  0.00     0.095 A 
HETATM   13  C   UNL     1      28.556  44.557  54.722  1.00  0.00     0.042 A 
HETATM   14  C   UNL     1      29.667  43.743  54.511  1.00  0.00     0.045 A 
HETATM   15  C   UNL     1      29.777  43.029  53.321  1.00  0.00     0.118 A 
HETATM   16  C   UNL     1      28.795  43.099  52.335  1.00  0.00     0.074 A 
HETATM   17  F   UNL     1      30.850  42.249  53.129  1.00  0.00    -0.206 F 
BRANCH  12  18
HETATM   18  O   UNL     1      26.469  45.438  53.916  1.00  0.00    -0.354 OA
HETATM   19  C   UNL     1      26.823  46.655  54.579  1.00  0.00     0.210 C 
ENDBRANCH  12  18
ENDBRANCH   8  11
ENDBRANCH   1   7
BRANCH   2  20
HETATM   20  S   UNL     1      24.695  46.916  50.926  1.00  0.00    -0.070 SA
BRANCH  20  21
HETATM   21  C   UNL     1      25.353  48.120  49.789  1.00  0.00     0.007 A 
HETATM   22  C   UNL     1      24.508  48.918  49.013  1.00  0.00     0.019 A 
HETATM   23  C   UNL     1      25.039  49.869  48.140  1.00  0.00     0.001 A 
HETATM   24  C   UNL     1      26.420  50.031  48.043  1.00  0.00     0.000 A 
HETATM   25  C   UNL     1      27.270  49.244  48.819  1.00  0.00     0.001 A 
HETATM   26  C   UNL     1      26.737  48.295  49.695  1.00  0.00     0.019 A 
ENDBRANCH  20  21
ENDBRANCH   2  20
TORSDOF 5
ENDMDL
MODEL 2
REMARK VINA RESULT:      -8.1      1.398      2.146
REMARK  5 active torsions:
REMARK  status: ('A' for Active; 'I' for Inactive)
REMARK    1  A    between atoms: O_2  and  C_3 
REMARK    2  A    between atoms: C_4  and  N_5 
REMARK       I    between atoms: N_5  and  C_6 
REMARK    3  A    between atoms: C_6  and  C_7 
REMARK    4  A    between atoms: C_8  and  S_9 
REMARK    5  A    between atoms: S_9  and  C_10 
ROOT
HETATM    1  C   UNL     1      25.209  44.425  49.570  1.00  0.00     0.068 A 
HETATM    2  C   UNL     1      24.376  45.525  49.747  1.00  0.00     0.113 A 
HETATM    3  N   UNL     1      23.217  45.663  49.047  1.00  0.00    -0.253 NA
HETATM    4  C   UNL     1      22.888  44.681  48.177  1.00  0.00     0.118 A 
HETATM    5  C   UNL     1      23.660  43.553  47.955  1.00  0.00     0.020 A 
HETATM    6  C   UNL     1      24.845  43.422  48.668  1.00  0.00     0.021 A 
ENDROOT
BRANCH   1   7
HETATM    7  C   UNL     1      26.475  44.272  50.300  1.00  0.00     0.259 C 
HETATM    8  N   UNL     1      26.331  43.660  51.524  1.00  0.00    -0.320 N 
HETATM    9  H   UNL     1      25.400  43.365  51.811  1.00  0.00     0.169 HD
HETATM   10  O   UNL     1      27.491  44.743  49.807  1.00  0.00    -0.267 OA
BRANCH   8  11
HETATM   11  C   UNL     1      27.338  43.375  52.469  1.00  0.00     0.071 A 
HETATM   12  C   UNL     1      27.773  42.039  52.556  1.00  0.00     0.095 A 
HETATM   13  C   UNL     1      28.799  41.667  53.427  1.00  0.00     0.042 A 
HETATM   14  C   UNL     1      29.375  42.630  54.253  1.00  0.00     0.045 A 
HETATM   15  C   UNL     1      28.925  43.945  54.188  1.00  0.00     0.118 A 
HETATM   16  C   UNL     1      27.917  44.329  53.304  1.00  0.00     0.074 A 
HETATM   17  F   UNL     1      29.486  44.864  54.986  1.00  0.00    -0.206 F 
BRANCH  12  18
HETATM   18  O   UNL     1      27.196  41.110  51.723  1.00  0.00    -0.354 OA
HETATM   19  C   UNL     1      28.141  40.644  50.757  1.00  0.00     0.210 C 
ENDBRANCH  12  18
ENDBRANCH   8  11
ENDBRANCH   1   7
BRANCH   2  20
HETATM   20  S   UNL     1      24.731  46.840  50.899  1.00  0.00    -0.070 SA
BRANCH  20  21
HETATM   21  C   UNL     1      25.403  48.069  49.797  1.00  0.00     0.007 A 
HETATM   22  C   UNL     1      24.567  48.898  49.043  1.00  0.00     0.019 A 
HETATM   23  C   UNL     1      25.109  49.868  48.197  1.00  0.00     0.001 A 
HETATM   24  C   UNL     1      26.491  50.018  48.106  1.00  0.00     0.000 A 
HETATM   25  C   UNL     1      27.332  49.201  48.860  1.00  0.00     0.001 A 
HETATM   26  C   UNL     1      26.789  48.232  49.708  1.00  0.00     0.019 A 
ENDBRANCH  20  21
ENDBRANCH   2  20
TORSDOF 5
ENDMDL
MODEL 3
REMARK VINA RESULT:      -8.1      2.027      2.699
REMARK  5 active torsions:
REMARK  status: ('A' for Active; 'I' for Inactive)
REMARK    1  A    between atoms: O_2  and  C_3 
REMARK    2  A    between atoms: C_4  and  N_5 
REMARK       I    between atoms: N_5  and  C_6 
REMARK    3  A    between atoms: C_6  and  C_7 
REMARK    4  A    between atoms: C_8  and  S_9 
REMARK    5  A    between atoms: S_9  and  C_10 
ROOT
HETATM    1  C   UNL     1      26.840  43.503  51.856  1.00  0.00     0.068 A 
HETATM    2  C   UNL     1      25.997  44.432  51.256  1.00  0.00     0.113 A 
HETATM    3  N   UNL     1      25.603  44.305  49.959  1.00  0.00    -0.253 NA
HETATM    4  C   UNL     1      26.048  43.230  49.269  1.00  0.00     0.118 A 
HETATM    5  C   UNL     1      26.880  42.260  49.801  1.00  0.00     0.020 A 
HETATM    6  C   UNL     1      27.284  42.399  51.123  1.00  0.00     0.021 A 
ENDROOT
BRANCH   1   7
HETATM    7  C   UNL     1      27.295  43.637  53.247  1.00  0.00     0.259 C 
HETATM    8  N   UNL     1      28.575  44.130  53.359  1.00  0.00    -0.320 N 
HETATM    9  H   UNL     1      29.081  44.363  52.507  1.00  0.00     0.169 HD
HETATM   10  O   UNL     1      26.554  43.251  54.140  1.00  0.00    -0.267 OA
BRANCH   8  11
HETATM   11  C   UNL     1      29.306  44.366  54.541  1.00  0.00     0.071 A 
HETATM   12  C   UNL     1      29.033  45.561  55.234  1.00  0.00     0.095 A 
HETATM   13  C   UNL     1      29.672  45.862  56.439  1.00  0.00     0.042 A 
HETATM   14  C   UNL     1      30.625  44.981  56.943  1.00  0.00     0.045 A 
HETATM   15  C   UNL     1      30.916  43.813  56.244  1.00  0.00     0.118 A 
HETATM   16  C   UNL     1      30.267  43.495  55.052  1.00  0.00     0.074 A 
HETATM   17  F   UNL     1      31.835  42.972  56.738  1.00  0.00    -0.206 F 
BRANCH  12  18
HETATM   18  O   UNL     1      28.081  46.410  54.720  1.00  0.00    -0.354 OA
HETATM   19  C   UNL     1      27.581  47.280  55.738  1.00  0.00     0.210 C 
ENDBRANCH  12  18
ENDBRANCH   8  11
ENDBRANCH   1   7
BRANCH   2  20
HETATM   20  S   UNL     1      25.347  45.854  52.114  1.00  0.00    -0.070 SA
BRANCH  20  21
HETATM   21  C   UNL     1      25.424  47.080  50.822  1.00  0.00     0.007 A 
HETATM   22  C   UNL     1      24.265  47.523  50.176  1.00  0.00     0.019 A 
HETATM   23  C   UNL     1      24.341  48.496  49.179  1.00  0.00     0.001 A 
HETATM   24  C   UNL     1      25.575  49.038  48.825  1.00  0.00     0.000 A 
HETATM   25  C   UNL     1      26.735  48.607  49.470  1.00  0.00     0.001 A 
HETATM   26  C   UNL     1      26.658  47.635  50.470  1.00  0.00     0.019 A 
ENDBRANCH  20  21
ENDBRANCH   2  20
TORSDOF 5
ENDMDL
MODEL 4
REMARK VINA RESULT:      -7.8      2.959      4.438
REMARK  5 active torsions:
REMARK  status: ('A' for Active; 'I' for Inactive)
REMARK    1  A    between atoms: O_2  and  C_3 
REMARK    2  A    between atoms: C_4  and  N_5 
REMARK       I    between atoms: N_5  and  C_6 
REMARK    3  A    between atoms: C_6  and  C_7 
REMARK    4  A    between atoms: C_8  and  S_9 
REMARK    5  A    between atoms: S_9  and  C_10 
ROOT
HETATM    1  C   UNL     1      27.921  42.165  52.061  1.00  0.00     0.068 A 
HETATM    2  C   UNL     1      27.283  42.931  51.091  1.00  0.00     0.113 A 
HETATM    3  N   UNL     1      27.134  42.484  49.814  1.00  0.00    -0.253 NA
HETATM    4  C   UNL     1      27.614  41.256  49.516  1.00  0.00     0.118 A 
HETATM    5  C   UNL     1      28.250  40.433  50.430  1.00  0.00     0.020 A 
HETATM    6  C   UNL     1      28.406  40.897  51.730  1.00  0.00     0.021 A 
ENDROOT
BRANCH   1   7
HETATM    7  C   UNL     1      28.113  42.640  53.438  1.00  0.00     0.259 C 
HETATM    8  N   UNL     1      29.302  43.308  53.625  1.00  0.00    -0.320 N 
HETATM    9  H   UNL     1      29.924  43.424  52.828  1.00  0.00     0.169 HD
HETATM   10  O   UNL     1      27.269  42.354  54.275  1.00  0.00    -0.267 OA
BRANCH   8  11
HETATM   11  C   UNL     1      29.792  43.876  54.820  1.00  0.00     0.071 A 
HETATM   12  C   UNL     1      29.223  45.097  55.227  1.00  0.00     0.095 A 
HETATM   13  C   UNL     1      29.609  45.714  56.419  1.00  0.00     0.042 A 
HETATM   14  C   UNL     1      30.603  45.128  57.199  1.00  0.00     0.045 A 
HETATM   15  C   UNL     1      31.185  43.934  56.783  1.00  0.00     0.118 A 
HETATM   16  C   UNL     1      30.790  43.301  55.605  1.00  0.00     0.074 A 
HETATM   17  F   UNL     1      32.141  43.378  57.541  1.00  0.00    -0.206 F 
BRANCH  12  18
HETATM   18  O   UNL     1      28.238  45.651  54.444  1.00  0.00    -0.354 OA
HETATM   19  C   UNL     1      27.867  46.940  54.939  1.00  0.00     0.210 C 
ENDBRANCH  12  18
ENDBRANCH   8  11
ENDBRANCH   1   7
BRANCH   2  20
HETATM   20  S   UNL     1      26.598  44.544  51.420  1.00  0.00    -0.070 SA
BRANCH  20  21
HETATM   21  C   UNL     1      25.054  44.432  50.536  1.00  0.00     0.007 A 
HETATM   22  C   UNL     1      24.125  43.428  50.830  1.00  0.00     0.019 A 
HETATM   23  C   UNL     1      22.913  43.365  50.142  1.00  0.00     0.001 A 
HETATM   24  C   UNL     1      22.620  44.307  49.158  1.00  0.00     0.000 A 
HETATM   25  C   UNL     1      23.537  45.315  48.864  1.00  0.00     0.001 A 
HETATM   26  C   UNL     1      24.749  45.380  49.556  1.00  0.00     0.019 A 
ENDBRANCH  20  21
ENDBRANCH   2  20
TORSDOF 5
ENDMDL
MODEL 5
REMARK VINA RESULT:      -7.7     11.060     12.179
REMARK  5 active torsions:
REMARK  status: ('A' for Active; 'I' for Inactive)
REMARK    1  A    between atoms: O_2  and  C_3 
REMARK    2  A    between atoms: C_4  and  N_5 
REMARK       I    between atoms: N_5  and  C_6 
REMARK    3  A    between atoms: C_6  and  C_7 
REMARK    4  A    between atoms: C_8  and  S_9 
REMARK    5  A    between atoms: S_9  and  C_10 
ROOT
HETATM    1  C   UNL     1      30.007  48.242  40.522  1.00  0.00     0.068 A 
HETATM    2  C   UNL     1      28.731  48.614  40.113  1.00  0.00     0.113 A 
HETATM    3  N   UNL     1      28.159  48.091  38.995  1.00  0.00    -0.253 NA
HETATM    4  C   UNL     1      28.868  47.176  38.295  1.00  0.00     0.118 A 
HETATM    5  C   UNL     1      30.137  46.748  38.645  1.00  0.00     0.020 A 
HETATM    6  C   UNL     1      30.719  47.292  39.784  1.00  0.00     0.021 A 
ENDROOT
BRANCH   1   7
HETATM    7  C   UNL     1      30.650  48.814  41.713  1.00  0.00     0.259 C 
HETATM    8  N   UNL     1      31.579  49.787  41.418  1.00  0.00    -0.320 N 
HETATM    9  H   UNL     1      31.733  50.030  40.442  1.00  0.00     0.169 HD
HETATM   10  O   UNL     1      30.366  48.350  42.807  1.00  0.00    -0.267 OA
BRANCH   8  11
HETATM   11  C   UNL     1      32.374  50.521  42.323  1.00  0.00     0.071 A 
HETATM   12  C   UNL     1      33.747  50.624  42.029  1.00  0.00     0.095 A 
HETATM   13  C   UNL     1      34.607  51.368  42.840  1.00  0.00     0.042 A 
HETATM   14  C   UNL     1      34.102  51.988  43.981  1.00  0.00     0.045 A 
HETATM   15  C   UNL     1      32.750  51.862  44.287  1.00  0.00     0.118 A 
HETATM   16  C   UNL     1      31.881  51.139  43.471  1.00  0.00     0.074 A 
HETATM   17  F   UNL     1      32.274  52.462  45.387  1.00  0.00    -0.206 F 
BRANCH  12  18
HETATM   18  O   UNL     1      34.218  50.011  40.893  1.00  0.00    -0.354 OA
HETATM   19  C   UNL     1      35.625  50.226  40.752  1.00  0.00     0.210 C 
ENDBRANCH  12  18
ENDBRANCH   8  11
ENDBRANCH   1   7
BRANCH   2  20
HETATM   20  S   UNL     1      27.728  49.789  41.004  1.00  0.00    -0.070 SA
BRANCH  20  21
HETATM   21  C   UNL     1      28.306  51.319  40.294  1.00  0.00     0.007 A 
HETATM   22  C   UNL     1      28.939  52.286  41.081  1.00  0.00     0.019 A 
HETATM   23  C   UNL     1      29.402  53.471  40.507  1.00  0.00     0.001 A 
HETATM   24  C   UNL     1      29.240  53.694  39.141  1.00  0.00     0.000 A 
HETATM   25  C   UNL     1      28.616  52.731  38.348  1.00  0.00     0.001 A 
HETATM   26  C   UNL     1      28.155  51.544  38.923  1.00  0.00     0.019 A 
ENDBRANCH  20  21
ENDBRANCH   2  20
TORSDOF 5
ENDMDL
MODEL 6
REMARK VINA RESULT:      -7.6     17.531     19.188
REMARK  5 active torsions:
REMARK  status: ('A' for Active; 'I' for Inactive)
REMARK    1  A    between atoms: O_2  and  C_3 
REMARK    2  A    between atoms: C_4  and  N_5 
REMARK       I    between atoms: N_5  and  C_6 
REMARK    3  A    between atoms: C_6  and  C_7 
REMARK    4  A    between atoms: C_8  and  S_9 
REMARK    5  A    between atoms: S_9  and  C_10 
ROOT
HETATM    1  C   UNL     1      36.452  44.383  64.755  1.00  0.00     0.068 A 
HETATM    2  C   UNL     1      37.147  43.264  64.311  1.00  0.00     0.113 A 
HETATM    3  N   UNL     1      36.743  42.002  64.623  1.00  0.00    -0.253 NA
HETATM    4  C   UNL     1      35.626  41.866  65.372  1.00  0.00     0.118 A 
HETATM    5  C   UNL     1      34.876  42.931  65.841  1.00  0.00     0.020 A 
HETATM    6  C   UNL     1      35.297  44.217  65.526  1.00  0.00     0.021 A 
ENDROOT
BRANCH   1   7
HETATM    7  C   UNL     1      36.887  45.752  64.449  1.00  0.00     0.259 C 
HETATM    8  N   UNL     1      37.555  46.359  65.488  1.00  0.00    -0.320 N 
HETATM    9  H   UNL     1      37.698  45.832  66.346  1.00  0.00     0.169 HD
HETATM   10  O   UNL     1      36.571  46.235  63.371  1.00  0.00    -0.267 OA
BRANCH   8  11
HETATM   11  C   UNL     1      38.089  47.664  65.523  1.00  0.00     0.071 A 
HETATM   12  C   UNL     1      39.434  47.815  65.133  1.00  0.00     0.095 A 
HETATM   13  C   UNL     1      40.039  49.072  65.090  1.00  0.00     0.042 A 
HETATM   14  C   UNL     1      39.308  50.194  65.477  1.00  0.00     0.045 A 
HETATM   15  C   UNL     1      37.988  50.042  65.888  1.00  0.00     0.118 A 
HETATM   16  C   UNL     1      37.370  48.792  65.913  1.00  0.00     0.074 A 
HETATM   17  F   UNL     1      37.293  51.127  66.258  1.00  0.00    -0.206 F 
BRANCH  12  18
HETATM   18  O   UNL     1      40.131  46.694  64.748  1.00  0.00    -0.354 OA
HETATM   19  C   UNL     1      41.539  46.909  64.872  1.00  0.00     0.210 C 
ENDBRANCH  12  18
ENDBRANCH   8  11
ENDBRANCH   1   7
BRANCH   2  20
HETATM   20  S   UNL     1      38.609  43.366  63.294  1.00  0.00    -0.070 SA
BRANCH  20  21
HETATM   21  C   UNL     1      39.276  41.728  63.511  1.00  0.00     0.007 A 
HETATM   22  C   UNL     1      39.071  40.731  62.552  1.00  0.00     0.019 A 
HETATM   23  C   UNL     1      39.615  39.458  62.728  1.00  0.00     0.001 A 
HETATM   24  C   UNL     1      40.373  39.175  63.863  1.00  0.00     0.000 A 
HETATM   25  C   UNL     1      40.589  40.165  64.821  1.00  0.00     0.001 A 
HETATM   26  C   UNL     1      40.046  41.440  64.642  1.00  0.00     0.019 A 
ENDBRANCH  20  21
ENDBRANCH   2  20
TORSDOF 5
ENDMDL
MODEL 7
REMARK VINA RESULT:      -7.3      2.702      4.711
REMARK  5 active torsions:
REMARK  status: ('A' for Active; 'I' for Inactive)
REMARK    1  A    between atoms: O_2  and  C_3 
REMARK    2  A    between atoms: C_4  and  N_5 
REMARK       I    between atoms: N_5  and  C_6 
REMARK    3  A    between atoms: C_6  and  C_7 
REMARK    4  A    between atoms: C_8  and  S_9 
REMARK    5  A    between atoms: S_9  and  C_10 
ROOT
HETATM    1  C   UNL     1      25.711  48.207  49.462  1.00  0.00     0.068 A 
HETATM    2  C   UNL     1      24.546  48.613  48.820  1.00  0.00     0.113 A 
HETATM    3  N   UNL     1      24.524  49.698  47.999  1.00  0.00    -0.253 NA
HETATM    4  C   UNL     1      25.683  50.368  47.810  1.00  0.00     0.118 A 
HETATM    5  C   UNL     1      26.884  50.018  48.405  1.00  0.00     0.020 A 
HETATM    6  C   UNL     1      26.898  48.913  49.248  1.00  0.00     0.021 A 
ENDROOT
BRANCH   1   7
HETATM    7  C   UNL     1      25.748  47.053  50.370  1.00  0.00     0.259 C 
HETATM    8  N   UNL     1      26.205  45.900  49.772  1.00  0.00    -0.320 N 
HETATM    9  H   UNL     1      26.480  45.939  48.793  1.00  0.00     0.169 HD
HETATM   10  O   UNL     1      25.323  47.195  51.508  1.00  0.00    -0.267 OA
BRANCH   8  11
HETATM   11  C   UNL     1      26.351  44.626  50.358  1.00  0.00     0.071 A 
HETATM   12  C   UNL     1      25.346  43.678  50.086  1.00  0.00     0.095 A 
HETATM   13  C   UNL     1      25.425  42.375  50.583  1.00  0.00     0.042 A 
HETATM   14  C   UNL     1      26.500  42.019  51.394  1.00  0.00     0.045 A 
HETATM   15  C   UNL     1      27.480  42.964  51.686  1.00  0.00     0.118 A 
HETATM   16  C   UNL     1      27.419  44.260  51.176  1.00  0.00     0.074 A 
HETATM   17  F   UNL     1      28.510  42.611  52.467  1.00  0.00    -0.206 F 
BRANCH  12  18
HETATM   18  O   UNL     1      24.300  44.052  49.276  1.00  0.00    -0.354 OA
HETATM   19  C   UNL     1      23.062  43.985  49.989  1.00  0.00     0.210 C 
ENDBRANCH  12  18
ENDBRANCH   8  11
ENDBRANCH   1   7
BRANCH   2  20
HETATM   20  S   UNL     1      22.989  47.760  48.998  1.00  0.00    -0.070 SA
BRANCH  20  21
HETATM   21  C   UNL     1      21.847  49.107  48.761  1.00  0.00     0.007 A 
HETATM   22  C   UNL     1      21.779  50.165  49.673  1.00  0.00     0.019 A 
HETATM   23  C   UNL     1      20.892  51.222  49.463  1.00  0.00     0.001 A 
HETATM   24  C   UNL     1      20.071  51.230  48.337  1.00  0.00     0.000 A 
HETATM   25  C   UNL     1      20.138  50.183  47.419  1.00  0.00     0.001 A 
HETATM   26  C   UNL     1      21.028  49.127  47.628  1.00  0.00     0.019 A 
ENDBRANCH  20  21
ENDBRANCH   2  20
TORSDOF 5
ENDMDL
MODEL 8
REMARK VINA RESULT:      -7.2     10.978     12.291
REMARK  5 active torsions:
REMARK  status: ('A' for Active; 'I' for Inactive)
REMARK    1  A    between atoms: O_2  and  C_3 
REMARK    2  A    between atoms: C_4  and  N_5 
REMARK       I    between atoms: N_5  and  C_6 
REMARK    3  A    between atoms: C_6  and  C_7 
REMARK    4  A    between atoms: C_8  and  S_9 
REMARK    5  A    between atoms: S_9  and  C_10 
ROOT
HETATM    1  C   UNL     1      30.580  48.309  40.298  1.00  0.00     0.068 A 
HETATM    2  C   UNL     1      29.359  48.566  40.912  1.00  0.00     0.113 A 
HETATM    3  N   UNL     1      28.329  47.679  40.852  1.00  0.00    -0.253 NA
HETATM    4  C   UNL     1      28.534  46.521  40.185  1.00  0.00     0.118 A 
HETATM    5  C   UNL     1      29.724  46.190  39.558  1.00  0.00     0.020 A 
HETATM    6  C   UNL     1      30.770  47.103  39.617  1.00  0.00     0.021 A 
ENDROOT
BRANCH   1   7
HETATM    7  C   UNL     1      31.695  49.266  40.332  1.00  0.00     0.259 C 
HETATM    8  N   UNL     1      32.465  49.169  41.468  1.00  0.00    -0.320 N 
HETATM    9  H   UNL     1      32.219  48.465  42.161  1.00  0.00     0.169 HD
HETATM   10  O   UNL     1      31.795  50.074  39.420  1.00  0.00    -0.267 OA
BRANCH   8  11
HETATM   11  C   UNL     1      33.593  49.942  41.813  1.00  0.00     0.071 A 
HETATM   12  C   UNL     1      33.428  50.891  42.840  1.00  0.00     0.095 A 
HETATM   13  C   UNL     1      34.497  51.671  43.283  1.00  0.00     0.042 A 
HETATM   14  C   UNL     1      35.741  51.534  42.671  1.00  0.00     0.045 A 
HETATM   15  C   UNL     1      35.898  50.616  41.637  1.00  0.00     0.118 A 
HETATM   16  C   UNL     1      34.840  49.818  41.203  1.00  0.00     0.074 A 
HETATM   17  F   UNL     1      37.098  50.491  41.055  1.00  0.00    -0.206 F 
BRANCH  12  18
HETATM   18  O   UNL     1      32.193  51.001  43.434  1.00  0.00    -0.354 OA
HETATM   19  C   UNL     1      32.255  51.872  44.566  1.00  0.00     0.210 C 
ENDBRANCH  12  18
ENDBRANCH   8  11
ENDBRANCH   1   7
BRANCH   2  20
HETATM   20  S   UNL     1      29.028  50.057  41.834  1.00  0.00    -0.070 SA
BRANCH  20  21
HETATM   21  C   UNL     1      28.884  51.238  40.508  1.00  0.00     0.007 A 
HETATM   22  C   UNL     1      29.436  52.518  40.617  1.00  0.00     0.019 A 
HETATM   23  C   UNL     1      29.329  53.426  39.562  1.00  0.00     0.001 A 
HETATM   24  C   UNL     1      28.675  53.057  38.389  1.00  0.00     0.000 A 
HETATM   25  C   UNL     1      28.127  51.780  38.269  1.00  0.00     0.001 A 
HETATM   26  C   UNL     1      28.237  50.871  39.324  1.00  0.00     0.019 A 
ENDBRANCH  20  21
ENDBRANCH   2  20
TORSDOF 5
ENDMDL
MODEL 9
REMARK VINA RESULT:      -7.2      3.777      4.937
REMARK  5 active torsions:
REMARK  status: ('A' for Active; 'I' for Inactive)
REMARK    1  A    between atoms: O_2  and  C_3 
REMARK    2  A    between atoms: C_4  and  N_5 
REMARK       I    between atoms: N_5  and  C_6 
REMARK    3  A    between atoms: C_6  and  C_7 
REMARK    4  A    between atoms: C_8  and  S_9 
REMARK    5  A    between atoms: S_9  and  C_10 
ROOT
HETATM    1  C   UNL     1      23.061  47.333  48.887  1.00  0.00     0.068 A 
HETATM    2  C   UNL     1      22.298  48.455  48.579  1.00  0.00     0.113 A 
HETATM    3  N   UNL     1      21.300  48.407  47.656  1.00  0.00    -0.253 NA
HETATM    4  C   UNL     1      21.057  47.222  47.051  1.00  0.00     0.118 A 
HETATM    5  C   UNL     1      21.766  46.062  47.313  1.00  0.00     0.020 A 
HETATM    6  C   UNL     1      22.789  46.118  48.252  1.00  0.00     0.021 A 
ENDROOT
BRANCH   1   7
HETATM    7  C   UNL     1      24.158  47.372  49.864  1.00  0.00     0.259 C 
HETATM    8  N   UNL     1      24.108  46.349  50.784  1.00  0.00    -0.320 N 
HETATM    9  H   UNL     1      23.353  45.670  50.713  1.00  0.00     0.169 HD
HETATM   10  O   UNL     1      24.945  48.306  49.817  1.00  0.00    -0.267 OA
BRANCH   8  11
HETATM   11  C   UNL     1      24.997  46.107  51.851  1.00  0.00     0.071 A 
HETATM   12  C   UNL     1      25.080  44.784  52.326  1.00  0.00     0.095 A 
HETATM   13  C   UNL     1      25.966  44.436  53.348  1.00  0.00     0.042 A 
HETATM   14  C   UNL     1      26.753  45.425  53.934  1.00  0.00     0.045 A 
HETATM   15  C   UNL     1      26.650  46.738  53.484  1.00  0.00     0.118 A 
HETATM   16  C   UNL     1      25.785  47.089  52.449  1.00  0.00     0.074 A 
HETATM   17  F   UNL     1      27.412  47.681  54.054  1.00  0.00    -0.206 F 
BRANCH  12  18
HETATM   18  O   UNL     1      24.299  43.825  51.725  1.00  0.00    -0.354 OA
HETATM   19  C   UNL     1      25.108  42.917  50.972  1.00  0.00     0.210 C 
ENDBRANCH  12  18
ENDBRANCH   8  11
ENDBRANCH   1   7
BRANCH   2  20
HETATM   20  S   UNL     1      22.541  50.040  49.359  1.00  0.00    -0.070 SA
BRANCH  20  21
HETATM   21  C   UNL     1      20.871  50.665  49.360  1.00  0.00     0.007 A 
HETATM   22  C   UNL     1      19.895  50.114  50.195  1.00  0.00     0.019 A 
HETATM   23  C   UNL     1      18.596  50.626  50.197  1.00  0.00     0.001 A 
HETATM   24  C   UNL     1      18.268  51.696  49.367  1.00  0.00     0.000 A 
HETATM   25  C   UNL     1      19.238  52.256  48.536  1.00  0.00     0.001 A 
HETATM   26  C   UNL     1      20.538  51.745  48.536  1.00  0.00     0.019 A 
ENDBRANCH  20  21
ENDBRANCH   2  20
TORSDOF 5
ENDMDL
MODEL 10
REMARK VINA RESULT:      -7.2     12.381     15.210
REMARK  5 active torsions:
REMARK  status: ('A' for Active; 'I' for Inactive)
REMARK    1  A    between atoms: O_2  and  C_3 
REMARK    2  A    between atoms: C_4  and  N_5 
REMARK       I    between atoms: N_5  and  C_6 
REMARK    3  A    between atoms: C_6  and  C_7 
REMARK    4  A    between atoms: C_8  and  S_9 
REMARK    5  A    between atoms: S_9  and  C_10 
ROOT
HETATM    1  C   UNL     1      31.247  52.110  39.972  1.00  0.00     0.068 A 
HETATM    2  C   UNL     1      30.959  51.174  40.960  1.00  0.00     0.113 A 
HETATM    3  N   UNL     1      29.788  51.205  41.653  1.00  0.00    -0.253 NA
HETATM    4  C   UNL     1      28.897  52.172  41.340  1.00  0.00     0.118 A 
HETATM    5  C   UNL     1      29.108  53.130  40.363  1.00  0.00     0.020 A 
HETATM    6  C   UNL     1      30.308  53.098  39.664  1.00  0.00     0.021 A 
ENDROOT
BRANCH   1   7
HETATM    7  C   UNL     1      32.515  52.106  39.231  1.00  0.00     0.259 C 
HETATM    8  N   UNL     1      33.484  52.900  39.801  1.00  0.00    -0.320 N 
HETATM    9  H   UNL     1      33.259  53.397  40.660  1.00  0.00     0.169 HD
HETATM   10  O   UNL     1      32.574  51.481  38.182  1.00  0.00    -0.267 OA
BRANCH   8  11
HETATM   11  C   UNL     1      34.797  53.123  39.338  1.00  0.00     0.071 A 
HETATM   12  C   UNL     1      35.200  54.463  39.178  1.00  0.00     0.095 A 
HETATM   13  C   UNL     1      36.495  54.786  38.769  1.00  0.00     0.042 A 
HETATM   14  C   UNL     1      37.393  53.761  38.476  1.00  0.00     0.045 A 
HETATM   15  C   UNL     1      36.986  52.437  38.607  1.00  0.00     0.118 A 
HETATM   16  C   UNL     1      35.702  52.106  39.036  1.00  0.00     0.074 A 
HETATM   17  F   UNL     1      37.857  51.459  38.323  1.00  0.00    -0.206 F 
BRANCH  12  18
HETATM   18  O   UNL     1      34.298  55.455  39.482  1.00  0.00    -0.354 OA
HETATM   19  C   UNL     1      34.913  56.742  39.380  1.00  0.00     0.210 C 
ENDBRANCH  12  18
ENDBRANCH   8  11
ENDBRANCH   1   7
BRANCH   2  20
HETATM   20  S   UNL     1      32.073  49.853  41.404  1.00  0.00    -0.070 SA
BRANCH  20  21
HETATM   21  C   UNL     1      33.201  50.721  42.476  1.00  0.00     0.007 A 
HETATM   22  C   UNL     1      34.568  50.786  42.187  1.00  0.00     0.019 A 
HETATM   23  C   UNL     1      35.435  51.485  43.028  1.00  0.00     0.001 A 
HETATM   24  C   UNL     1      34.940  52.129  44.160  1.00  0.00     0.000 A 
HETATM   25  C   UNL     1      33.578  52.076  44.452  1.00  0.00     0.001 A 
HETATM   26  C   UNL     1      32.709  51.378  43.608  1.00  0.00     0.019 A 
ENDBRANCH  20  21
ENDBRANCH   2  20
TORSDOF 5
ENDMDL
