MODEL 1
REMARK VINA RESULT:      -8.9      0.000      0.000
REMARK  6 active torsions:
REMARK  status: ('A' for Active; 'I' for Inactive)
REMARK    1  A    between atoms: C_2  and  N_3 
REMARK    2  A    between atoms: C_2  and  C_24 
REMARK       I    between atoms: N_3  and  C_4 
REMARK    3  A    between atoms: C_4  and  C_5 
REMARK    4  A    between atoms: C_5  and  N_6 
REMARK    5  A    between atoms: C_10  and  N_11 
REMARK       I    between atoms: N_11  and  C_12 
REMARK       I    between atoms: C_12  and  N_13 
REMARK    6  A    between atoms: N_13  and  C_14 
ROOT
HETATM    1  N   UNL     1      25.922  46.967  50.247  1.00  0.00    -0.063 N 
HETATM    2  H   UNL     1      25.009  46.958  49.769  1.00  0.00     0.280 HD
HETATM    3  C   UNL     1      26.670  45.751  49.754  1.00  0.00     0.237 C 
HETATM    4  C   UNL     1      26.225  44.482  50.451  1.00  0.00     0.053 C 
HETATM    5  C   UNL     1      26.260  44.583  51.970  1.00  0.00     0.089 C 
HETATM    6  C   UNL     1      25.428  45.772  52.439  1.00  0.00     0.053 C 
HETATM    7  C   UNL     1      25.700  47.090  51.734  1.00  0.00     0.237 C 
ENDROOT
BRANCH   1   8
HETATM    8  C   UNL     1      26.623  48.253  49.754  1.00  0.00     0.337 C 
BRANCH   8   9
HETATM    9  C   UNL     1      25.786  49.040  48.747  1.00  0.00     0.244 C 
HETATM   10  N   UNL     1      24.431  48.976  48.948  1.00  0.00    -0.351 N 
HETATM   11  H   UNL     1      24.041  48.458  49.729  1.00  0.00     0.163 HD
HETATM   12  O   UNL     1      26.331  49.726  47.887  1.00  0.00    -0.272 OA
BRANCH  10  13
HETATM   13  C   UNL     1      23.472  49.713  48.137  1.00  0.00     0.120 C 
HETATM   14  C   UNL     1      23.160  51.089  48.725  1.00  0.00     0.038 C 
BRANCH  13  15
HETATM   15  C   UNL     1      22.230  48.864  48.005  1.00  0.00     0.005 A 
HETATM   16  S   UNL     1      22.287  47.156  48.214  1.00  0.00    -0.104 SA
HETATM   17  C   UNL     1      20.612  46.994  47.921  1.00  0.00     0.050 A 
HETATM   18  C   UNL     1      20.014  48.206  47.663  1.00  0.00     0.008 A 
HETATM   19  C   UNL     1      20.946  49.284  47.712  1.00  0.00     0.017 A 
ENDBRANCH  13  15
ENDBRANCH  10  13
ENDBRANCH   8   9
ENDBRANCH   1   8
BRANCH   5  20
HETATM   20  N   UNL     1      27.611  44.464  52.528  1.00  0.00    -0.338 N 
HETATM   21  C   UNL     1      27.946  44.231  53.839  1.00  0.00     0.321 C 
HETATM   22  N   UNL     1      29.263  44.520  54.095  1.00  0.00    -0.309 N 
HETATM   23  O   UNL     1      27.111  43.900  54.672  1.00  0.00    -0.247 OA
HETATM   24  H   UNL     1      29.755  45.045  53.386  1.00  0.00     0.170 HD
HETATM   25  H   UNL     1      28.376  44.432  51.865  1.00  0.00     0.164 HD
BRANCH  22  26
HETATM   26  C   UNL     1      29.887  44.467  55.362  1.00  0.00     0.036 A 
HETATM   27  C   UNL     1      29.764  45.472  56.325  1.00  0.00     0.029 A 
HETATM   28  C   UNL     1      30.442  45.375  57.544  1.00  0.00     0.002 A 
HETATM   29  C   UNL     1      31.246  44.270  57.810  1.00  0.00     0.000 A 
HETATM   30  C   UNL     1      31.358  43.253  56.865  1.00  0.00     0.002 A 
HETATM   31  C   UNL     1      30.673  43.346  55.650  1.00  0.00     0.029 A 
ENDBRANCH  22  26
ENDBRANCH   5  20
TORSDOF 6
ENDMDL
MODEL 2
REMARK VINA RESULT:      -8.9      1.735      1.950
REMARK  6 active torsions:
REMARK  status: ('A' for Active; 'I' for Inactive)
REMARK    1  A    between atoms: C_2  and  N_3 
REMARK    2  A    between atoms: C_2  and  C_24 
REMARK       I    between atoms: N_3  and  C_4 
REMARK    3  A    between atoms: C_4  and  C_5 
REMARK    4  A    between atoms: C_5  and  N_6 
REMARK    5  A    between atoms: C_10  and  N_11 
REMARK       I    between atoms: N_11  and  C_12 
REMARK       I    between atoms: C_12  and  N_13 
REMARK    6  A    between atoms: N_13  and  C_14 
ROOT
HETATM    1  N   UNL     1      25.133  45.617  50.725  1.00  0.00    -0.063 N 
HETATM    2  H   UNL     1      24.431  45.163  50.122  1.00  0.00     0.280 HD
HETATM    3  C   UNL     1      26.481  45.291  50.124  1.00  0.00     0.237 C 
HETATM    4  C   UNL     1      26.949  43.898  50.489  1.00  0.00     0.053 C 
HETATM    5  C   UNL     1      26.923  43.624  51.987  1.00  0.00     0.089 C 
HETATM    6  C   UNL     1      25.528  43.885  52.547  1.00  0.00     0.053 C 
HETATM    7  C   UNL     1      24.895  45.209  52.157  1.00  0.00     0.237 C 
ENDROOT
BRANCH   1   8
HETATM    8  C   UNL     1      24.854  47.132  50.600  1.00  0.00     0.337 C 
BRANCH   8   9
HETATM    9  C   UNL     1      23.777  47.456  49.565  1.00  0.00     0.244 C 
HETATM   10  N   UNL     1      23.527  48.793  49.392  1.00  0.00    -0.351 N 
HETATM   11  H   UNL     1      24.049  49.495  49.908  1.00  0.00     0.163 HD
HETATM   12  O   UNL     1      23.258  46.560  48.905  1.00  0.00    -0.272 OA
BRANCH  10  13
HETATM   13  C   UNL     1      22.588  49.304  48.404  1.00  0.00     0.120 C 
HETATM   14  C   UNL     1      23.174  50.465  47.601  1.00  0.00     0.038 C 
BRANCH  13  15
HETATM   15  C   UNL     1      21.326  49.705  49.130  1.00  0.00     0.005 A 
HETATM   16  S   UNL     1      20.015  48.606  49.322  1.00  0.00    -0.104 SA
HETATM   17  C   UNL     1      19.084  49.755  50.175  1.00  0.00     0.050 A 
HETATM   18  C   UNL     1      19.744  50.955  50.312  1.00  0.00     0.008 A 
HETATM   19  C   UNL     1      21.036  50.926  49.711  1.00  0.00     0.017 A 
ENDBRANCH  13  15
ENDBRANCH  10  13
ENDBRANCH   8   9
ENDBRANCH   1   8
BRANCH   5  20
HETATM   20  N   UNL     1      28.045  44.234  52.707  1.00  0.00    -0.338 N 
HETATM   21  C   UNL     1      28.544  43.858  53.930  1.00  0.00     0.321 C 
HETATM   22  N   UNL     1      29.347  44.826  54.480  1.00  0.00    -0.309 N 
HETATM   23  O   UNL     1      28.207  42.815  54.474  1.00  0.00    -0.247 OA
HETATM   24  H   UNL     1      29.311  45.739  54.050  1.00  0.00     0.170 HD
HETATM   25  H   UNL     1      28.586  44.928  52.205  1.00  0.00     0.164 HD
BRANCH  22  26
HETATM   26  C   UNL     1      29.938  44.775  55.763  1.00  0.00     0.036 A 
HETATM   27  C   UNL     1      29.639  45.677  56.787  1.00  0.00     0.029 A 
HETATM   28  C   UNL     1      30.290  45.595  58.020  1.00  0.00     0.002 A 
HETATM   29  C   UNL     1      31.246  44.607  58.241  1.00  0.00     0.000 A 
HETATM   30  C   UNL     1      31.537  43.689  57.234  1.00  0.00     0.002 A 
HETATM   31  C   UNL     1      30.878  43.766  56.003  1.00  0.00     0.029 A 
ENDBRANCH  22  26
ENDBRANCH   5  20
TORSDOF 6
ENDMDL
MODEL 3
REMARK VINA RESULT:      -8.6      3.165     10.622
REMARK  6 active torsions:
REMARK  status: ('A' for Active; 'I' for Inactive)
REMARK    1  A    between atoms: C_2  and  N_3 
REMARK    2  A    between atoms: C_2  and  C_24 
REMARK       I    between atoms: N_3  and  C_4 
REMARK    3  A    between atoms: C_4  and  C_5 
REMARK    4  A    between atoms: C_5  and  N_6 
REMARK    5  A    between atoms: C_10  and  N_11 
REMARK       I    between atoms: N_11  and  C_12 
REMARK       I    between atoms: C_12  and  N_13 
REMARK    6  A    between atoms: N_13  and  C_14 
ROOT
HETATM    1  N   UNL     1      25.571  45.977  50.639  1.00  0.00    -0.063 N 
HETATM    2  H   UNL     1      26.245  45.435  50.078  1.00  0.00     0.280 HD
HETATM    3  C   UNL     1      24.198  45.587  50.143  1.00  0.00     0.237 C 
HETATM    4  C   UNL     1      23.828  46.298  48.859  1.00  0.00     0.053 C 
HETATM    5  C   UNL     1      23.986  47.811  48.938  1.00  0.00     0.089 C 
HETATM    6  C   UNL     1      25.406  48.172  49.361  1.00  0.00     0.053 C 
HETATM    7  C   UNL     1      25.942  47.439  50.578  1.00  0.00     0.237 C 
ENDROOT
BRANCH   1   8
HETATM    8  C   UNL     1      25.767  45.488  52.091  1.00  0.00     0.337 C 
BRANCH   8   9
HETATM    9  C   UNL     1      26.813  44.381  52.212  1.00  0.00     0.244 C 
HETATM   10  N   UNL     1      27.554  44.411  53.366  1.00  0.00    -0.351 N 
HETATM   11  H   UNL     1      27.382  45.112  54.080  1.00  0.00     0.163 HD
HETATM   12  O   UNL     1      26.897  43.508  51.353  1.00  0.00    -0.272 OA
BRANCH  10  13
HETATM   13  C   UNL     1      28.551  43.403  53.696  1.00  0.00     0.120 C 
HETATM   14  C   UNL     1      27.913  42.070  54.084  1.00  0.00     0.038 C 
BRANCH  13  15
HETATM   15  C   UNL     1      29.417  43.955  54.804  1.00  0.00     0.005 A 
HETATM   16  S   UNL     1      29.113  45.505  55.490  1.00  0.00    -0.104 SA
HETATM   17  C   UNL     1      30.429  45.363  56.569  1.00  0.00     0.050 A 
HETATM   18  C   UNL     1      31.095  44.169  56.416  1.00  0.00     0.008 A 
HETATM   19  C   UNL     1      30.512  43.357  55.399  1.00  0.00     0.017 A 
ENDBRANCH  13  15
ENDBRANCH  10  13
ENDBRANCH   8   9
ENDBRANCH   1   8
BRANCH   5  20
HETATM   20  N   UNL     1      22.896  48.470  49.665  1.00  0.00    -0.338 N 
HETATM   21  C   UNL     1      21.759  49.022  49.127  1.00  0.00     0.321 C 
HETATM   22  N   UNL     1      21.120  49.853  50.012  1.00  0.00    -0.309 N 
HETATM   23  O   UNL     1      21.444  48.845  47.957  1.00  0.00    -0.247 OA
HETATM   24  H   UNL     1      21.640  50.120  50.835  1.00  0.00     0.170 HD
HETATM   25  H   UNL     1      22.920  48.410  50.676  1.00  0.00     0.164 HD
BRANCH  22  26
HETATM   26  C   UNL     1      19.976  50.635  49.729  1.00  0.00     0.036 A 
HETATM   27  C   UNL     1      18.714  50.377  50.270  1.00  0.00     0.029 A 
HETATM   28  C   UNL     1      17.615  51.165  49.917  1.00  0.00     0.002 A 
HETATM   29  C   UNL     1      17.771  52.221  49.022  1.00  0.00     0.000 A 
HETATM   30  C   UNL     1      19.029  52.498  48.493  1.00  0.00     0.002 A 
HETATM   31  C   UNL     1      20.130  51.715  48.854  1.00  0.00     0.029 A 
ENDBRANCH  22  26
ENDBRANCH   5  20
TORSDOF 6
ENDMDL
MODEL 4
REMARK VINA RESULT:      -8.6      3.132     10.408
REMARK  6 active torsions:
REMARK  status: ('A' for Active; 'I' for Inactive)
REMARK    1  A    between atoms: C_2  and  N_3 
REMARK    2  A    between atoms: C_2  and  C_24 
REMARK       I    between atoms: N_3  and  C_4 
REMARK    3  A    between atoms: C_4  and  C_5 
REMARK    4  A    between atoms: C_5  and  N_6 
REMARK    5  A    between atoms: C_10  and  N_11 
REMARK       I    between atoms: N_11  and  C_12 
REMARK       I    between atoms: C_12  and  N_13 
REMARK    6  A    between atoms: N_13  and  C_14 
ROOT
HETATM    1  N   UNL     1      25.570  45.334  51.755  1.00  0.00    -0.063 N 
HETATM    2  H   UNL     1      26.467  44.887  51.515  1.00  0.00     0.280 HD
HETATM    3  C   UNL     1      24.547  44.769  50.797  1.00  0.00     0.237 C 
HETATM    4  C   UNL     1      24.607  45.433  49.437  1.00  0.00     0.053 C 
HETATM    5  C   UNL     1      24.535  46.953  49.502  1.00  0.00     0.089 C 
HETATM    6  C   UNL     1      25.631  47.495  50.413  1.00  0.00     0.053 C 
HETATM    7  C   UNL     1      25.751  46.831  51.774  1.00  0.00     0.237 C 
ENDROOT
BRANCH   1   8
HETATM    8  C   UNL     1      25.258  44.866  53.194  1.00  0.00     0.337 C 
BRANCH   8   9
HETATM    9  C   UNL     1      26.010  45.666  54.257  1.00  0.00     0.244 C 
HETATM   10  N   UNL     1      27.317  45.291  54.443  1.00  0.00    -0.351 N 
HETATM   11  H   UNL     1      27.734  44.552  53.887  1.00  0.00     0.163 HD
HETATM   12  O   UNL     1      25.470  46.613  54.821  1.00  0.00    -0.272 OA
BRANCH  10  13
HETATM   13  C   UNL     1      28.216  45.977  55.361  1.00  0.00     0.120 C 
HETATM   14  C   UNL     1      28.710  47.307  54.793  1.00  0.00     0.038 C 
BRANCH  13  15
HETATM   15  C   UNL     1      29.359  45.040  55.672  1.00  0.00     0.005 A 
HETATM   16  S   UNL     1      30.433  45.343  56.984  1.00  0.00    -0.104 SA
HETATM   17  C   UNL     1      31.340  43.934  56.658  1.00  0.00     0.050 A 
HETATM   18  C   UNL     1      30.850  43.243  55.574  1.00  0.00     0.008 A 
HETATM   19  C   UNL     1      29.707  43.880  55.007  1.00  0.00     0.017 A 
ENDBRANCH  13  15
ENDBRANCH  10  13
ENDBRANCH   8   9
ENDBRANCH   1   8
BRANCH   5  20
HETATM   20  N   UNL     1      23.178  47.459  49.734  1.00  0.00    -0.338 N 
HETATM   21  C   UNL     1      22.424  48.223  48.878  1.00  0.00     0.321 C 
HETATM   22  N   UNL     1      21.362  48.816  49.514  1.00  0.00    -0.309 N 
HETATM   23  O   UNL     1      22.753  48.407  47.713  1.00  0.00    -0.247 OA
HETATM   24  H   UNL     1      21.376  48.800  50.524  1.00  0.00     0.170 HD
HETATM   25  H   UNL     1      22.698  47.115  50.557  1.00  0.00     0.164 HD
BRANCH  22  26
HETATM   26  C   UNL     1      20.455  49.728  48.928  1.00  0.00     0.036 A 
HETATM   27  C   UNL     1      19.408  49.341  48.086  1.00  0.00     0.029 A 
HETATM   28  C   UNL     1      18.571  50.299  47.507  1.00  0.00     0.002 A 
HETATM   29  C   UNL     1      18.772  51.652  47.768  1.00  0.00     0.000 A 
HETATM   30  C   UNL     1      19.800  52.046  48.622  1.00  0.00     0.002 A 
HETATM   31  C   UNL     1      20.631  51.087  49.208  1.00  0.00     0.029 A 
ENDBRANCH  22  26
ENDBRANCH   5  20
TORSDOF 6
ENDMDL
MODEL 5
REMARK VINA RESULT:      -8.4      2.675     10.194
REMARK  6 active torsions:
REMARK  status: ('A' for Active; 'I' for Inactive)
REMARK    1  A    between atoms: C_2  and  N_3 
REMARK    2  A    between atoms: C_2  and  C_24 
REMARK       I    between atoms: N_3  and  C_4 
REMARK    3  A    between atoms: C_4  and  C_5 
REMARK    4  A    between atoms: C_5  and  N_6 
REMARK    5  A    between atoms: C_10  and  N_11 
REMARK       I    between atoms: N_11  and  C_12 
REMARK       I    between atoms: C_12  and  N_13 
REMARK    6  A    between atoms: N_13  and  C_14 
ROOT
HETATM    1  N   UNL     1      26.533  44.979  50.900  1.00  0.00    -0.063 N 
HETATM    2  H   UNL     1      27.514  45.020  51.215  1.00  0.00     0.280 HD
HETATM    3  C   UNL     1      26.469  45.776  49.617  1.00  0.00     0.237 C 
HETATM    4  C   UNL     1      26.412  47.268  49.870  1.00  0.00     0.053 C 
HETATM    5  C   UNL     1      25.310  47.676  50.839  1.00  0.00     0.089 C 
HETATM    6  C   UNL     1      25.452  46.913  52.152  1.00  0.00     0.053 C 
HETATM    7  C   UNL     1      25.632  45.410  52.030  1.00  0.00     0.237 C 
ENDROOT
BRANCH   1   8
HETATM    8  C   UNL     1      26.263  43.487  50.607  1.00  0.00     0.337 C 
BRANCH   8   9
HETATM    9  C   UNL     1      27.348  42.565  51.162  1.00  0.00     0.244 C 
HETATM   10  N   UNL     1      27.974  43.025  52.293  1.00  0.00    -0.351 N 
HETATM   11  H   UNL     1      27.701  43.904  52.722  1.00  0.00     0.163 HD
HETATM   12  O   UNL     1      27.557  41.470  50.648  1.00  0.00    -0.272 OA
BRANCH  10  13
HETATM   13  C   UNL     1      28.985  42.260  53.008  1.00  0.00     0.120 C 
HETATM   14  C   UNL     1      28.432  40.939  53.544  1.00  0.00     0.038 C 
BRANCH  13  15
HETATM   15  C   UNL     1      29.526  43.132  54.116  1.00  0.00     0.005 A 
HETATM   16  S   UNL     1      28.724  44.581  54.588  1.00  0.00    -0.104 SA
HETATM   17  C   UNL     1      29.892  44.920  55.787  1.00  0.00     0.050 A 
HETATM   18  C   UNL     1      30.878  43.962  55.832  1.00  0.00     0.008 A 
HETATM   19  C   UNL     1      30.668  42.931  54.870  1.00  0.00     0.017 A 
ENDBRANCH  13  15
ENDBRANCH  10  13
ENDBRANCH   8   9
ENDBRANCH   1   8
BRANCH   5  20
HETATM   20  N   UNL     1      23.977  47.688  50.227  1.00  0.00    -0.338 N 
HETATM   21  C   UNL     1      23.373  48.740  49.584  1.00  0.00     0.321 C 
HETATM   22  N   UNL     1      22.022  48.549  49.438  1.00  0.00    -0.309 N 
HETATM   23  O   UNL     1      23.989  49.755  49.282  1.00  0.00    -0.247 OA
HETATM   24  H   UNL     1      21.612  47.801  49.978  1.00  0.00     0.170 HD
HETATM   25  H   UNL     1      23.496  46.799  50.165  1.00  0.00     0.164 HD
BRANCH  22  26
HETATM   26  C   UNL     1      21.111  49.485  48.896  1.00  0.00     0.036 A 
HETATM   27  C   UNL     1      20.696  50.637  49.570  1.00  0.00     0.029 A 
HETATM   28  C   UNL     1      19.761  51.500  48.993  1.00  0.00     0.002 A 
HETATM   29  C   UNL     1      19.235  51.220  47.734  1.00  0.00     0.000 A 
HETATM   30  C   UNL     1      19.658  50.085  47.045  1.00  0.00     0.002 A 
HETATM   31  C   UNL     1      20.600  49.227  47.619  1.00  0.00     0.029 A 
ENDBRANCH  22  26
ENDBRANCH   5  20
TORSDOF 6
ENDMDL
MODEL 6
REMARK VINA RESULT:      -8.4      2.857     10.137
REMARK  6 active torsions:
REMARK  status: ('A' for Active; 'I' for Inactive)
REMARK    1  A    between atoms: C_2  and  N_3 
REMARK    2  A    between atoms: C_2  and  C_24 
REMARK       I    between atoms: N_3  and  C_4 
REMARK    3  A    between atoms: C_4  and  C_5 
REMARK    4  A    between atoms: C_5  and  N_6 
REMARK    5  A    between atoms: C_10  and  N_11 
REMARK       I    between atoms: N_11  and  C_12 
REMARK       I    between atoms: C_12  and  N_13 
REMARK    6  A    between atoms: N_13  and  C_14 
ROOT
HETATM    1  N   UNL     1      25.853  45.837  51.982  1.00  0.00    -0.063 N 
HETATM    2  H   UNL     1      26.718  45.329  51.746  1.00  0.00     0.280 HD
HETATM    3  C   UNL     1      24.729  45.103  51.289  1.00  0.00     0.237 C 
HETATM    4  C   UNL     1      24.633  45.456  49.819  1.00  0.00     0.053 C 
HETATM    5  C   UNL     1      24.566  46.956  49.560  1.00  0.00     0.089 C 
HETATM    6  C   UNL     1      25.759  47.656  50.204  1.00  0.00     0.053 C 
HETATM    7  C   UNL     1      26.034  47.299  51.654  1.00  0.00     0.237 C 
ENDROOT
BRANCH   1   8
HETATM    8  C   UNL     1      25.708  45.699  53.514  1.00  0.00     0.337 C 
BRANCH   8   9
HETATM    9  C   UNL     1      26.214  44.358  54.042  1.00  0.00     0.244 C 
HETATM   10  N   UNL     1      27.406  43.939  53.506  1.00  0.00    -0.351 N 
HETATM   11  H   UNL     1      27.904  44.509  52.829  1.00  0.00     0.163 HD
HETATM   12  O   UNL     1      25.609  43.772  54.935  1.00  0.00    -0.272 OA
BRANCH  10  13
HETATM   13  C   UNL     1      28.084  42.724  53.931  1.00  0.00     0.120 C 
HETATM   14  C   UNL     1      29.458  43.014  54.535  1.00  0.00     0.038 C 
BRANCH  13  15
HETATM   15  C   UNL     1      28.179  41.806  52.736  1.00  0.00     0.005 A 
HETATM   16  S   UNL     1      27.345  42.155  51.270  1.00  0.00    -0.104 SA
HETATM   17  C   UNL     1      27.940  40.744  50.514  1.00  0.00     0.050 A 
HETATM   18  C   UNL     1      28.751  40.013  51.350  1.00  0.00     0.008 A 
HETATM   19  C   UNL     1      28.890  40.625  52.630  1.00  0.00     0.017 A 
ENDBRANCH  13  15
ENDBRANCH  10  13
ENDBRANCH   8   9
ENDBRANCH   1   8
BRANCH   5  20
HETATM   20  N   UNL     1      23.244  47.531  49.826  1.00  0.00    -0.338 N 
HETATM   21  C   UNL     1      22.447  48.213  48.941  1.00  0.00     0.321 C 
HETATM   22  N   UNL     1      21.452  48.913  49.575  1.00  0.00    -0.309 N 
HETATM   23  O   UNL     1      22.692  48.246  47.741  1.00  0.00    -0.247 OA
HETATM   24  H   UNL     1      21.541  49.017  50.576  1.00  0.00     0.170 HD
HETATM   25  H   UNL     1      22.819  47.304  50.717  1.00  0.00     0.164 HD
BRANCH  22  26
HETATM   26  C   UNL     1      20.525  49.779  48.950  1.00  0.00     0.036 A 
HETATM   27  C   UNL     1      19.485  49.334  48.130  1.00  0.00     0.029 A 
HETATM   28  C   UNL     1      18.629  50.247  47.509  1.00  0.00     0.002 A 
HETATM   29  C   UNL     1      18.803  51.614  47.706  1.00  0.00     0.000 A 
HETATM   30  C   UNL     1      19.824  52.067  48.538  1.00  0.00     0.002 A 
HETATM   31  C   UNL     1      20.675  51.153  49.166  1.00  0.00     0.029 A 
ENDBRANCH  22  26
ENDBRANCH   5  20
TORSDOF 6
ENDMDL
MODEL 7
REMARK VINA RESULT:      -8.0      2.289      2.946
REMARK  6 active torsions:
REMARK  status: ('A' for Active; 'I' for Inactive)
REMARK    1  A    between atoms: C_2  and  N_3 
REMARK    2  A    between atoms: C_2  and  C_24 
REMARK       I    between atoms: N_3  and  C_4 
REMARK    3  A    between atoms: C_4  and  C_5 
REMARK    4  A    between atoms: C_5  and  N_6 
REMARK    5  A    between atoms: C_10  and  N_11 
REMARK       I    between atoms: N_11  and  C_12 
REMARK       I    between atoms: C_12  and  N_13 
REMARK    6  A    between atoms: N_13  and  C_14 
ROOT
HETATM    1  N   UNL     1      23.799  44.078  49.045  1.00  0.00    -0.063 N 
HETATM    2  H   UNL     1      23.753  43.835  48.044  1.00  0.00     0.280 HD
HETATM    3  C   UNL     1      25.093  44.836  49.236  1.00  0.00     0.237 C 
HETATM    4  C   UNL     1      26.291  43.914  49.319  1.00  0.00     0.053 C 
HETATM    5  C   UNL     1      26.132  42.807  50.354  1.00  0.00     0.089 C 
HETATM    6  C   UNL     1      24.859  42.011  50.084  1.00  0.00     0.053 C 
HETATM    7  C   UNL     1      23.598  42.829  49.867  1.00  0.00     0.237 C 
ENDROOT
BRANCH   1   8
HETATM    8  C   UNL     1      22.597  45.017  49.289  1.00  0.00     0.337 C 
BRANCH   8   9
HETATM    9  C   UNL     1      22.596  46.237  48.368  1.00  0.00     0.244 C 
HETATM   10  N   UNL     1      22.687  47.445  49.011  1.00  0.00    -0.351 N 
HETATM   11  H   UNL     1      22.772  47.496  50.021  1.00  0.00     0.163 HD
HETATM   12  O   UNL     1      22.592  46.096  47.149  1.00  0.00    -0.272 OA
BRANCH  10  13
HETATM   13  C   UNL     1      22.770  48.716  48.305  1.00  0.00     0.120 C 
HETATM   14  C   UNL     1      24.098  49.429  48.560  1.00  0.00     0.038 C 
BRANCH  13  15
HETATM   15  C   UNL     1      21.590  49.558  48.729  1.00  0.00     0.005 A 
HETATM   16  S   UNL     1      20.144  48.837  49.325  1.00  0.00    -0.104 SA
HETATM   17  C   UNL     1      19.398  50.356  49.551  1.00  0.00     0.050 A 
HETATM   18  C   UNL     1      20.219  51.396  49.180  1.00  0.00     0.008 A 
HETATM   19  C   UNL     1      21.483  50.936  48.707  1.00  0.00     0.017 A 
ENDBRANCH  13  15
ENDBRANCH  10  13
ENDBRANCH   8   9
ENDBRANCH   1   8
BRANCH   5  20
HETATM   20  N   UNL     1      26.339  43.268  51.731  1.00  0.00    -0.338 N 
HETATM   21  C   UNL     1      27.521  43.682  52.294  1.00  0.00     0.321 C 
HETATM   22  N   UNL     1      27.457  43.713  53.665  1.00  0.00    -0.309 N 
HETATM   23  O   UNL     1      28.521  43.892  51.620  1.00  0.00    -0.247 OA
HETATM   24  H   UNL     1      26.666  43.249  54.089  1.00  0.00     0.170 HD
HETATM   25  H   UNL     1      25.509  43.410  52.294  1.00  0.00     0.164 HD
BRANCH  22  26
HETATM   26  C   UNL     1      28.531  44.012  54.534  1.00  0.00     0.036 A 
HETATM   27  C   UNL     1      28.636  45.208  55.248  1.00  0.00     0.029 A 
HETATM   28  C   UNL     1      29.746  45.457  56.059  1.00  0.00     0.002 A 
HETATM   29  C   UNL     1      30.760  44.508  56.166  1.00  0.00     0.000 A 
HETATM   30  C   UNL     1      30.655  43.304  55.474  1.00  0.00     0.002 A 
HETATM   31  C   UNL     1      29.540  43.051  54.670  1.00  0.00     0.029 A 
ENDBRANCH  22  26
ENDBRANCH   5  20
TORSDOF 6
ENDMDL
MODEL 8
REMARK VINA RESULT:      -7.8      4.361      9.999
REMARK  6 active torsions:
REMARK  status: ('A' for Active; 'I' for Inactive)
REMARK    1  A    between atoms: C_2  and  N_3 
REMARK    2  A    between atoms: C_2  and  C_24 
REMARK       I    between atoms: N_3  and  C_4 
REMARK    3  A    between atoms: C_4  and  C_5 
REMARK    4  A    between atoms: C_5  and  N_6 
REMARK    5  A    between atoms: C_10  and  N_11 
REMARK       I    between atoms: N_11  and  C_12 
REMARK       I    between atoms: C_12  and  N_13 
REMARK    6  A    between atoms: N_13  and  C_14 
ROOT
HETATM    1  N   UNL     1      26.264  44.474  50.946  1.00  0.00    -0.063 N 
HETATM    2  H   UNL     1      27.250  44.427  51.240  1.00  0.00     0.280 HD
HETATM    3  C   UNL     1      26.248  45.234  49.640  1.00  0.00     0.237 C 
HETATM    4  C   UNL     1      26.345  46.731  49.846  1.00  0.00     0.053 C 
HETATM    5  C   UNL     1      25.310  47.275  50.822  1.00  0.00     0.089 C 
HETATM    6  C   UNL     1      25.408  46.542  52.157  1.00  0.00     0.053 C 
HETATM    7  C   UNL     1      25.436  45.026  52.079  1.00  0.00     0.237 C 
ENDROOT
BRANCH   1   8
HETATM    8  C   UNL     1      25.842  43.007  50.707  1.00  0.00     0.337 C 
BRANCH   8   9
HETATM    9  C   UNL     1      27.016  42.101  50.340  1.00  0.00     0.244 C 
HETATM   10  N   UNL     1      26.975  41.590  49.067  1.00  0.00    -0.351 N 
HETATM   11  H   UNL     1      26.222  41.832  48.430  1.00  0.00     0.163 HD
HETATM   12  O   UNL     1      27.943  41.934  51.127  1.00  0.00    -0.272 OA
BRANCH  10  13
HETATM   13  C   UNL     1      28.035  40.763  48.509  1.00  0.00     0.120 C 
HETATM   14  C   UNL     1      28.131  40.903  46.990  1.00  0.00     0.038 C 
BRANCH  13  15
HETATM   15  C   UNL     1      27.774  39.336  48.926  1.00  0.00     0.005 A 
HETATM   16  S   UNL     1      28.903  38.465  49.893  1.00  0.00    -0.104 SA
HETATM   17  C   UNL     1      27.923  37.066  49.900  1.00  0.00     0.050 A 
HETATM   18  C   UNL     1      26.764  37.244  49.182  1.00  0.00     0.008 A 
HETATM   19  C   UNL     1      26.677  38.551  48.621  1.00  0.00     0.017 A 
ENDBRANCH  13  15
ENDBRANCH  10  13
ENDBRANCH   8   9
ENDBRANCH   1   8
BRANCH   5  20
HETATM   20  N   UNL     1      23.972  47.401  50.237  1.00  0.00    -0.338 N 
HETATM   21  C   UNL     1      23.441  48.506  49.619  1.00  0.00     0.321 C 
HETATM   22  N   UNL     1      22.077  48.425  49.497  1.00  0.00    -0.309 N 
HETATM   23  O   UNL     1      24.130  49.473  49.317  1.00  0.00    -0.247 OA
HETATM   24  H   UNL     1      21.618  47.704  50.036  1.00  0.00     0.170 HD
HETATM   25  H   UNL     1      23.420  46.553  50.175  1.00  0.00     0.164 HD
BRANCH  22  26
HETATM   26  C   UNL     1      21.233  49.437  48.985  1.00  0.00     0.036 A 
HETATM   27  C   UNL     1      20.926  50.610  49.679  1.00  0.00     0.029 A 
HETATM   28  C   UNL     1      20.051  51.552  49.131  1.00  0.00     0.002 A 
HETATM   29  C   UNL     1      19.479  51.330  47.881  1.00  0.00     0.000 A 
HETATM   30  C   UNL     1      19.795  50.173  47.172  1.00  0.00     0.002 A 
HETATM   31  C   UNL     1      20.677  49.235  47.716  1.00  0.00     0.029 A 
ENDBRANCH  22  26
ENDBRANCH   5  20
TORSDOF 6
ENDMDL
MODEL 9
REMARK VINA RESULT:      -7.7      3.725      8.496
REMARK  6 active torsions:
REMARK  status: ('A' for Active; 'I' for Inactive)
REMARK    1  A    between atoms: C_2  and  N_3 
REMARK    2  A    between atoms: C_2  and  C_24 
REMARK       I    between atoms: N_3  and  C_4 
REMARK    3  A    between atoms: C_4  and  C_5 
REMARK    4  A    between atoms: C_5  and  N_6 
REMARK    5  A    between atoms: C_10  and  N_11 
REMARK       I    between atoms: N_11  and  C_12 
REMARK       I    between atoms: C_12  and  N_13 
REMARK    6  A    between atoms: N_13  and  C_14 
ROOT
HETATM    1  N   UNL     1      26.482  44.566  51.073  1.00  0.00    -0.063 N 
HETATM    2  H   UNL     1      27.482  44.540  51.320  1.00  0.00     0.280 HD
HETATM    3  C   UNL     1      26.401  45.203  49.705  1.00  0.00     0.237 C 
HETATM    4  C   UNL     1      26.509  46.712  49.768  1.00  0.00     0.053 C 
HETATM    5  C   UNL     1      25.525  47.349  50.741  1.00  0.00     0.089 C 
HETATM    6  C   UNL     1      25.690  46.741  52.130  1.00  0.00     0.053 C 
HETATM    7  C   UNL     1      25.713  45.224  52.191  1.00  0.00     0.237 C 
ENDROOT
BRANCH   1   8
HETATM    8  C   UNL     1      26.047  43.086  50.992  1.00  0.00     0.337 C 
BRANCH   8   9
HETATM    9  C   UNL     1      24.594  42.915  50.550  1.00  0.00     0.244 C 
HETATM   10  N   UNL     1      24.430  42.518  49.247  1.00  0.00    -0.351 N 
HETATM   11  H   UNL     1      25.231  42.336  48.650  1.00  0.00     0.163 HD
HETATM   12  O   UNL     1      23.678  43.056  51.355  1.00  0.00    -0.272 OA
BRANCH  10  13
HETATM   13  C   UNL     1      23.128  42.236  48.661  1.00  0.00     0.120 C 
HETATM   14  C   UNL     1      23.145  40.966  47.810  1.00  0.00     0.038 C 
BRANCH  13  15
HETATM   15  C   UNL     1      22.711  43.444  47.858  1.00  0.00     0.005 A 
HETATM   16  S   UNL     1      21.852  44.749  48.583  1.00  0.00    -0.104 SA
HETATM   17  C   UNL     1      21.784  45.614  47.111  1.00  0.00     0.050 A 
HETATM   18  C   UNL     1      22.393  44.932  46.083  1.00  0.00     0.008 A 
HETATM   19  C   UNL     1      22.928  43.682  46.513  1.00  0.00     0.017 A 
ENDBRANCH  13  15
ENDBRANCH  10  13
ENDBRANCH   8   9
ENDBRANCH   1   8
BRANCH   5  20
HETATM   20  N   UNL     1      24.159  47.428  50.215  1.00  0.00    -0.338 N 
HETATM   21  C   UNL     1      23.582  48.494  49.571  1.00  0.00     0.321 C 
HETATM   22  N   UNL     1      22.215  48.388  49.518  1.00  0.00    -0.309 N 
HETATM   23  O   UNL     1      24.240  49.455  49.191  1.00  0.00    -0.247 OA
HETATM   24  H   UNL     1      21.794  47.688  50.112  1.00  0.00     0.170 HD
HETATM   25  H   UNL     1      23.619  46.571  50.219  1.00  0.00     0.164 HD
BRANCH  22  26
HETATM   26  C   UNL     1      21.332  49.362  48.999  1.00  0.00     0.036 A 
HETATM   27  C   UNL     1      20.837  49.338  47.693  1.00  0.00     0.029 A 
HETATM   28  C   UNL     1      19.999  50.356  47.231  1.00  0.00     0.002 A 
HETATM   29  C   UNL     1      19.645  51.406  48.074  1.00  0.00     0.000 A 
HETATM   30  C   UNL     1      20.116  51.429  49.385  1.00  0.00     0.002 A 
HETATM   31  C   UNL     1      20.947  50.406  49.849  1.00  0.00     0.029 A 
ENDBRANCH  22  26
ENDBRANCH   5  20
TORSDOF 6
ENDMDL
MODEL 10
REMARK VINA RESULT:      -7.6      4.165      6.310
REMARK  6 active torsions:
REMARK  status: ('A' for Active; 'I' for Inactive)
REMARK    1  A    between atoms: C_2  and  N_3 
REMARK    2  A    between atoms: C_2  and  C_24 
REMARK       I    between atoms: N_3  and  C_4 
REMARK    3  A    between atoms: C_4  and  C_5 
REMARK    4  A    between atoms: C_5  and  N_6 
REMARK    5  A    between atoms: C_10  and  N_11 
REMARK       I    between atoms: N_11  and  C_12 
REMARK       I    between atoms: C_12  and  N_13 
REMARK    6  A    between atoms: N_13  and  C_14 
ROOT
HETATM    1  N   UNL     1      21.360  50.207  49.195  1.00  0.00    -0.063 N 
HETATM    2  H   UNL     1      21.176  50.623  48.270  1.00  0.00     0.280 HD
HETATM    3  C   UNL     1      22.805  50.510  49.515  1.00  0.00     0.237 C 
HETATM    4  C   UNL     1      23.759  49.568  48.810  1.00  0.00     0.053 C 
HETATM    5  C   UNL     1      23.433  48.097  49.034  1.00  0.00     0.089 C 
HETATM    6  C   UNL     1      21.992  47.808  48.623  1.00  0.00     0.053 C 
HETATM    7  C   UNL     1      20.943  48.757  49.176  1.00  0.00     0.237 C 
ENDROOT
BRANCH   1   8
HETATM    8  C   UNL     1      20.433  50.964  50.171  1.00  0.00     0.337 C 
BRANCH   8   9
HETATM    9  C   UNL     1      18.990  50.465  50.132  1.00  0.00     0.244 C 
HETATM   10  N   UNL     1      18.278  50.845  49.022  1.00  0.00    -0.351 N 
HETATM   11  H   UNL     1      18.709  51.395  48.286  1.00  0.00     0.163 HD
HETATM   12  O   UNL     1      18.565  49.719  51.009  1.00  0.00    -0.272 OA
BRANCH  10  13
HETATM   13  C   UNL     1      16.911  50.412  48.770  1.00  0.00     0.120 C 
HETATM   14  C   UNL     1      16.791  49.617  47.470  1.00  0.00     0.038 C 
BRANCH  13  15
HETATM   15  C   UNL     1      16.032  51.641  48.759  1.00  0.00     0.005 A 
HETATM   16  S   UNL     1      15.528  52.368  47.282  1.00  0.00    -0.104 SA
HETATM   17  C   UNL     1      14.650  53.584  48.099  1.00  0.00     0.050 A 
HETATM   18  C   UNL     1      14.737  53.453  49.466  1.00  0.00     0.008 A 
HETATM   19  C   UNL     1      15.532  52.333  49.847  1.00  0.00     0.017 A 
ENDBRANCH  13  15
ENDBRANCH  10  13
ENDBRANCH   8   9
ENDBRANCH   1   8
BRANCH   5  20
HETATM   20  N   UNL     1      23.853  47.604  50.348  1.00  0.00    -0.338 N 
HETATM   21  C   UNL     1      25.096  47.134  50.696  1.00  0.00     0.321 C 
HETATM   22  N   UNL     1      25.072  46.434  51.876  1.00  0.00    -0.309 N 
HETATM   23  O   UNL     1      26.066  47.261  49.959  1.00  0.00    -0.247 OA
HETATM   24  H   UNL     1      24.162  46.174  52.227  1.00  0.00     0.170 HD
HETATM   25  H   UNL     1      23.201  47.731  51.113  1.00  0.00     0.164 HD
BRANCH  22  26
HETATM   26  C   UNL     1      26.170  45.755  52.453  1.00  0.00     0.036 A 
HETATM   27  C   UNL     1      26.768  44.629  51.882  1.00  0.00     0.029 A 
HETATM   28  C   UNL     1      27.824  43.981  52.527  1.00  0.00     0.002 A 
HETATM   29  C   UNL     1      28.294  44.456  53.749  1.00  0.00     0.000 A 
HETATM   30  C   UNL     1      27.719  45.591  54.316  1.00  0.00     0.002 A 
HETATM   31  C   UNL     1      26.668  46.244  53.666  1.00  0.00     0.029 A 
ENDBRANCH  22  26
ENDBRANCH   5  20
TORSDOF 6
ENDMDL
