MODEL 1
REMARK VINA RESULT:      -9.7      0.000      0.000
REMARK  5 active torsions:
REMARK  status: ('A' for Active; 'I' for Inactive)
REMARK    1  A    between atoms: O_2  and  C_3 
REMARK    2  A    between atoms: C_4  and  N_5 
REMARK    3  A    between atoms: N_5  and  C_6 
REMARK    4  A    between atoms: C_6  and  C_7 
REMARK    5  A    between atoms: C_15  and  C_16 
ROOT
HETATM    1  C   UNL     1      25.858  46.110  52.406  1.00  0.00     0.120 A 
HETATM    2  N   UNL     1      26.786  45.229  52.612  1.00  0.00    -0.233 NA
HETATM    3  C   UNL     1      27.550  45.333  53.784  1.00  0.00     0.075 A 
HETATM    4  C   UNL     1      27.320  46.316  54.747  1.00  0.00     0.061 A 
HETATM    5  C   UNL     1      26.235  47.277  54.487  1.00  0.00     0.259 A 
HETATM    6  O   UNL     1      25.965  48.181  55.269  1.00  0.00    -0.267 OA
HETATM    7  N   UNL     1      25.561  47.104  53.308  1.00  0.00    -0.310 N 
HETATM    8  C   UNL     1      28.605  44.438  53.975  1.00  0.00     0.048 A 
HETATM    9  C   UNL     1      29.424  44.517  55.115  1.00  0.00     0.050 A 
HETATM   10  C   UNL     1      29.164  45.511  56.074  1.00  0.00     0.017 A 
HETATM   11  C   UNL     1      28.113  46.411  55.894  1.00  0.00     0.020 A 
HETATM   12  H   UNL     1      24.872  47.809  53.088  1.00  0.00     0.170 HD
ENDROOT
BRANCH   1  13
HETATM   13  C   UNL     1      25.033  46.111  51.123  1.00  0.00     0.171 C 
BRANCH  13  14
HETATM   14  N   UNL     1      24.353  47.402  50.889  1.00  0.00    -0.284 NA
HETATM   15  H   UNL     1      24.406  47.944  51.753  1.00  0.00     0.128 HD
BRANCH  14  16
HETATM   16  C   UNL     1      24.974  48.197  49.891  1.00  0.00     0.042 A 
HETATM   17  C   UNL     1      24.210  49.045  49.065  1.00  0.00     0.089 A 
HETATM   18  C   UNL     1      24.846  49.882  48.145  1.00  0.00     0.038 A 
HETATM   19  C   UNL     1      26.239  49.862  48.027  1.00  0.00     0.003 A 
HETATM   20  C   UNL     1      26.998  49.010  48.825  1.00  0.00     0.002 A 
HETATM   21  C   UNL     1      26.367  48.183  49.754  1.00  0.00     0.026 A 
BRANCH  17  22
HETATM   22  O   UNL     1      22.849  49.008  49.260  1.00  0.00    -0.354 OA
HETATM   23  C   UNL     1      22.246  50.280  49.480  1.00  0.00     0.210 C 
ENDBRANCH  17  22
ENDBRANCH  14  16
ENDBRANCH  13  14
ENDBRANCH   1  13
BRANCH   9  24
HETATM   24  C   UNL     1      30.589  43.575  55.298  1.00  0.00     0.417 C 
HETATM   25  F   UNL     1      31.717  44.182  55.759  1.00  0.00    -0.166 F 
HETATM   26  F   UNL     1      30.311  42.578  56.183  1.00  0.00    -0.166 F 
HETATM   27  F   UNL     1      30.945  42.957  54.138  1.00  0.00    -0.166 F 
ENDBRANCH   9  24
TORSDOF 5
ENDMDL
MODEL 2
REMARK VINA RESULT:      -9.2      1.970      2.655
REMARK  5 active torsions:
REMARK  status: ('A' for Active; 'I' for Inactive)
REMARK    1  A    between atoms: O_2  and  C_3 
REMARK    2  A    between atoms: C_4  and  N_5 
REMARK    3  A    between atoms: N_5  and  C_6 
REMARK    4  A    between atoms: C_6  and  C_7 
REMARK    5  A    between atoms: C_15  and  C_16 
ROOT
HETATM    1  C   UNL     1      26.613  45.961  52.888  1.00  0.00     0.120 A 
HETATM    2  N   UNL     1      27.196  46.324  53.987  1.00  0.00    -0.233 NA
HETATM    3  C   UNL     1      28.209  45.501  54.502  1.00  0.00     0.075 A 
HETATM    4  C   UNL     1      28.635  44.339  53.856  1.00  0.00     0.061 A 
HETATM    5  C   UNL     1      27.967  43.982  52.594  1.00  0.00     0.259 A 
HETATM    6  O   UNL     1      28.266  42.977  51.961  1.00  0.00    -0.267 OA
HETATM    7  N   UNL     1      26.980  44.839  52.185  1.00  0.00    -0.310 N 
HETATM    8  C   UNL     1      28.787  45.839  55.727  1.00  0.00     0.048 A 
HETATM    9  C   UNL     1      29.782  45.033  56.307  1.00  0.00     0.050 A 
HETATM   10  C   UNL     1      30.199  43.874  55.631  1.00  0.00     0.017 A 
HETATM   11  C   UNL     1      29.630  43.525  54.406  1.00  0.00     0.020 A 
HETATM   12  H   UNL     1      26.464  44.554  51.364  1.00  0.00     0.170 HD
ENDROOT
BRANCH   1  13
HETATM   13  C   UNL     1      25.454  46.761  52.302  1.00  0.00     0.171 C 
BRANCH  13  14
HETATM   14  N   UNL     1      25.239  46.478  50.868  1.00  0.00    -0.284 NA
HETATM   15  H   UNL     1      24.238  46.326  50.725  1.00  0.00     0.128 HD
BRANCH  14  16
HETATM   16  C   UNL     1      25.593  47.558  50.018  1.00  0.00     0.042 A 
HETATM   17  C   UNL     1      24.600  48.353  49.411  1.00  0.00     0.089 A 
HETATM   18  C   UNL     1      24.966  49.462  48.644  1.00  0.00     0.038 A 
HETATM   19  C   UNL     1      26.317  49.770  48.459  1.00  0.00     0.003 A 
HETATM   20  C   UNL     1      27.303  48.975  49.038  1.00  0.00     0.002 A 
HETATM   21  C   UNL     1      26.941  47.875  49.815  1.00  0.00     0.026 A 
BRANCH  17  22
HETATM   22  O   UNL     1      23.299  47.984  49.658  1.00  0.00    -0.354 OA
HETATM   23  C   UNL     1      22.319  48.797  49.020  1.00  0.00     0.210 C 
ENDBRANCH  17  22
ENDBRANCH  14  16
ENDBRANCH  13  14
ENDBRANCH   1  13
BRANCH   9  24
HETATM   24  C   UNL     1      30.374  45.380  57.651  1.00  0.00     0.417 C 
HETATM   25  F   UNL     1      31.367  44.537  58.046  1.00  0.00    -0.166 F 
HETATM   26  F   UNL     1      30.913  46.630  57.670  1.00  0.00    -0.166 F 
HETATM   27  F   UNL     1      29.447  45.357  58.649  1.00  0.00    -0.166 F 
ENDBRANCH   9  24
TORSDOF 5
ENDMDL
MODEL 3
REMARK VINA RESULT:      -9.1      1.334      2.218
REMARK  5 active torsions:
REMARK  status: ('A' for Active; 'I' for Inactive)
REMARK    1  A    between atoms: O_2  and  C_3 
REMARK    2  A    between atoms: C_4  and  N_5 
REMARK    3  A    between atoms: N_5  and  C_6 
REMARK    4  A    between atoms: C_6  and  C_7 
REMARK    5  A    between atoms: C_15  and  C_16 
ROOT
HETATM    1  C   UNL     1      25.489  45.282  52.422  1.00  0.00     0.120 A 
HETATM    2  N   UNL     1      26.463  44.486  52.737  1.00  0.00    -0.233 NA
HETATM    3  C   UNL     1      27.346  44.890  53.749  1.00  0.00     0.075 A 
HETATM    4  C   UNL     1      27.191  46.087  54.450  1.00  0.00     0.061 A 
HETATM    5  C   UNL     1      26.053  46.945  54.081  1.00  0.00     0.259 A 
HETATM    6  O   UNL     1      25.840  48.017  54.632  1.00  0.00    -0.267 OA
HETATM    7  N   UNL     1      25.260  46.471  53.070  1.00  0.00    -0.310 N 
HETATM    8  C   UNL     1      28.445  44.079  54.039  1.00  0.00     0.048 A 
HETATM    9  C   UNL     1      29.381  44.450  55.020  1.00  0.00     0.050 A 
HETATM   10  C   UNL     1      29.195  45.656  55.718  1.00  0.00     0.017 A 
HETATM   11  C   UNL     1      28.101  46.475  55.437  1.00  0.00     0.020 A 
HETATM   12  H   UNL     1      24.527  47.094  52.758  1.00  0.00     0.170 HD
ENDROOT
BRANCH   1  13
HETATM   13  C   UNL     1      24.529  44.950  51.283  1.00  0.00     0.171 C 
BRANCH  13  14
HETATM   14  N   UNL     1      24.994  45.471  49.982  1.00  0.00    -0.284 NA
HETATM   15  H   UNL     1      24.907  44.719  49.294  1.00  0.00     0.128 HD
BRANCH  14  16
HETATM   16  C   UNL     1      24.207  46.543  49.487  1.00  0.00     0.042 A 
HETATM   17  C   UNL     1      24.627  47.879  49.644  1.00  0.00     0.089 A 
HETATM   18  C   UNL     1      23.882  48.917  49.078  1.00  0.00     0.038 A 
HETATM   19  C   UNL     1      22.707  48.633  48.377  1.00  0.00     0.003 A 
HETATM   20  C   UNL     1      22.275  47.316  48.238  1.00  0.00     0.002 A 
HETATM   21  C   UNL     1      23.023  46.277  48.790  1.00  0.00     0.026 A 
BRANCH  17  22
HETATM   22  O   UNL     1      25.801  48.063  50.337  1.00  0.00    -0.354 OA
HETATM   23  C   UNL     1      26.903  48.483  49.537  1.00  0.00     0.210 C 
ENDBRANCH  17  22
ENDBRANCH  14  16
ENDBRANCH  13  14
ENDBRANCH   1  13
BRANCH   9  24
HETATM   24  C   UNL     1      30.590  43.592  55.302  1.00  0.00     0.417 C 
HETATM   25  F   UNL     1      30.394  42.676  56.290  1.00  0.00    -0.166 F 
HETATM   26  F   UNL     1      30.985  42.884  54.208  1.00  0.00    -0.166 F 
HETATM   27  F   UNL     1      31.672  44.326  55.683  1.00  0.00    -0.166 F 
ENDBRANCH   9  24
TORSDOF 5
ENDMDL
MODEL 4
REMARK VINA RESULT:      -9.0      2.416      3.639
REMARK  5 active torsions:
REMARK  status: ('A' for Active; 'I' for Inactive)
REMARK    1  A    between atoms: O_2  and  C_3 
REMARK    2  A    between atoms: C_4  and  N_5 
REMARK    3  A    between atoms: N_5  and  C_6 
REMARK    4  A    between atoms: C_6  and  C_7 
REMARK    5  A    between atoms: C_15  and  C_16 
ROOT
HETATM    1  C   UNL     1      27.260  44.930  52.967  1.00  0.00     0.120 A 
HETATM    2  N   UNL     1      27.669  45.455  54.079  1.00  0.00    -0.233 NA
HETATM    3  C   UNL     1      28.770  44.870  54.722  1.00  0.00     0.075 A 
HETATM    4  C   UNL     1      29.459  43.780  54.190  1.00  0.00     0.061 A 
HETATM    5  C   UNL     1      28.981  43.235  52.909  1.00  0.00     0.259 A 
HETATM    6  O   UNL     1      29.515  42.274  52.369  1.00  0.00    -0.267 OA
HETATM    7  N   UNL     1      27.889  43.863  52.371  1.00  0.00    -0.310 N 
HETATM    8  C   UNL     1      29.167  45.377  55.961  1.00  0.00     0.048 A 
HETATM    9  C   UNL     1      30.242  44.808  56.666  1.00  0.00     0.050 A 
HETATM   10  C   UNL     1      30.925  43.717  56.103  1.00  0.00     0.017 A 
HETATM   11  C   UNL     1      30.538  43.201  54.865  1.00  0.00     0.020 A 
HETATM   12  H   UNL     1      27.508  43.443  51.535  1.00  0.00     0.170 HD
ENDROOT
BRANCH   1  13
HETATM   13  C   UNL     1      26.026  45.461  52.244  1.00  0.00     0.171 C 
BRANCH  13  14
HETATM   14  N   UNL     1      26.268  45.688  50.804  1.00  0.00    -0.284 NA
HETATM   15  H   UNL     1      26.294  44.776  50.343  1.00  0.00     0.128 HD
BRANCH  14  16
HETATM   16  C   UNL     1      25.233  46.419  50.164  1.00  0.00     0.042 A 
HETATM   17  C   UNL     1      25.394  47.786  49.866  1.00  0.00     0.089 A 
HETATM   18  C   UNL     1      24.399  48.469  49.162  1.00  0.00     0.038 A 
HETATM   19  C   UNL     1      23.233  47.803  48.774  1.00  0.00     0.003 A 
HETATM   20  C   UNL     1      23.059  46.456  49.086  1.00  0.00     0.002 A 
HETATM   21  C   UNL     1      24.056  45.769  49.777  1.00  0.00     0.026 A 
BRANCH  17  22
HETATM   22  O   UNL     1      26.577  48.356  50.274  1.00  0.00    -0.354 OA
HETATM   23  C   UNL     1      27.431  48.777  49.214  1.00  0.00     0.210 C 
ENDBRANCH  17  22
ENDBRANCH  14  16
ENDBRANCH  13  14
ENDBRANCH   1  13
BRANCH   9  24
HETATM   24  C   UNL     1      30.642  45.332  58.024  1.00  0.00     0.417 C 
HETATM   25  F   UNL     1      31.771  44.758  58.522  1.00  0.00    -0.166 F 
HETATM   26  F   UNL     1      30.877  46.673  58.010  1.00  0.00    -0.166 F 
HETATM   27  F   UNL     1      29.676  45.131  58.963  1.00  0.00    -0.166 F 
ENDBRANCH   9  24
TORSDOF 5
ENDMDL
MODEL 5
REMARK VINA RESULT:      -8.9      4.211      5.281
REMARK  5 active torsions:
REMARK  status: ('A' for Active; 'I' for Inactive)
REMARK    1  A    between atoms: O_2  and  C_3 
REMARK    2  A    between atoms: C_4  and  N_5 
REMARK    3  A    between atoms: N_5  and  C_6 
REMARK    4  A    between atoms: C_6  and  C_7 
REMARK    5  A    between atoms: C_15  and  C_16 
ROOT
HETATM    1  C   UNL     1      27.147  44.507  53.115  1.00  0.00     0.120 A 
HETATM    2  N   UNL     1      27.537  45.097  54.202  1.00  0.00    -0.233 NA
HETATM    3  C   UNL     1      28.719  44.649  54.810  1.00  0.00     0.075 A 
HETATM    4  C   UNL     1      29.504  43.630  54.269  1.00  0.00     0.061 A 
HETATM    5  C   UNL     1      29.041  43.010  53.017  1.00  0.00     0.259 A 
HETATM    6  O   UNL     1      29.657  42.102  52.472  1.00  0.00    -0.267 OA
HETATM    7  N   UNL     1      27.867  43.503  52.513  1.00  0.00    -0.310 N 
HETATM    8  C   UNL     1      29.104  45.223  56.024  1.00  0.00     0.048 A 
HETATM    9  C   UNL     1      30.261  44.790  56.694  1.00  0.00     0.050 A 
HETATM   10  C   UNL     1      31.039  43.768  56.123  1.00  0.00     0.017 A 
HETATM   11  C   UNL     1      30.665  43.188  54.911  1.00  0.00     0.020 A 
HETATM   12  H   UNL     1      27.503  43.026  51.699  1.00  0.00     0.170 HD
ENDROOT
BRANCH   1  13
HETATM   13  C   UNL     1      25.836  44.884  52.433  1.00  0.00     0.171 C 
BRANCH  13  14
HETATM   14  N   UNL     1      24.887  43.753  52.366  1.00  0.00    -0.284 NA
HETATM   15  H   UNL     1      24.030  44.035  52.848  1.00  0.00     0.128 HD
BRANCH  14  16
HETATM   16  C   UNL     1      24.498  43.417  51.044  1.00  0.00     0.042 A 
HETATM   17  C   UNL     1      25.109  42.345  50.363  1.00  0.00     0.089 A 
HETATM   18  C   UNL     1      24.656  41.977  49.093  1.00  0.00     0.038 A 
HETATM   19  C   UNL     1      23.615  42.685  48.488  1.00  0.00     0.003 A 
HETATM   20  C   UNL     1      23.022  43.759  49.147  1.00  0.00     0.002 A 
HETATM   21  C   UNL     1      23.462  44.122  50.420  1.00  0.00     0.026 A 
BRANCH  17  22
HETATM   22  O   UNL     1      26.116  41.698  51.039  1.00  0.00    -0.354 OA
HETATM   23  C   UNL     1      26.293  40.332  50.676  1.00  0.00     0.210 C 
ENDBRANCH  17  22
ENDBRANCH  14  16
ENDBRANCH  13  14
ENDBRANCH   1  13
BRANCH   9  24
HETATM   24  C   UNL     1      30.652  45.383  58.027  1.00  0.00     0.417 C 
HETATM   25  F   UNL     1      31.788  44.848  58.553  1.00  0.00    -0.166 F 
HETATM   26  F   UNL     1      30.870  46.724  57.949  1.00  0.00    -0.166 F 
HETATM   27  F   UNL     1      29.687  45.214  58.973  1.00  0.00    -0.166 F 
ENDBRANCH   9  24
TORSDOF 5
ENDMDL
MODEL 6
REMARK VINA RESULT:      -8.8      1.435      1.912
REMARK  5 active torsions:
REMARK  status: ('A' for Active; 'I' for Inactive)
REMARK    1  A    between atoms: O_2  and  C_3 
REMARK    2  A    between atoms: C_4  and  N_5 
REMARK    3  A    between atoms: N_5  and  C_6 
REMARK    4  A    between atoms: C_6  and  C_7 
REMARK    5  A    between atoms: C_15  and  C_16 
ROOT
HETATM    1  C   UNL     1      25.393  46.177  51.041  1.00  0.00     0.120 A 
HETATM    2  N   UNL     1      26.203  45.177  51.194  1.00  0.00    -0.233 NA
HETATM    3  C   UNL     1      26.900  45.070  52.407  1.00  0.00     0.075 A 
HETATM    4  C   UNL     1      26.724  45.970  53.458  1.00  0.00     0.061 A 
HETATM    5  C   UNL     1      25.771  47.073  53.253  1.00  0.00     0.259 A 
HETATM    6  O   UNL     1      25.556  47.917  54.113  1.00  0.00    -0.267 OA
HETATM    7  N   UNL     1      25.155  47.101  52.030  1.00  0.00    -0.310 N 
HETATM    8  C   UNL     1      27.835  44.042  52.551  1.00  0.00     0.048 A 
HETATM    9  C   UNL     1      28.587  43.907  53.730  1.00  0.00     0.050 A 
HETATM   10  C   UNL     1      28.383  44.822  54.778  1.00  0.00     0.017 A 
HETATM   11  C   UNL     1      27.451  45.852  54.646  1.00  0.00     0.020 A 
HETATM   12  H   UNL     1      24.562  47.901  51.855  1.00  0.00     0.170 HD
ENDROOT
BRANCH   1  13
HETATM   13  C   UNL     1      24.653  46.406  49.727  1.00  0.00     0.171 C 
BRANCH  13  14
HETATM   14  N   UNL     1      23.404  47.174  49.908  1.00  0.00    -0.284 NA
HETATM   15  H   UNL     1      23.336  47.434  50.894  1.00  0.00     0.128 HD
BRANCH  14  16
HETATM   16  C   UNL     1      23.377  48.393  49.181  1.00  0.00     0.042 A 
HETATM   17  C   UNL     1      22.153  49.001  48.838  1.00  0.00     0.089 A 
HETATM   18  C   UNL     1      22.147  50.242  48.196  1.00  0.00     0.038 A 
HETATM   19  C   UNL     1      23.353  50.869  47.871  1.00  0.00     0.003 A 
HETATM   20  C   UNL     1      24.566  50.261  48.188  1.00  0.00     0.002 A 
HETATM   21  C   UNL     1      24.576  49.029  48.841  1.00  0.00     0.026 A 
BRANCH  17  22
HETATM   22  O   UNL     1      21.018  48.320  49.208  1.00  0.00    -0.354 OA
HETATM   23  C   UNL     1      19.942  49.148  49.640  1.00  0.00     0.210 C 
ENDBRANCH  17  22
ENDBRANCH  14  16
ENDBRANCH  13  14
ENDBRANCH   1  13
BRANCH   9  24
HETATM   24  C   UNL     1      29.627  42.822  53.866  1.00  0.00     0.417 C 
HETATM   25  F   UNL     1      30.894  43.293  54.031  1.00  0.00    -0.166 F 
HETATM   26  F   UNL     1      29.388  42.010  54.934  1.00  0.00    -0.166 F 
HETATM   27  F   UNL     1      29.671  42.005  52.778  1.00  0.00    -0.166 F 
ENDBRANCH   9  24
TORSDOF 5
ENDMDL
MODEL 7
REMARK VINA RESULT:      -8.7      5.119      8.591
REMARK  5 active torsions:
REMARK  status: ('A' for Active; 'I' for Inactive)
REMARK    1  A    between atoms: O_2  and  C_3 
REMARK    2  A    between atoms: C_4  and  N_5 
REMARK    3  A    between atoms: N_5  and  C_6 
REMARK    4  A    between atoms: C_6  and  C_7 
REMARK    5  A    between atoms: C_15  and  C_16 
ROOT
HETATM    1  C   UNL     1      25.487  46.849  50.545  1.00  0.00     0.120 A 
HETATM    2  N   UNL     1      24.274  47.223  50.282  1.00  0.00    -0.233 NA
HETATM    3  C   UNL     1      24.091  48.354  49.472  1.00  0.00     0.075 A 
HETATM    4  C   UNL     1      25.157  49.058  48.911  1.00  0.00     0.061 A 
HETATM    5  C   UNL     1      26.517  48.579  49.210  1.00  0.00     0.259 A 
HETATM    6  O   UNL     1      27.515  49.137  48.772  1.00  0.00    -0.267 OA
HETATM    7  N   UNL     1      26.591  47.481  50.024  1.00  0.00    -0.310 N 
HETATM    8  C   UNL     1      22.791  48.813  49.250  1.00  0.00     0.048 A 
HETATM    9  C   UNL     1      22.550  49.960  48.474  1.00  0.00     0.050 A 
HETATM   10  C   UNL     1      23.642  50.645  47.913  1.00  0.00     0.017 A 
HETATM   11  C   UNL     1      24.945  50.196  48.128  1.00  0.00     0.020 A 
HETATM   12  H   UNL     1      27.522  47.199  50.298  1.00  0.00     0.170 HD
ENDROOT
BRANCH   1  13
HETATM   13  C   UNL     1      25.772  45.675  51.476  1.00  0.00     0.171 C 
BRANCH  13  14
HETATM   14  N   UNL     1      25.603  46.029  52.901  1.00  0.00    -0.284 NA
HETATM   15  H   UNL     1      24.925  45.380  53.306  1.00  0.00     0.128 HD
BRANCH  14  16
HETATM   16  C   UNL     1      26.789  45.881  53.666  1.00  0.00     0.042 A 
HETATM   17  C   UNL     1      27.212  46.897  54.545  1.00  0.00     0.089 A 
HETATM   18  C   UNL     1      28.336  46.700  55.352  1.00  0.00     0.038 A 
HETATM   19  C   UNL     1      29.055  45.505  55.269  1.00  0.00     0.003 A 
HETATM   20  C   UNL     1      28.655  44.506  54.385  1.00  0.00     0.002 A 
HETATM   21  C   UNL     1      27.526  44.694  53.589  1.00  0.00     0.026 A 
BRANCH  17  22
HETATM   22  O   UNL     1      26.436  48.033  54.570  1.00  0.00    -0.354 OA
HETATM   23  C   UNL     1      26.300  48.632  55.855  1.00  0.00     0.210 C 
ENDBRANCH  17  22
ENDBRANCH  14  16
ENDBRANCH  13  14
ENDBRANCH   1  13
BRANCH   9  24
HETATM   24  C   UNL     1      21.146  50.477  48.271  1.00  0.00     0.417 C 
HETATM   25  F   UNL     1      20.953  51.737  48.749  1.00  0.00    -0.166 F 
HETATM   26  F   UNL     1      20.798  50.517  46.956  1.00  0.00    -0.166 F 
HETATM   27  F   UNL     1      20.212  49.698  48.882  1.00  0.00    -0.166 F 
ENDBRANCH   9  24
TORSDOF 5
ENDMDL
MODEL 8
REMARK VINA RESULT:      -8.5      5.133      7.228
REMARK  5 active torsions:
REMARK  status: ('A' for Active; 'I' for Inactive)
REMARK    1  A    between atoms: O_2  and  C_3 
REMARK    2  A    between atoms: C_4  and  N_5 
REMARK    3  A    between atoms: N_5  and  C_6 
REMARK    4  A    between atoms: C_6  and  C_7 
REMARK    5  A    between atoms: C_15  and  C_16 
ROOT
HETATM    1  C   UNL     1      28.008  42.500  52.291  1.00  0.00     0.120 A 
HETATM    2  N   UNL     1      28.881  42.223  53.208  1.00  0.00    -0.233 NA
HETATM    3  C   UNL     1      29.153  43.198  54.179  1.00  0.00     0.075 A 
HETATM    4  C   UNL     1      28.493  44.426  54.217  1.00  0.00     0.061 A 
HETATM    5  C   UNL     1      27.486  44.687  53.175  1.00  0.00     0.259 A 
HETATM    6  O   UNL     1      26.863  45.740  53.120  1.00  0.00    -0.267 OA
HETATM    7  N   UNL     1      27.307  43.682  52.263  1.00  0.00    -0.310 N 
HETATM    8  C   UNL     1      30.150  42.940  55.122  1.00  0.00     0.048 A 
HETATM    9  C   UNL     1      30.489  43.894  56.098  1.00  0.00     0.050 A 
HETATM   10  C   UNL     1      29.802  45.120  56.119  1.00  0.00     0.017 A 
HETATM   11  C   UNL     1      28.803  45.389  55.183  1.00  0.00     0.020 A 
HETATM   12  H   UNL     1      26.677  43.888  51.500  1.00  0.00     0.170 HD
ENDROOT
BRANCH   1  13
HETATM   13  C   UNL     1      27.708  41.524  51.157  1.00  0.00     0.171 C 
BRANCH  13  14
HETATM   14  N   UNL     1      28.888  40.721  50.777  1.00  0.00    -0.284 NA
HETATM   15  H   UNL     1      29.097  40.086  51.550  1.00  0.00     0.128 HD
BRANCH  14  16
HETATM   16  C   UNL     1      28.670  39.895  49.643  1.00  0.00     0.042 A 
HETATM   17  C   UNL     1      29.224  38.601  49.577  1.00  0.00     0.089 A 
HETATM   18  C   UNL     1      28.930  37.771  48.492  1.00  0.00     0.038 A 
HETATM   19  C   UNL     1      28.108  38.232  47.460  1.00  0.00     0.003 A 
HETATM   20  C   UNL     1      27.576  39.518  47.510  1.00  0.00     0.002 A 
HETATM   21  C   UNL     1      27.856  40.344  48.598  1.00  0.00     0.026 A 
BRANCH  17  22
HETATM   22  O   UNL     1      30.009  38.227  50.642  1.00  0.00    -0.354 OA
HETATM   23  C   UNL     1      29.725  36.932  51.164  1.00  0.00     0.210 C 
ENDBRANCH  17  22
ENDBRANCH  14  16
ENDBRANCH  13  14
ENDBRANCH   1  13
BRANCH   9  24
HETATM   24  C   UNL     1      31.596  43.630  57.089  1.00  0.00     0.417 C 
HETATM   25  F   UNL     1      31.510  42.413  57.694  1.00  0.00    -0.166 F 
HETATM   26  F   UNL     1      32.827  43.675  56.509  1.00  0.00    -0.166 F 
HETATM   27  F   UNL     1      31.622  44.546  58.095  1.00  0.00    -0.166 F 
ENDBRANCH   9  24
TORSDOF 5
ENDMDL
MODEL 9
REMARK VINA RESULT:      -8.5      5.376      8.962
REMARK  5 active torsions:
REMARK  status: ('A' for Active; 'I' for Inactive)
REMARK    1  A    between atoms: O_2  and  C_3 
REMARK    2  A    between atoms: C_4  and  N_5 
REMARK    3  A    between atoms: N_5  and  C_6 
REMARK    4  A    between atoms: C_6  and  C_7 
REMARK    5  A    between atoms: C_15  and  C_16 
ROOT
HETATM    1  C   UNL     1      25.396  47.671  50.046  1.00  0.00     0.120 A 
HETATM    2  N   UNL     1      24.118  47.880  50.109  1.00  0.00    -0.233 NA
HETATM    3  C   UNL     1      23.590  48.963  49.390  1.00  0.00     0.075 A 
HETATM    4  C   UNL     1      24.376  49.788  48.586  1.00  0.00     0.061 A 
HETATM    5  C   UNL     1      25.817  49.494  48.519  1.00  0.00     0.259 A 
HETATM    6  O   UNL     1      26.589  50.168  47.848  1.00  0.00    -0.267 OA
HETATM    7  N   UNL     1      26.238  48.430  49.270  1.00  0.00    -0.310 N 
HETATM    8  C   UNL     1      22.228  49.246  49.516  1.00  0.00     0.048 A 
HETATM    9  C   UNL     1      21.650  50.338  48.846  1.00  0.00     0.050 A 
HETATM   10  C   UNL     1      22.463  51.148  48.034  1.00  0.00     0.017 A 
HETATM   11  C   UNL     1      23.825  50.875  47.900  1.00  0.00     0.020 A 
HETATM   12  H   UNL     1      27.237  48.275  49.292  1.00  0.00     0.170 HD
ENDROOT
BRANCH   1  13
HETATM   13  C   UNL     1      26.060  46.561  50.856  1.00  0.00     0.171 C 
BRANCH  13  14
HETATM   14  N   UNL     1      25.388  46.325  52.150  1.00  0.00    -0.284 NA
HETATM   15  H   UNL     1      24.923  45.417  52.100  1.00  0.00     0.128 HD
BRANCH  14  16
HETATM   16  C   UNL     1      26.284  46.244  53.247  1.00  0.00     0.042 A 
HETATM   17  C   UNL     1      26.769  44.997  53.691  1.00  0.00     0.089 A 
HETATM   18  C   UNL     1      27.714  44.942  54.719  1.00  0.00     0.038 A 
HETATM   19  C   UNL     1      28.161  46.120  55.324  1.00  0.00     0.003 A 
HETATM   20  C   UNL     1      27.668  47.354  54.904  1.00  0.00     0.002 A 
HETATM   21  C   UNL     1      26.735  47.413  53.869  1.00  0.00     0.026 A 
BRANCH  17  22
HETATM   22  O   UNL     1      26.284  43.893  53.030  1.00  0.00    -0.354 OA
HETATM   23  C   UNL     1      27.276  42.938  52.663  1.00  0.00     0.210 C 
ENDBRANCH  17  22
ENDBRANCH  14  16
ENDBRANCH  13  14
ENDBRANCH   1  13
BRANCH   9  24
HETATM   24  C   UNL     1      20.187  50.666  49.017  1.00  0.00     0.417 C 
HETATM   25  F   UNL     1      19.401  50.214  48.002  1.00  0.00    -0.166 F 
HETATM   26  F   UNL     1      19.669  50.132  50.158  1.00  0.00    -0.166 F 
HETATM   27  F   UNL     1      19.960  52.007  49.095  1.00  0.00    -0.166 F 
ENDBRANCH   9  24
TORSDOF 5
ENDMDL
MODEL 10
REMARK VINA RESULT:      -8.2      2.753      3.569
REMARK  5 active torsions:
REMARK  status: ('A' for Active; 'I' for Inactive)
REMARK    1  A    between atoms: O_2  and  C_3 
REMARK    2  A    between atoms: C_4  and  N_5 
REMARK    3  A    between atoms: N_5  and  C_6 
REMARK    4  A    between atoms: C_6  and  C_7 
REMARK    5  A    between atoms: C_15  and  C_16 
ROOT
HETATM    1  C   UNL     1      26.156  43.550  52.071  1.00  0.00     0.120 A 
HETATM    2  N   UNL     1      26.672  44.368  52.934  1.00  0.00    -0.233 NA
HETATM    3  C   UNL     1      27.847  43.979  53.593  1.00  0.00     0.075 A 
HETATM    4  C   UNL     1      28.497  42.774  53.324  1.00  0.00     0.061 A 
HETATM    5  C   UNL     1      27.894  41.889  52.314  1.00  0.00     0.259 A 
HETATM    6  O   UNL     1      28.385  40.807  52.017  1.00  0.00    -0.267 OA
HETATM    7  N   UNL     1      26.738  42.349  51.741  1.00  0.00    -0.310 N 
HETATM    8  C   UNL     1      28.366  44.816  54.583  1.00  0.00     0.048 A 
HETATM    9  C   UNL     1      29.522  44.461  55.299  1.00  0.00     0.050 A 
HETATM   10  C   UNL     1      30.163  43.246  55.002  1.00  0.00     0.017 A 
HETATM   11  C   UNL     1      29.654  42.401  54.015  1.00  0.00     0.020 A 
HETATM   12  H   UNL     1      26.277  41.711  51.108  1.00  0.00     0.170 HD
ENDROOT
BRANCH   1  13
HETATM   13  C   UNL     1      24.840  43.865  51.365  1.00  0.00     0.171 C 
BRANCH  13  14
HETATM   14  N   UNL     1      25.033  44.239  49.949  1.00  0.00    -0.284 NA
HETATM   15  H   UNL     1      24.272  43.822  49.409  1.00  0.00     0.128 HD
BRANCH  14  16
HETATM   16  C   UNL     1      24.955  45.636  49.717  1.00  0.00     0.042 A 
HETATM   17  C   UNL     1      23.741  46.236  49.327  1.00  0.00     0.089 A 
HETATM   18  C   UNL     1      23.662  47.624  49.183  1.00  0.00     0.038 A 
HETATM   19  C   UNL     1      24.793  48.415  49.401  1.00  0.00     0.003 A 
HETATM   20  C   UNL     1      26.002  47.826  49.764  1.00  0.00     0.002 A 
HETATM   21  C   UNL     1      26.080  46.443  49.922  1.00  0.00     0.026 A 
BRANCH  17  22
HETATM   22  O   UNL     1      22.679  45.382  49.148  1.00  0.00    -0.354 OA
HETATM   23  C   UNL     1      22.150  45.360  47.825  1.00  0.00     0.210 C 
ENDBRANCH  17  22
ENDBRANCH  14  16
ENDBRANCH  13  14
ENDBRANCH   1  13
BRANCH   9  24
HETATM   24  C   UNL     1      30.056  45.349  56.398  1.00  0.00     0.417 C 
HETATM   25  F   UNL     1      29.095  45.812  57.243  1.00  0.00    -0.166 F 
HETATM   26  F   UNL     1      30.967  44.707  57.181  1.00  0.00    -0.166 F 
HETATM   27  F   UNL     1      30.690  46.452  55.913  1.00  0.00    -0.166 F 
ENDBRANCH   9  24
TORSDOF 5
ENDMDL
