MODEL 1
REMARK VINA RESULT:     -10.2      0.000      0.000
REMARK  5 active torsions:
REMARK  status: ('A' for Active; 'I' for Inactive)
REMARK    1  A    between atoms: C_7  and  C_8 
REMARK    2  A    between atoms: N_9  and  N_10 
REMARK       I    between atoms: N_10  and  C_11 
REMARK    3  A    between atoms: C_11  and  C_12 
REMARK    4  A    between atoms: C_12  and  N_13 
REMARK       I    between atoms: N_13  and  C_14 
REMARK    5  A    between atoms: C_14  and  C_15 
ROOT
HETATM    1  N   UNL     1      24.933  46.689  51.316  1.00  0.00    -0.246 N 
HETATM    2  C   UNL     1      24.867  47.492  50.186  1.00  0.00     0.255 C 
HETATM    3  O   UNL     1      25.674  48.364  49.872  1.00  0.00    -0.270 OA
HETATM    4  H   UNL     1      24.251  45.933  51.429  1.00  0.00     0.192 HD
ENDROOT
BRANCH   1   5
HETATM    5  N   UNL     1      25.919  46.874  52.238  1.00  0.00    -0.184 NA
HETATM    6  C   UNL     1      26.141  45.872  53.024  1.00  0.00     0.153 C 
BRANCH   6   7
HETATM    7  C   UNL     1      27.149  45.966  54.067  1.00  0.00     0.018 A 
HETATM    8  C   UNL     1      27.256  46.954  55.039  1.00  0.00     0.018 A 
HETATM    9  C   UNL     1      26.425  48.160  55.306  1.00  0.00     0.069 C 
HETATM   10  N   UNL     1      28.340  46.653  55.823  1.00  0.00    -0.358 N 
HETATM   11  H   UNL     1      28.654  47.200  56.613  1.00  0.00     0.166 HD
HETATM   12  C   UNL     1      28.944  45.495  55.396  1.00  0.00     0.043 A 
HETATM   13  C   UNL     1      28.222  45.040  54.293  1.00  0.00     0.004 A 
HETATM   14  C   UNL     1      30.065  44.826  55.903  1.00  0.00     0.030 A 
HETATM   15  C   UNL     1      28.646  43.848  53.665  1.00  0.00     0.014 A 
HETATM   16  C   UNL     1      29.765  43.166  54.158  1.00  0.00     0.001 A 
HETATM   17  C   UNL     1      30.462  43.650  55.261  1.00  0.00     0.002 A 
ENDBRANCH   6   7
ENDBRANCH   1   5
BRANCH   2  18
HETATM   18  C   UNL     1      23.616  47.221  49.350  1.00  0.00     0.227 C 
BRANCH  18  19
HETATM   19  N   UNL     1      22.544  48.175  49.588  1.00  0.00    -0.348 N 
HETATM   20  C   UNL     1      22.233  49.153  48.670  1.00  0.00     0.252 C 
HETATM   21  O   UNL     1      22.901  49.348  47.659  1.00  0.00    -0.268 OA
HETATM   22  H   UNL     1      22.149  48.213  50.518  1.00  0.00     0.163 HD
BRANCH  20  23
HETATM   23  C   UNL     1      21.064  50.012  48.995  1.00  0.00     0.032 A 
HETATM   24  C   UNL     1      20.894  51.211  48.292  1.00  0.00     0.018 A 
HETATM   25  C   UNL     1      19.794  52.031  48.563  1.00  0.00     0.025 A 
HETATM   26  C   UNL     1      18.861  51.643  49.525  1.00  0.00     0.034 A 
HETATM   27 CL   UNL     1      17.502  52.646  49.851  1.00  0.00    -0.084 Cl
HETATM   28  C   UNL     1      19.016  50.443  50.218  1.00  0.00     0.025 A 
HETATM   29  C   UNL     1      20.118  49.624  49.954  1.00  0.00     0.018 A 
ENDBRANCH  20  23
ENDBRANCH  18  19
ENDBRANCH   2  18
TORSDOF 5
ENDMDL
MODEL 2
REMARK VINA RESULT:     -10.0      4.380      9.909
REMARK  5 active torsions:
REMARK  status: ('A' for Active; 'I' for Inactive)
REMARK    1  A    between atoms: C_7  and  C_8 
REMARK    2  A    between atoms: N_9  and  N_10 
REMARK       I    between atoms: N_10  and  C_11 
REMARK    3  A    between atoms: C_11  and  C_12 
REMARK    4  A    between atoms: C_12  and  N_13 
REMARK       I    between atoms: N_13  and  C_14 
REMARK    5  A    between atoms: C_14  and  C_15 
ROOT
HETATM    1  N   UNL     1      26.735  45.081  50.830  1.00  0.00    -0.246 N 
HETATM    2  C   UNL     1      26.938  43.776  50.404  1.00  0.00     0.255 C 
HETATM    3  O   UNL     1      26.976  43.395  49.236  1.00  0.00    -0.270 OA
HETATM    4  H   UNL     1      26.811  45.295  51.829  1.00  0.00     0.192 HD
ENDROOT
BRANCH   1   5
HETATM    5  N   UNL     1      26.480  46.070  49.928  1.00  0.00    -0.184 NA
HETATM    6  C   UNL     1      25.980  47.156  50.420  1.00  0.00     0.153 C 
BRANCH   6   7
HETATM    7  C   UNL     1      25.640  48.268  49.547  1.00  0.00     0.018 A 
HETATM    8  C   UNL     1      26.517  49.181  48.976  1.00  0.00     0.018 A 
HETATM    9  C   UNL     1      27.998  49.309  49.070  1.00  0.00     0.069 C 
HETATM   10  N   UNL     1      25.778  50.053  48.218  1.00  0.00    -0.358 N 
HETATM   11  H   UNL     1      26.159  50.823  47.685  1.00  0.00     0.166 HD
HETATM   12  C   UNL     1      24.443  49.736  48.274  1.00  0.00     0.043 A 
HETATM   13  C   UNL     1      24.322  48.621  49.102  1.00  0.00     0.004 A 
HETATM   14  C   UNL     1      23.347  50.350  47.656  1.00  0.00     0.030 A 
HETATM   15  C   UNL     1      23.030  48.091  49.322  1.00  0.00     0.014 A 
HETATM   16  C   UNL     1      21.923  48.692  48.711  1.00  0.00     0.001 A 
HETATM   17  C   UNL     1      22.082  49.806  47.891  1.00  0.00     0.002 A 
ENDBRANCH   6   7
ENDBRANCH   1   5
BRANCH   2  18
HETATM   18  C   UNL     1      27.067  42.795  51.570  1.00  0.00     0.227 C 
BRANCH  18  19
HETATM   19  N   UNL     1      27.608  43.399  52.777  1.00  0.00    -0.348 N 
HETATM   20  C   UNL     1      28.900  43.160  53.187  1.00  0.00     0.252 C 
HETATM   21  O   UNL     1      29.630  42.346  52.629  1.00  0.00    -0.268 OA
HETATM   22  H   UNL     1      26.958  43.861  53.401  1.00  0.00     0.163 HD
BRANCH  20  23
HETATM   23  C   UNL     1      29.356  43.902  54.391  1.00  0.00     0.032 A 
HETATM   24  C   UNL     1      28.614  45.008  54.821  1.00  0.00     0.018 A 
HETATM   25  C   UNL     1      29.008  45.715  55.962  1.00  0.00     0.025 A 
HETATM   26  C   UNL     1      30.134  45.306  56.676  1.00  0.00     0.034 A 
HETATM   27 CL   UNL     1      30.613  46.168  58.085  1.00  0.00    -0.084 Cl
HETATM   28  C   UNL     1      30.869  44.195  56.262  1.00  0.00     0.025 A 
HETATM   29  C   UNL     1      30.481  43.490  55.119  1.00  0.00     0.018 A 
ENDBRANCH  20  23
ENDBRANCH  18  19
ENDBRANCH   2  18
TORSDOF 5
ENDMDL
MODEL 3
REMARK VINA RESULT:      -9.4      1.088      1.179
REMARK  5 active torsions:
REMARK  status: ('A' for Active; 'I' for Inactive)
REMARK    1  A    between atoms: C_7  and  C_8 
REMARK    2  A    between atoms: N_9  and  N_10 
REMARK       I    between atoms: N_10  and  C_11 
REMARK    3  A    between atoms: C_11  and  C_12 
REMARK    4  A    between atoms: C_12  and  N_13 
REMARK       I    between atoms: N_13  and  C_14 
REMARK    5  A    between atoms: C_14  and  C_15 
ROOT
HETATM    1  N   UNL     1      24.995  46.549  51.314  1.00  0.00    -0.246 N 
HETATM    2  C   UNL     1      25.202  45.918  50.095  1.00  0.00     0.255 C 
HETATM    3  O   UNL     1      26.260  45.428  49.706  1.00  0.00    -0.270 OA
HETATM    4  H   UNL     1      24.046  46.841  51.567  1.00  0.00     0.192 HD
ENDROOT
BRANCH   1   5
HETATM    5  N   UNL     1      26.031  46.736  52.179  1.00  0.00    -0.184 NA
HETATM    6  C   UNL     1      26.090  45.903  53.166  1.00  0.00     0.153 C 
BRANCH   6   7
HETATM    7  C   UNL     1      27.134  46.025  54.168  1.00  0.00     0.018 A 
HETATM    8  C   UNL     1      27.279  47.041  55.105  1.00  0.00     0.018 A 
HETATM    9  C   UNL     1      26.460  48.257  55.367  1.00  0.00     0.069 C 
HETATM   10  N   UNL     1      28.390  46.760  55.859  1.00  0.00    -0.358 N 
HETATM   11  H   UNL     1      28.733  47.329  56.620  1.00  0.00     0.166 HD
HETATM   12  C   UNL     1      28.975  45.588  55.445  1.00  0.00     0.043 A 
HETATM   13  C   UNL     1      28.213  45.103  54.383  1.00  0.00     0.004 A 
HETATM   14  C   UNL     1      30.113  44.931  55.931  1.00  0.00     0.030 A 
HETATM   15  C   UNL     1      28.612  43.891  53.775  1.00  0.00     0.014 A 
HETATM   16  C   UNL     1      29.746  43.221  54.248  1.00  0.00     0.001 A 
HETATM   17  C   UNL     1      30.484  43.736  55.311  1.00  0.00     0.002 A 
ENDBRANCH   6   7
ENDBRANCH   1   5
BRANCH   2  18
HETATM   18  C   UNL     1      23.954  45.929  49.212  1.00  0.00     0.227 C 
BRANCH  18  19
HETATM   19  N   UNL     1      23.085  47.070  49.454  1.00  0.00    -0.348 N 
HETATM   20  C   UNL     1      22.266  47.574  48.469  1.00  0.00     0.252 C 
HETATM   21  O   UNL     1      22.298  47.169  47.311  1.00  0.00    -0.268 OA
HETATM   22  H   UNL     1      23.225  47.593  50.309  1.00  0.00     0.163 HD
BRANCH  20  23
HETATM   23  C   UNL     1      21.367  48.689  48.867  1.00  0.00     0.032 A 
HETATM   24  C   UNL     1      21.841  50.003  48.771  1.00  0.00     0.018 A 
HETATM   25  C   UNL     1      21.013  51.073  49.121  1.00  0.00     0.025 A 
HETATM   26  C   UNL     1      19.710  50.829  49.551  1.00  0.00     0.034 A 
HETATM   27 CL   UNL     1      18.686  52.146  49.972  1.00  0.00    -0.084 Cl
HETATM   28  C   UNL     1      19.225  49.523  49.635  1.00  0.00     0.025 A 
HETATM   29  C   UNL     1      20.053  48.450  49.292  1.00  0.00     0.018 A 
ENDBRANCH  20  23
ENDBRANCH  18  19
ENDBRANCH   2  18
TORSDOF 5
ENDMDL
MODEL 4
REMARK VINA RESULT:      -9.2      1.251      2.567
REMARK  5 active torsions:
REMARK  status: ('A' for Active; 'I' for Inactive)
REMARK    1  A    between atoms: C_7  and  C_8 
REMARK    2  A    between atoms: N_9  and  N_10 
REMARK       I    between atoms: N_10  and  C_11 
REMARK    3  A    between atoms: C_11  and  C_12 
REMARK    4  A    between atoms: C_12  and  N_13 
REMARK       I    between atoms: N_13  and  C_14 
REMARK    5  A    between atoms: C_14  and  C_15 
ROOT
HETATM    1  N   UNL     1      24.291  45.637  50.674  1.00  0.00    -0.246 N 
HETATM    2  C   UNL     1      24.184  46.934  50.191  1.00  0.00     0.255 C 
HETATM    3  O   UNL     1      24.786  47.916  50.620  1.00  0.00    -0.270 OA
HETATM    4  H   UNL     1      23.807  44.882  50.179  1.00  0.00     0.192 HD
ENDROOT
BRANCH   1   5
HETATM    5  N   UNL     1      25.063  45.367  51.763  1.00  0.00    -0.184 NA
HETATM    6  C   UNL     1      26.235  44.883  51.508  1.00  0.00     0.153 C 
BRANCH   6   7
HETATM    7  C   UNL     1      27.134  44.528  52.593  1.00  0.00     0.018 A 
HETATM    8  C   UNL     1      27.826  43.333  52.749  1.00  0.00     0.018 A 
HETATM    9  C   UNL     1      27.864  42.105  51.907  1.00  0.00     0.069 C 
HETATM   10  N   UNL     1      28.564  43.424  53.901  1.00  0.00    -0.358 N 
HETATM   11  H   UNL     1      29.168  42.698  54.261  1.00  0.00     0.166 HD
HETATM   12  C   UNL     1      28.379  44.645  54.503  1.00  0.00     0.043 A 
HETATM   13  C   UNL     1      27.485  45.362  53.708  1.00  0.00     0.004 A 
HETATM   14  C   UNL     1      28.935  45.160  55.680  1.00  0.00     0.030 A 
HETATM   15  C   UNL     1      27.129  46.666  54.116  1.00  0.00     0.014 A 
HETATM   16  C   UNL     1      27.675  47.198  55.290  1.00  0.00     0.001 A 
HETATM   17  C   UNL     1      28.565  46.453  56.059  1.00  0.00     0.002 A 
ENDBRANCH   6   7
ENDBRANCH   1   5
BRANCH   2  18
HETATM   18  C   UNL     1      23.166  47.053  49.057  1.00  0.00     0.227 C 
BRANCH  18  19
HETATM   19  N   UNL     1      22.126  48.036  49.315  1.00  0.00    -0.348 N 
HETATM   20  C   UNL     1      22.011  49.180  48.558  1.00  0.00     0.252 C 
HETATM   21  O   UNL     1      22.834  49.492  47.704  1.00  0.00    -0.268 OA
HETATM   22  H   UNL     1      21.597  47.944  50.173  1.00  0.00     0.163 HD
BRANCH  20  23
HETATM   23  C   UNL     1      20.856  50.062  48.871  1.00  0.00     0.032 A 
HETATM   24  C   UNL     1      19.940  49.651  49.846  1.00  0.00     0.018 A 
HETATM   25  C   UNL     1      18.854  50.468  50.175  1.00  0.00     0.025 A 
HETATM   26  C   UNL     1      18.696  51.699  49.539  1.00  0.00     0.034 A 
HETATM   27 CL   UNL     1      17.366  52.710  49.951  1.00  0.00    -0.084 Cl
HETATM   28  C   UNL     1      19.613  52.122  48.577  1.00  0.00     0.025 A 
HETATM   29  C   UNL     1      20.697  51.305  48.242  1.00  0.00     0.018 A 
ENDBRANCH  20  23
ENDBRANCH  18  19
ENDBRANCH   2  18
TORSDOF 5
ENDMDL
MODEL 5
REMARK VINA RESULT:      -9.0      1.557      2.313
REMARK  5 active torsions:
REMARK  status: ('A' for Active; 'I' for Inactive)
REMARK    1  A    between atoms: C_7  and  C_8 
REMARK    2  A    between atoms: N_9  and  N_10 
REMARK       I    between atoms: N_10  and  C_11 
REMARK    3  A    between atoms: C_11  and  C_12 
REMARK    4  A    between atoms: C_12  and  N_13 
REMARK       I    between atoms: N_13  and  C_14 
REMARK    5  A    between atoms: C_14  and  C_15 
ROOT
HETATM    1  N   UNL     1      26.084  45.252  52.521  1.00  0.00    -0.246 N 
HETATM    2  C   UNL     1      25.466  46.385  52.013  1.00  0.00     0.255 C 
HETATM    3  O   UNL     1      25.379  47.474  52.576  1.00  0.00    -0.270 OA
HETATM    4  H   UNL     1      26.173  44.424  51.923  1.00  0.00     0.192 HD
ENDROOT
BRANCH   1   5
HETATM    5  N   UNL     1      26.603  45.254  53.780  1.00  0.00    -0.184 NA
HETATM    6  C   UNL     1      27.797  45.740  53.889  1.00  0.00     0.153 C 
BRANCH   6   7
HETATM    7  C   UNL     1      28.463  45.765  55.180  1.00  0.00     0.018 A 
HETATM    8  C   UNL     1      28.209  46.631  56.236  1.00  0.00     0.018 A 
HETATM    9  C   UNL     1      27.232  47.747  56.375  1.00  0.00     0.069 C 
HETATM   10  N   UNL     1      29.056  46.300  57.263  1.00  0.00    -0.358 N 
HETATM   11  H   UNL     1      29.088  46.764  58.160  1.00  0.00     0.166 HD
HETATM   12  C   UNL     1      29.855  45.239  56.911  1.00  0.00     0.043 A 
HETATM   13  C   UNL     1      29.510  44.881  55.609  1.00  0.00     0.004 A 
HETATM   14  C   UNL     1      30.847  44.579  57.647  1.00  0.00     0.030 A 
HETATM   15  C   UNL     1      30.197  43.801  55.011  1.00  0.00     0.014 A 
HETATM   16  C   UNL     1      31.191  43.128  55.732  1.00  0.00     0.001 A 
HETATM   17  C   UNL     1      31.510  43.515  57.031  1.00  0.00     0.002 A 
ENDBRANCH   6   7
ENDBRANCH   1   5
BRANCH   2  18
HETATM   18  C   UNL     1      24.828  46.140  50.645  1.00  0.00     0.227 C 
BRANCH  18  19
HETATM   19  N   UNL     1      23.824  47.131  50.290  1.00  0.00    -0.348 N 
HETATM   20  C   UNL     1      24.123  48.200  49.476  1.00  0.00     0.252 C 
HETATM   21  O   UNL     1      25.264  48.442  49.095  1.00  0.00    -0.268 OA
HETATM   22  H   UNL     1      22.947  47.112  50.795  1.00  0.00     0.163 HD
BRANCH  20  23
HETATM   23  C   UNL     1      22.990  49.094  49.122  1.00  0.00     0.032 A 
HETATM   24  C   UNL     1      21.712  48.540  48.985  1.00  0.00     0.018 A 
HETATM   25  C   UNL     1      20.623  49.359  48.671  1.00  0.00     0.025 A 
HETATM   26  C   UNL     1      20.812  50.731  48.510  1.00  0.00     0.034 A 
HETATM   27 CL   UNL     1      19.472  51.742  48.135  1.00  0.00    -0.084 Cl
HETATM   28  C   UNL     1      22.080  51.293  48.661  1.00  0.00     0.025 A 
HETATM   29  C   UNL     1      23.172  50.476  48.968  1.00  0.00     0.018 A 
ENDBRANCH  20  23
ENDBRANCH  18  19
ENDBRANCH   2  18
TORSDOF 5
ENDMDL
MODEL 6
REMARK VINA RESULT:      -8.8      1.915      3.005
REMARK  5 active torsions:
REMARK  status: ('A' for Active; 'I' for Inactive)
REMARK    1  A    between atoms: C_7  and  C_8 
REMARK    2  A    between atoms: N_9  and  N_10 
REMARK       I    between atoms: N_10  and  C_11 
REMARK    3  A    between atoms: C_11  and  C_12 
REMARK    4  A    between atoms: C_12  and  N_13 
REMARK       I    between atoms: N_13  and  C_14 
REMARK    5  A    between atoms: C_14  and  C_15 
ROOT
HETATM    1  N   UNL     1      25.621  44.385  50.745  1.00  0.00    -0.246 N 
HETATM    2  C   UNL     1      25.433  45.354  49.771  1.00  0.00     0.255 C 
HETATM    3  O   UNL     1      26.258  46.195  49.420  1.00  0.00    -0.270 OA
HETATM    4  H   UNL     1      24.892  43.679  50.891  1.00  0.00     0.192 HD
ENDROOT
BRANCH   1   5
HETATM    5  N   UNL     1      26.776  44.345  51.467  1.00  0.00    -0.184 NA
HETATM    6  C   UNL     1      26.775  43.534  52.474  1.00  0.00     0.153 C 
BRANCH   6   7
HETATM    7  C   UNL     1      27.942  43.431  53.334  1.00  0.00     0.018 A 
HETATM    8  C   UNL     1      28.833  42.368  53.410  1.00  0.00     0.018 A 
HETATM    9  C   UNL     1      28.876  41.070  52.681  1.00  0.00     0.069 C 
HETATM   10  N   UNL     1      29.790  42.689  54.339  1.00  0.00    -0.358 N 
HETATM   11  H   UNL     1      30.568  42.099  54.597  1.00  0.00     0.166 HD
HETATM   12  C   UNL     1      29.553  43.934  54.871  1.00  0.00     0.043 A 
HETATM   13  C   UNL     1      28.398  44.426  54.263  1.00  0.00     0.004 A 
HETATM   14  C   UNL     1      30.271  44.650  55.836  1.00  0.00     0.030 A 
HETATM   15  C   UNL     1      27.940  45.707  54.643  1.00  0.00     0.014 A 
HETATM   16  C   UNL     1      28.646  46.438  55.606  1.00  0.00     0.001 A 
HETATM   17  C   UNL     1      29.795  45.914  56.192  1.00  0.00     0.002 A 
ENDBRANCH   6   7
ENDBRANCH   1   5
BRANCH   2  18
HETATM   18  C   UNL     1      24.026  45.318  49.174  1.00  0.00     0.227 C 
BRANCH  18  19
HETATM   19  N   UNL     1      23.270  46.540  49.402  1.00  0.00    -0.348 N 
HETATM   20  C   UNL     1      22.484  47.095  48.418  1.00  0.00     0.252 C 
HETATM   21  O   UNL     1      22.458  46.663  47.270  1.00  0.00    -0.268 OA
HETATM   22  H   UNL     1      23.473  47.066  50.242  1.00  0.00     0.163 HD
BRANCH  20  23
HETATM   23  C   UNL     1      21.700  48.298  48.803  1.00  0.00     0.032 A 
HETATM   24  C   UNL     1      20.302  48.225  48.784  1.00  0.00     0.018 A 
HETATM   25  C   UNL     1      19.537  49.334  49.159  1.00  0.00     0.025 A 
HETATM   26  C   UNL     1      20.172  50.507  49.566  1.00  0.00     0.034 A 
HETATM   27 CL   UNL     1      19.232  51.868  50.038  1.00  0.00    -0.084 Cl
HETATM   28  C   UNL     1      21.564  50.582  49.602  1.00  0.00     0.025 A 
HETATM   29  C   UNL     1      22.332  49.477  49.222  1.00  0.00     0.018 A 
ENDBRANCH  20  23
ENDBRANCH  18  19
ENDBRANCH   2  18
TORSDOF 5
ENDMDL
MODEL 7
REMARK VINA RESULT:      -8.7      3.190      3.787
REMARK  5 active torsions:
REMARK  status: ('A' for Active; 'I' for Inactive)
REMARK    1  A    between atoms: C_7  and  C_8 
REMARK    2  A    between atoms: N_9  and  N_10 
REMARK       I    between atoms: N_10  and  C_11 
REMARK    3  A    between atoms: C_11  and  C_12 
REMARK    4  A    between atoms: C_12  and  N_13 
REMARK       I    between atoms: N_13  and  C_14 
REMARK    5  A    between atoms: C_14  and  C_15 
ROOT
HETATM    1  N   UNL     1      26.921  43.517  51.284  1.00  0.00    -0.246 N 
HETATM    2  C   UNL     1      26.787  44.027  50.001  1.00  0.00     0.255 C 
HETATM    3  O   UNL     1      27.378  45.005  49.546  1.00  0.00    -0.270 OA
HETATM    4  H   UNL     1      26.443  42.643  51.524  1.00  0.00     0.192 HD
ENDROOT
BRANCH   1   5
HETATM    5  N   UNL     1      27.712  44.146  52.198  1.00  0.00    -0.184 NA
HETATM    6  C   UNL     1      27.165  44.367  53.349  1.00  0.00     0.153 C 
BRANCH   6   7
HETATM    7  C   UNL     1      27.905  45.059  54.391  1.00  0.00     0.018 A 
HETATM    8  C   UNL     1      27.627  46.312  54.922  1.00  0.00     0.018 A 
HETATM    9  C   UNL     1      26.549  47.292  54.612  1.00  0.00     0.069 C 
HETATM   10  N   UNL     1      28.566  46.575  55.887  1.00  0.00    -0.358 N 
HETATM   11  H   UNL     1      28.605  47.419  56.442  1.00  0.00     0.166 HD
HETATM   12  C   UNL     1      29.448  45.529  56.005  1.00  0.00     0.043 A 
HETATM   13  C   UNL     1      29.063  44.561  55.079  1.00  0.00     0.004 A 
HETATM   14  C   UNL     1      30.547  45.373  56.859  1.00  0.00     0.030 A 
HETATM   15  C   UNL     1      29.820  43.371  55.004  1.00  0.00     0.014 A 
HETATM   16  C   UNL     1      30.922  43.198  55.850  1.00  0.00     0.001 A 
HETATM   17  C   UNL     1      31.278  44.186  56.763  1.00  0.00     0.002 A 
ENDBRANCH   6   7
ENDBRANCH   1   5
BRANCH   2  18
HETATM   18  C   UNL     1      25.752  43.264  49.174  1.00  0.00     0.227 C 
BRANCH  18  19
HETATM   19  N   UNL     1      24.661  44.100  48.699  1.00  0.00    -0.348 N 
HETATM   20  C   UNL     1      23.544  44.333  49.469  1.00  0.00     0.252 C 
HETATM   21  O   UNL     1      23.351  43.769  50.542  1.00  0.00    -0.268 OA
HETATM   22  H   UNL     1      24.663  44.364  47.722  1.00  0.00     0.163 HD
BRANCH  20  23
HETATM   23  C   UNL     1      22.538  45.270  48.904  1.00  0.00     0.032 A 
HETATM   24  C   UNL     1      22.937  46.575  48.588  1.00  0.00     0.018 A 
HETATM   25  C   UNL     1      22.018  47.474  48.037  1.00  0.00     0.025 A 
HETATM   26  C   UNL     1      20.709  47.062  47.790  1.00  0.00     0.034 A 
HETATM   27 CL   UNL     1      19.581  48.164  47.103  1.00  0.00    -0.084 Cl
HETATM   28  C   UNL     1      20.309  45.759  48.088  1.00  0.00     0.025 A 
HETATM   29  C   UNL     1      21.223  44.860  48.645  1.00  0.00     0.018 A 
ENDBRANCH  20  23
ENDBRANCH  18  19
ENDBRANCH   2  18
TORSDOF 5
ENDMDL
MODEL 8
REMARK VINA RESULT:      -8.7      6.253      8.100
REMARK  5 active torsions:
REMARK  status: ('A' for Active; 'I' for Inactive)
REMARK    1  A    between atoms: C_7  and  C_8 
REMARK    2  A    between atoms: N_9  and  N_10 
REMARK       I    between atoms: N_10  and  C_11 
REMARK    3  A    between atoms: C_11  and  C_12 
REMARK    4  A    between atoms: C_12  and  N_13 
REMARK       I    between atoms: N_13  and  C_14 
REMARK    5  A    between atoms: C_14  and  C_15 
ROOT
HETATM    1  N   UNL     1      26.018  43.795  52.852  1.00  0.00    -0.246 N 
HETATM    2  C   UNL     1      25.193  44.569  52.050  1.00  0.00     0.255 C 
HETATM    3  O   UNL     1      24.921  45.755  52.225  1.00  0.00    -0.270 OA
HETATM    4  H   UNL     1      26.244  42.840  52.558  1.00  0.00     0.192 HD
ENDROOT
BRANCH   1   5
HETATM    5  N   UNL     1      26.556  44.312  53.992  1.00  0.00    -0.184 NA
HETATM    6  C   UNL     1      27.797  44.668  53.910  1.00  0.00     0.153 C 
BRANCH   6   7
HETATM    7  C   UNL     1      28.485  45.205  55.072  1.00  0.00     0.018 A 
HETATM    8  C   UNL     1      28.209  46.398  55.729  1.00  0.00     0.018 A 
HETATM    9  C   UNL     1      27.185  47.447  55.469  1.00  0.00     0.069 C 
HETATM   10  N   UNL     1      29.088  46.512  56.776  1.00  0.00    -0.358 N 
HETATM   11  H   UNL     1      29.115  47.282  57.429  1.00  0.00     0.166 HD
HETATM   12  C   UNL     1      29.929  45.426  56.825  1.00  0.00     0.043 A 
HETATM   13  C   UNL     1      29.578  44.588  55.768  1.00  0.00     0.004 A 
HETATM   14  C   UNL     1      30.963  45.131  57.722  1.00  0.00     0.030 A 
HETATM   15  C   UNL     1      30.303  43.388  55.600  1.00  0.00     0.014 A 
HETATM   16  C   UNL     1      31.340  43.075  56.488  1.00  0.00     0.001 A 
HETATM   17  C   UNL     1      31.663  43.937  57.533  1.00  0.00     0.002 A 
ENDBRANCH   6   7
ENDBRANCH   1   5
BRANCH   2  18
HETATM   18  C   UNL     1      24.580  43.770  50.899  1.00  0.00     0.227 C 
BRANCH  18  19
HETATM   19  N   UNL     1      25.401  42.648  50.473  1.00  0.00    -0.348 N 
HETATM   20  C   UNL     1      26.524  42.830  49.698  1.00  0.00     0.252 C 
HETATM   21  O   UNL     1      26.836  43.922  49.232  1.00  0.00    -0.268 OA
HETATM   22  H   UNL     1      25.031  41.716  50.613  1.00  0.00     0.163 HD
BRANCH  20  23
HETATM   23  C   UNL     1      27.322  41.612  49.399  1.00  0.00     0.032 A 
HETATM   24  C   UNL     1      27.757  40.814  50.463  1.00  0.00     0.018 A 
HETATM   25  C   UNL     1      28.493  39.652  50.212  1.00  0.00     0.025 A 
HETATM   26  C   UNL     1      28.780  39.284  48.898  1.00  0.00     0.034 A 
HETATM   27 CL   UNL     1      29.676  37.850  48.587  1.00  0.00    -0.084 Cl
HETATM   28  C   UNL     1      28.337  40.067  47.831  1.00  0.00     0.025 A 
HETATM   29  C   UNL     1      27.605  41.232  48.079  1.00  0.00     0.018 A 
ENDBRANCH  20  23
ENDBRANCH  18  19
ENDBRANCH   2  18
TORSDOF 5
ENDMDL
MODEL 9
REMARK VINA RESULT:      -8.6      2.105      3.171
REMARK  5 active torsions:
REMARK  status: ('A' for Active; 'I' for Inactive)
REMARK    1  A    between atoms: C_7  and  C_8 
REMARK    2  A    between atoms: N_9  and  N_10 
REMARK       I    between atoms: N_10  and  C_11 
REMARK    3  A    between atoms: C_11  and  C_12 
REMARK    4  A    between atoms: C_12  and  N_13 
REMARK       I    between atoms: N_13  and  C_14 
REMARK    5  A    between atoms: C_14  and  C_15 
ROOT
HETATM    1  N   UNL     1      25.433  46.985  50.905  1.00  0.00    -0.246 N 
HETATM    2  C   UNL     1      24.386  47.081  50.000  1.00  0.00     0.255 C 
HETATM    3  O   UNL     1      23.591  46.186  49.718  1.00  0.00    -0.270 OA
HETATM    4  H   UNL     1      25.977  47.825  51.126  1.00  0.00     0.192 HD
ENDROOT
BRANCH   1   5
HETATM    5  N   UNL     1      25.706  45.802  51.523  1.00  0.00    -0.184 NA
HETATM    6  C   UNL     1      26.406  44.962  50.831  1.00  0.00     0.153 C 
BRANCH   6   7
HETATM    7  C   UNL     1      26.732  43.655  51.377  1.00  0.00     0.018 A 
HETATM    8  C   UNL     1      26.178  42.434  51.011  1.00  0.00     0.018 A 
HETATM    9  C   UNL     1      25.134  42.093  50.005  1.00  0.00     0.069 C 
HETATM   10  N   UNL     1      26.778  41.459  51.767  1.00  0.00    -0.358 N 
HETATM   11  H   UNL     1      26.571  40.472  51.709  1.00  0.00     0.166 HD
HETATM   12  C   UNL     1      27.711  42.006  52.614  1.00  0.00     0.043 A 
HETATM   13  C   UNL     1      27.705  43.383  52.396  1.00  0.00     0.004 A 
HETATM   14  C   UNL     1      28.550  41.384  53.547  1.00  0.00     0.030 A 
HETATM   15  C   UNL     1      28.590  44.181  53.155  1.00  0.00     0.014 A 
HETATM   16  C   UNL     1      29.438  43.577  54.091  1.00  0.00     0.001 A 
HETATM   17  C   UNL     1      29.416  42.198  54.283  1.00  0.00     0.002 A 
ENDBRANCH   6   7
ENDBRANCH   1   5
BRANCH   2  18
HETATM   18  C   UNL     1      24.330  48.446  49.313  1.00  0.00     0.227 C 
BRANCH  18  19
HETATM   19  N   UNL     1      23.078  49.152  49.532  1.00  0.00    -0.348 N 
HETATM   20  C   UNL     1      22.469  49.867  48.526  1.00  0.00     0.252 C 
HETATM   21  O   UNL     1      22.992  50.044  47.430  1.00  0.00    -0.268 OA
HETATM   22  H   UNL     1      22.755  49.249  50.486  1.00  0.00     0.163 HD
BRANCH  20  23
HETATM   23  C   UNL     1      21.153  50.475  48.854  1.00  0.00     0.032 A 
HETATM   24  C   UNL     1      20.378  49.895  49.866  1.00  0.00     0.018 A 
HETATM   25  C   UNL     1      19.144  50.455  50.210  1.00  0.00     0.025 A 
HETATM   26  C   UNL     1      18.695  51.600  49.553  1.00  0.00     0.034 A 
HETATM   27 CL   UNL     1      17.182  52.296  49.983  1.00  0.00    -0.084 Cl
HETATM   28  C   UNL     1      19.469  52.192  48.554  1.00  0.00     0.025 A 
HETATM   29  C   UNL     1      20.701  51.631  48.203  1.00  0.00     0.018 A 
ENDBRANCH  20  23
ENDBRANCH  18  19
ENDBRANCH   2  18
TORSDOF 5
ENDMDL
MODEL 10
REMARK VINA RESULT:      -8.6      4.078     10.073
REMARK  5 active torsions:
REMARK  status: ('A' for Active; 'I' for Inactive)
REMARK    1  A    between atoms: C_7  and  C_8 
REMARK    2  A    between atoms: N_9  and  N_10 
REMARK       I    between atoms: N_10  and  C_11 
REMARK    3  A    between atoms: C_11  and  C_12 
REMARK    4  A    between atoms: C_12  and  N_13 
REMARK       I    between atoms: N_13  and  C_14 
REMARK    5  A    between atoms: C_14  and  C_15 
ROOT
HETATM    1  N   UNL     1      23.655  45.495  49.768  1.00  0.00    -0.246 N 
HETATM    2  C   UNL     1      24.980  45.090  49.701  1.00  0.00     0.255 C 
HETATM    3  O   UNL     1      25.896  45.702  49.156  1.00  0.00    -0.270 OA
HETATM    4  H   UNL     1      22.995  44.946  50.327  1.00  0.00     0.192 HD
ENDROOT
BRANCH   1   5
HETATM    5  N   UNL     1      23.247  46.632  49.137  1.00  0.00    -0.184 NA
HETATM    6  C   UNL     1      23.634  47.740  49.681  1.00  0.00     0.153 C 
BRANCH   6   7
HETATM    7  C   UNL     1      23.234  49.016  49.112  1.00  0.00     0.018 A 
HETATM    8  C   UNL     1      24.046  49.927  48.449  1.00  0.00     0.018 A 
HETATM    9  C   UNL     1      25.500  49.894  48.131  1.00  0.00     0.069 C 
HETATM   10  N   UNL     1      23.263  50.987  48.069  1.00  0.00    -0.358 N 
HETATM   11  H   UNL     1      23.591  51.799  47.565  1.00  0.00     0.166 HD
HETATM   12  C   UNL     1      21.960  50.794  48.460  1.00  0.00     0.043 A 
HETATM   13  C   UNL     1      21.908  49.566  49.120  1.00  0.00     0.004 A 
HETATM   14  C   UNL     1      20.837  51.610  48.278  1.00  0.00     0.030 A 
HETATM   15  C   UNL     1      20.661  49.133  49.623  1.00  0.00     0.014 A 
HETATM   16  C   UNL     1      19.527  49.936  49.449  1.00  0.00     0.001 A 
HETATM   17  C   UNL     1      19.617  51.156  48.786  1.00  0.00     0.002 A 
ENDBRANCH   6   7
ENDBRANCH   1   5
BRANCH   2  18
HETATM   18  C   UNL     1      25.207  43.725  50.351  1.00  0.00     0.227 C 
BRANCH  18  19
HETATM   19  N   UNL     1      26.330  43.705  51.275  1.00  0.00    -0.348 N 
HETATM   20  C   UNL     1      26.162  43.948  52.619  1.00  0.00     0.252 C 
HETATM   21  O   UNL     1      25.089  44.301  53.098  1.00  0.00    -0.268 OA
HETATM   22  H   UNL     1      27.262  43.680  50.879  1.00  0.00     0.163 HD
BRANCH  20  23
HETATM   23  C   UNL     1      27.375  43.817  53.468  1.00  0.00     0.032 A 
HETATM   24  C   UNL     1      28.108  42.625  53.415  1.00  0.00     0.018 A 
HETATM   25  C   UNL     1      29.265  42.480  54.188  1.00  0.00     0.025 A 
HETATM   26  C   UNL     1      29.692  43.530  54.999  1.00  0.00     0.034 A 
HETATM   27 CL   UNL     1      31.120  43.356  55.943  1.00  0.00    -0.084 Cl
HETATM   28  C   UNL     1      28.975  44.726  55.046  1.00  0.00     0.025 A 
HETATM   29  C   UNL     1      27.815  44.872  54.279  1.00  0.00     0.018 A 
ENDBRANCH  20  23
ENDBRANCH  18  19
ENDBRANCH   2  18
TORSDOF 5
ENDMDL
