MODEL 1
REMARK VINA RESULT:      -8.9      0.000      0.000
REMARK  3 active torsions:
REMARK  status: ('A' for Active; 'I' for Inactive)
REMARK    1  A    between atoms: C_4  and  C_5 
REMARK    2  A    between atoms: C_9  and  C_10 
REMARK       I    between atoms: C_10  and  N_11 
REMARK    3  A    between atoms: N_11  and  C_12 
ROOT
HETATM    1  C   UNL     1      25.705  44.765  52.504  1.00  0.00     0.276 C 
HETATM    2  N   UNL     1      25.794  45.379  51.274  1.00  0.00    -0.317 N 
HETATM    3  O   UNL     1      24.664  44.480  53.087  1.00  0.00    -0.266 OA
HETATM    4  H   UNL     1      26.747  45.552  50.947  1.00  0.00     0.169 HD
ENDROOT
BRANCH   1   5
HETATM    5  C   UNL     1      27.027  44.480  53.087  1.00  0.00     0.147 A 
HETATM    6  N   UNL     1      28.030  43.949  52.360  1.00  0.00    -0.169 NA
HETATM    7  N   UNL     1      29.044  43.848  53.236  1.00  0.00    -0.277 N 
HETATM    8  C   UNL     1      28.765  44.318  54.494  1.00  0.00     0.063 A 
HETATM    9  H   UNL     1      29.913  43.440  52.909  1.00  0.00     0.189 HD
HETATM   10  C   UNL     1      27.442  44.714  54.421  1.00  0.00     0.071 A 
BRANCH   8  11
HETATM   11  C   UNL     1      29.723  44.334  55.602  1.00  0.00    -0.008 A 
HETATM   12  C   UNL     1      29.705  45.344  56.577  1.00  0.00     0.014 A 
HETATM   13  C   UNL     1      30.621  45.338  57.633  1.00  0.00     0.001 A 
HETATM   14  C   UNL     1      31.567  44.321  57.733  1.00  0.00     0.000 A 
HETATM   15  C   UNL     1      31.597  43.310  56.779  1.00  0.00     0.001 A 
HETATM   16  C   UNL     1      30.682  43.316  55.721  1.00  0.00     0.014 A 
ENDBRANCH   8  11
ENDBRANCH   1   5
BRANCH   2  17
HETATM   17  C   UNL     1      24.783  45.813  50.448  1.00  0.00     0.102 A 
HETATM   18  C   UNL     1      24.784  47.287  50.102  1.00  0.00     0.218 A 
HETATM   19  O   UNL     1      25.669  48.016  50.550  1.00  0.00    -0.284 OA
HETATM   20  C   UNL     1      23.684  47.800  49.217  1.00  0.00     0.078 A 
HETATM   21 BR   UNL     1      23.622  49.606  48.779  1.00  0.00    -0.045 Br
HETATM   22  C   UNL     1      22.780  46.909  48.783  1.00  0.00     0.111 A 
HETATM   23  N   UNL     1      22.818  45.579  49.107  1.00  0.00    -0.372 N 
HETATM   24  C   UNL     1      23.798  45.069  49.922  1.00  0.00     0.121 A 
HETATM   25  H   UNL     1      22.097  44.953  48.754  1.00  0.00     0.164 HD
ENDBRANCH   2  17
TORSDOF 3
ENDMDL
MODEL 2
REMARK VINA RESULT:      -8.8      5.197      6.054
REMARK  3 active torsions:
REMARK  status: ('A' for Active; 'I' for Inactive)
REMARK    1  A    between atoms: C_4  and  C_5 
REMARK    2  A    between atoms: C_9  and  C_10 
REMARK       I    between atoms: C_10  and  N_11 
REMARK    3  A    between atoms: N_11  and  C_12 
ROOT
HETATM    1  C   UNL     1      27.729  41.073  51.244  1.00  0.00     0.276 C 
HETATM    2  N   UNL     1      28.727  40.605  50.416  1.00  0.00    -0.317 N 
HETATM    3  O   UNL     1      26.573  40.664  51.272  1.00  0.00    -0.266 OA
HETATM    4  H   UNL     1      29.629  41.075  50.521  1.00  0.00     0.169 HD
ENDROOT
BRANCH   1   5
HETATM    5  C   UNL     1      28.191  42.163  52.120  1.00  0.00     0.147 A 
HETATM    6  N   UNL     1      27.946  43.458  51.840  1.00  0.00    -0.169 NA
HETATM    7  N   UNL     1      28.517  44.123  52.858  1.00  0.00    -0.277 N 
HETATM    8  C   UNL     1      29.097  43.323  53.811  1.00  0.00     0.063 A 
HETATM    9  H   UNL     1      28.480  45.136  52.844  1.00  0.00     0.189 HD
HETATM   10  C   UNL     1      28.913  42.039  53.332  1.00  0.00     0.071 A 
BRANCH   8  11
HETATM   11  C   UNL     1      29.755  43.823  55.021  1.00  0.00    -0.008 A 
HETATM   12  C   UNL     1      29.405  45.057  55.592  1.00  0.00     0.014 A 
HETATM   13  C   UNL     1      30.037  45.514  56.753  1.00  0.00     0.001 A 
HETATM   14  C   UNL     1      31.024  44.744  57.362  1.00  0.00     0.000 A 
HETATM   15  C   UNL     1      31.380  43.517  56.812  1.00  0.00     0.001 A 
HETATM   16  C   UNL     1      30.750  43.060  55.651  1.00  0.00     0.014 A 
ENDBRANCH   8  11
ENDBRANCH   1   5
BRANCH   2  17
HETATM   17  C   UNL     1      28.665  39.621  49.457  1.00  0.00     0.102 A 
HETATM   18  C   UNL     1      28.297  40.068  48.059  1.00  0.00     0.218 A 
HETATM   19  O   UNL     1      28.084  41.260  47.838  1.00  0.00    -0.284 OA
HETATM   20  C   UNL     1      28.201  39.017  46.989  1.00  0.00     0.078 A 
HETATM   21 BR   UNL     1      27.729  39.505  45.259  1.00  0.00    -0.045 Br
HETATM   22  C   UNL     1      28.463  37.752  47.348  1.00  0.00     0.111 A 
HETATM   23  N   UNL     1      28.807  37.385  48.623  1.00  0.00    -0.372 N 
HETATM   24  C   UNL     1      28.893  38.310  49.633  1.00  0.00     0.121 A 
HETATM   25  H   UNL     1      28.984  36.406  48.835  1.00  0.00     0.164 HD
ENDBRANCH   2  17
TORSDOF 3
ENDMDL
MODEL 3
REMARK VINA RESULT:      -8.4      4.044      9.751
REMARK  3 active torsions:
REMARK  status: ('A' for Active; 'I' for Inactive)
REMARK    1  A    between atoms: C_4  and  C_5 
REMARK    2  A    between atoms: C_9  and  C_10 
REMARK       I    between atoms: C_10  and  N_11 
REMARK    3  A    between atoms: N_11  and  C_12 
ROOT
HETATM    1  C   UNL     1      25.066  48.512  49.125  1.00  0.00     0.276 C 
HETATM    2  N   UNL     1      24.714  47.349  49.776  1.00  0.00    -0.317 N 
HETATM    3  O   UNL     1      26.212  48.875  48.883  1.00  0.00    -0.266 OA
HETATM    4  H   UNL     1      23.708  47.215  49.903  1.00  0.00     0.169 HD
ENDROOT
BRANCH   1   5
HETATM    5  C   UNL     1      23.895  49.319  48.743  1.00  0.00     0.147 A 
HETATM    6  N   UNL     1      23.811  49.935  47.548  1.00  0.00    -0.169 NA
HETATM    7  N   UNL     1      22.618  50.552  47.586  1.00  0.00    -0.277 N 
HETATM    8  C   UNL     1      21.900  50.341  48.737  1.00  0.00     0.063 A 
HETATM    9  H   UNL     1      22.348  51.112  46.786  1.00  0.00     0.189 HD
HETATM   10  C   UNL     1      22.731  49.555  49.515  1.00  0.00     0.071 A 
BRANCH   8  11
HETATM   11  C   UNL     1      20.565  50.889  48.990  1.00  0.00    -0.008 A 
HETATM   12  C   UNL     1      20.083  52.005  48.289  1.00  0.00     0.014 A 
HETATM   13  C   UNL     1      18.802  52.509  48.538  1.00  0.00     0.001 A 
HETATM   14  C   UNL     1      17.983  51.903  49.487  1.00  0.00     0.000 A 
HETATM   15  C   UNL     1      18.444  50.793  50.188  1.00  0.00     0.001 A 
HETATM   16  C   UNL     1      19.725  50.290  49.941  1.00  0.00     0.014 A 
ENDBRANCH   8  11
ENDBRANCH   1   5
BRANCH   2  17
HETATM   17  C   UNL     1      25.525  46.368  50.297  1.00  0.00     0.102 A 
HETATM   18  C   UNL     1      25.774  46.425  51.790  1.00  0.00     0.218 A 
HETATM   19  O   UNL     1      25.247  47.313  52.460  1.00  0.00    -0.284 OA
HETATM   20  C   UNL     1      26.672  45.381  52.391  1.00  0.00     0.078 A 
HETATM   21 BR   UNL     1      27.031  45.417  54.214  1.00  0.00    -0.045 Br
HETATM   22  C   UNL     1      27.182  44.460  51.561  1.00  0.00     0.111 A 
HETATM   23  N   UNL     1      26.924  44.431  50.216  1.00  0.00    -0.372 N 
HETATM   24  C   UNL     1      26.121  45.372  49.622  1.00  0.00     0.121 A 
HETATM   25  H   UNL     1      27.349  43.711  49.636  1.00  0.00     0.164 HD
ENDBRANCH   2  17
TORSDOF 3
ENDMDL
MODEL 4
REMARK VINA RESULT:      -8.3      3.239      3.763
REMARK  3 active torsions:
REMARK  status: ('A' for Active; 'I' for Inactive)
REMARK    1  A    between atoms: C_4  and  C_5 
REMARK    2  A    between atoms: C_9  and  C_10 
REMARK       I    between atoms: C_10  and  N_11 
REMARK    3  A    between atoms: N_11  and  C_12 
ROOT
HETATM    1  C   UNL     1      27.182  43.743  51.554  1.00  0.00     0.276 C 
HETATM    2  N   UNL     1      26.332  42.659  51.512  1.00  0.00    -0.317 N 
HETATM    3  O   UNL     1      27.109  44.735  50.836  1.00  0.00    -0.266 OA
HETATM    4  H   UNL     1      26.553  41.913  52.177  1.00  0.00     0.169 HD
ENDROOT
BRANCH   1   5
HETATM    5  C   UNL     1      28.237  43.592  52.570  1.00  0.00     0.147 A 
HETATM    6  N   UNL     1      29.277  42.753  52.401  1.00  0.00    -0.169 NA
HETATM    7  N   UNL     1      29.999  42.903  53.525  1.00  0.00    -0.277 N 
HETATM    8  C   UNL     1      29.498  43.827  54.408  1.00  0.00     0.063 A 
HETATM    9  H   UNL     1      30.833  42.337  53.632  1.00  0.00     0.189 HD
HETATM   10  C   UNL     1      28.333  44.270  53.810  1.00  0.00     0.071 A 
BRANCH   8  11
HETATM   11  C   UNL     1      30.129  44.177  55.683  1.00  0.00    -0.008 A 
HETATM   12  C   UNL     1      29.778  45.342  56.383  1.00  0.00     0.014 A 
HETATM   13  C   UNL     1      30.383  45.655  57.603  1.00  0.00     0.001 A 
HETATM   14  C   UNL     1      31.346  44.808  58.146  1.00  0.00     0.000 A 
HETATM   15  C   UNL     1      31.703  43.646  57.468  1.00  0.00     0.001 A 
HETATM   16  C   UNL     1      31.099  43.334  56.246  1.00  0.00     0.014 A 
ENDBRANCH   8  11
ENDBRANCH   1   5
BRANCH   2  17
HETATM   17  C   UNL     1      25.256  42.433  50.685  1.00  0.00     0.102 A 
HETATM   18  C   UNL     1      25.481  41.473  49.537  1.00  0.00     0.218 A 
HETATM   19  O   UNL     1      26.582  40.939  49.397  1.00  0.00    -0.284 OA
HETATM   20  C   UNL     1      24.333  41.217  48.601  1.00  0.00     0.078 A 
HETATM   21 BR   UNL     1      24.560  40.066  47.160  1.00  0.00    -0.045 Br
HETATM   22  C   UNL     1      23.180  41.851  48.859  1.00  0.00     0.111 A 
HETATM   23  N   UNL     1      23.009  42.704  49.917  1.00  0.00    -0.372 N 
HETATM   24  C   UNL     1      24.033  42.976  50.789  1.00  0.00     0.121 A 
HETATM   25  H   UNL     1      22.111  43.163  50.055  1.00  0.00     0.164 HD
ENDBRANCH   2  17
TORSDOF 3
ENDMDL
MODEL 5
REMARK VINA RESULT:      -8.1      3.997      4.729
REMARK  3 active torsions:
REMARK  status: ('A' for Active; 'I' for Inactive)
REMARK    1  A    between atoms: C_4  and  C_5 
REMARK    2  A    between atoms: C_9  and  C_10 
REMARK       I    between atoms: C_10  and  N_11 
REMARK    3  A    between atoms: N_11  and  C_12 
ROOT
HETATM    1  C   UNL     1      26.724  43.651  52.150  1.00  0.00     0.276 C 
HETATM    2  N   UNL     1      27.576  42.951  51.324  1.00  0.00    -0.317 N 
HETATM    3  O   UNL     1      25.508  43.738  52.014  1.00  0.00    -0.266 OA
HETATM    4  H   UNL     1      28.564  43.001  51.583  1.00  0.00     0.169 HD
ENDROOT
BRANCH   1   5
HETATM    5  C   UNL     1      27.435  44.325  53.250  1.00  0.00     0.147 A 
HETATM    6  N   UNL     1      27.177  45.602  53.592  1.00  0.00    -0.169 NA
HETATM    7  N   UNL     1      28.014  45.837  54.617  1.00  0.00    -0.277 N 
HETATM    8  C   UNL     1      28.785  44.763  54.985  1.00  0.00     0.063 A 
HETATM    9  H   UNL     1      28.013  46.764  55.027  1.00  0.00     0.189 HD
HETATM   10  C   UNL     1      28.436  43.772  54.086  1.00  0.00     0.071 A 
BRANCH   8  11
HETATM   11  C   UNL     1      29.748  44.777  56.089  1.00  0.00    -0.008 A 
HETATM   12  C   UNL     1      29.689  45.744  57.105  1.00  0.00     0.014 A 
HETATM   13  C   UNL     1      30.610  45.737  58.157  1.00  0.00     0.001 A 
HETATM   14  C   UNL     1      31.601  44.760  58.212  1.00  0.00     0.000 A 
HETATM   15  C   UNL     1      31.672  43.792  57.216  1.00  0.00     0.001 A 
HETATM   16  C   UNL     1      30.752  43.800  56.163  1.00  0.00     0.014 A 
ENDBRANCH   8  11
ENDBRANCH   1   5
BRANCH   2  17
HETATM   17  C   UNL     1      27.283  42.226  50.192  1.00  0.00     0.102 A 
HETATM   18  C   UNL     1      27.812  40.808  50.147  1.00  0.00     0.218 A 
HETATM   19  O   UNL     1      28.454  40.368  51.101  1.00  0.00    -0.284 OA
HETATM   20  C   UNL     1      27.527  39.992  48.918  1.00  0.00     0.078 A 
HETATM   21 BR   UNL     1      28.173  38.253  48.798  1.00  0.00    -0.045 Br
HETATM   22  C   UNL     1      26.811  40.577  47.947  1.00  0.00     0.111 A 
HETATM   23  N   UNL     1      26.337  41.860  48.028  1.00  0.00    -0.372 N 
HETATM   24  C   UNL     1      26.584  42.645  49.126  1.00  0.00     0.121 A 
HETATM   25  H   UNL     1      25.807  42.251  47.253  1.00  0.00     0.164 HD
ENDBRANCH   2  17
TORSDOF 3
ENDMDL
MODEL 6
REMARK VINA RESULT:      -8.1      3.666      8.602
REMARK  3 active torsions:
REMARK  status: ('A' for Active; 'I' for Inactive)
REMARK    1  A    between atoms: C_4  and  C_5 
REMARK    2  A    between atoms: C_9  and  C_10 
REMARK       I    between atoms: C_10  and  N_11 
REMARK    3  A    between atoms: N_11  and  C_12 
ROOT
HETATM    1  C   UNL     1      26.316  44.831  50.188  1.00  0.00     0.276 C 
HETATM    2  N   UNL     1      26.065  43.884  51.158  1.00  0.00    -0.317 N 
HETATM    3  O   UNL     1      27.395  45.018  49.634  1.00  0.00    -0.266 OA
HETATM    4  H   UNL     1      25.109  43.881  51.518  1.00  0.00     0.169 HD
ENDROOT
BRANCH   1   5
HETATM    5  C   UNL     1      25.128  45.642  49.874  1.00  0.00     0.147 A 
HETATM    6  N   UNL     1      23.894  45.106  49.805  1.00  0.00    -0.169 NA
HETATM    7  N   UNL     1      23.105  46.151  49.502  1.00  0.00    -0.277 N 
HETATM    8  C   UNL     1      23.758  47.353  49.403  1.00  0.00     0.063 A 
HETATM    9  H   UNL     1      22.115  45.974  49.372  1.00  0.00     0.189 HD
HETATM   10  C   UNL     1      25.087  47.035  49.621  1.00  0.00     0.071 A 
BRANCH   8  11
HETATM   11  C   UNL     1      23.101  48.629  49.110  1.00  0.00    -0.008 A 
HETATM   12  C   UNL     1      23.837  49.777  48.777  1.00  0.00     0.014 A 
HETATM   13  C   UNL     1      23.192  50.984  48.491  1.00  0.00     0.001 A 
HETATM   14  C   UNL     1      21.802  51.062  48.530  1.00  0.00     0.000 A 
HETATM   15  C   UNL     1      21.057  49.933  48.854  1.00  0.00     0.001 A 
HETATM   16  C   UNL     1      21.702  48.727  49.142  1.00  0.00     0.014 A 
ENDBRANCH   8  11
ENDBRANCH   1   5
BRANCH   2  17
HETATM   17  C   UNL     1      26.927  42.971  51.720  1.00  0.00     0.102 A 
HETATM   18  C   UNL     1      27.841  43.492  52.808  1.00  0.00     0.218 A 
HETATM   19  O   UNL     1      27.773  44.674  53.145  1.00  0.00    -0.284 OA
HETATM   20  C   UNL     1      28.810  42.527  53.432  1.00  0.00     0.078 A 
HETATM   21 BR   UNL     1      29.973  43.118  54.756  1.00  0.00    -0.045 Br
HETATM   22  C   UNL     1      28.787  41.262  52.987  1.00  0.00     0.111 A 
HETATM   23  N   UNL     1      27.935  40.823  52.008  1.00  0.00    -0.372 N 
HETATM   24  C   UNL     1      27.044  41.672  51.402  1.00  0.00     0.121 A 
HETATM   25  H   UNL     1      27.973  39.852  51.706  1.00  0.00     0.164 HD
ENDBRANCH   2  17
TORSDOF 3
ENDMDL
MODEL 7
REMARK VINA RESULT:      -7.9      3.768      5.687
REMARK  3 active torsions:
REMARK  status: ('A' for Active; 'I' for Inactive)
REMARK    1  A    between atoms: C_4  and  C_5 
REMARK    2  A    between atoms: C_9  and  C_10 
REMARK       I    between atoms: C_10  and  N_11 
REMARK    3  A    between atoms: N_11  and  C_12 
ROOT
HETATM    1  C   UNL     1      23.127  48.474  48.815  1.00  0.00     0.276 C 
HETATM    2  N   UNL     1      21.973  48.355  49.560  1.00  0.00    -0.317 N 
HETATM    3  O   UNL     1      23.198  48.920  47.674  1.00  0.00    -0.266 OA
HETATM    4  H   UNL     1      22.101  47.947  50.488  1.00  0.00     0.169 HD
ENDROOT
BRANCH   1   5
HETATM    5  C   UNL     1      24.314  47.986  49.536  1.00  0.00     0.147 A 
HETATM    6  N   UNL     1      25.490  48.644  49.507  1.00  0.00    -0.169 NA
HETATM    7  N   UNL     1      26.299  47.892  50.272  1.00  0.00    -0.277 N 
HETATM    8  C   UNL     1      25.701  46.790  50.829  1.00  0.00     0.063 A 
HETATM    9  H   UNL     1      27.264  48.187  50.374  1.00  0.00     0.189 HD
HETATM   10  C   UNL     1      24.408  46.823  50.340  1.00  0.00     0.071 A 
BRANCH   8  11
HETATM   11  C   UNL     1      26.379  45.843  51.718  1.00  0.00    -0.008 A 
HETATM   12  C   UNL     1      27.003  44.687  51.224  1.00  0.00     0.014 A 
HETATM   13  C   UNL     1      27.654  43.799  52.086  1.00  0.00     0.001 A 
HETATM   14  C   UNL     1      27.693  44.054  53.455  1.00  0.00     0.000 A 
HETATM   15  C   UNL     1      27.083  45.197  53.961  1.00  0.00     0.001 A 
HETATM   16  C   UNL     1      26.431  46.084  53.100  1.00  0.00     0.014 A 
ENDBRANCH   8  11
ENDBRANCH   1   5
BRANCH   2  17
HETATM   17  C   UNL     1      20.682  48.680  49.214  1.00  0.00     0.102 A 
HETATM   18  C   UNL     1      20.228  50.083  49.558  1.00  0.00     0.218 A 
HETATM   19  O   UNL     1      21.011  50.858  50.106  1.00  0.00    -0.284 OA
HETATM   20  C   UNL     1      18.817  50.467  49.212  1.00  0.00     0.078 A 
HETATM   21 BR   UNL     1      18.197  52.168  49.633  1.00  0.00    -0.045 Br
HETATM   22  C   UNL     1      18.060  49.539  48.609  1.00  0.00     0.111 A 
HETATM   23  N   UNL     1      18.509  48.282  48.301  1.00  0.00    -0.372 N 
HETATM   24  C   UNL     1      19.786  47.885  48.609  1.00  0.00     0.121 A 
HETATM   25  H   UNL     1      17.883  47.619  47.851  1.00  0.00     0.164 HD
ENDBRANCH   2  17
TORSDOF 3
ENDMDL
MODEL 8
REMARK VINA RESULT:      -7.8      1.815      2.032
REMARK  3 active torsions:
REMARK  status: ('A' for Active; 'I' for Inactive)
REMARK    1  A    between atoms: C_4  and  C_5 
REMARK    2  A    between atoms: C_9  and  C_10 
REMARK       I    between atoms: C_10  and  N_11 
REMARK    3  A    between atoms: N_11  and  C_12 
ROOT
HETATM    1  C   UNL     1      26.556  43.961  50.524  1.00  0.00     0.276 C 
HETATM    2  N   UNL     1      25.191  43.804  50.629  1.00  0.00    -0.317 N 
HETATM    3  O   UNL     1      27.155  44.353  49.527  1.00  0.00    -0.266 OA
HETATM    4  H   UNL     1      24.867  43.454  51.533  1.00  0.00     0.169 HD
ENDROOT
BRANCH   1   5
HETATM    5  C   UNL     1      27.261  43.590  51.761  1.00  0.00     0.147 A 
HETATM    6  N   UNL     1      27.261  42.328  52.234  1.00  0.00    -0.169 NA
HETATM    7  N   UNL     1      28.000  42.403  53.354  1.00  0.00    -0.277 N 
HETATM    8  C   UNL     1      28.513  43.648  53.620  1.00  0.00     0.063 A 
HETATM    9  H   UNL     1      28.116  41.559  53.902  1.00  0.00     0.189 HD
HETATM   10  C   UNL     1      28.021  44.442  52.601  1.00  0.00     0.071 A 
BRANCH   8  11
HETATM   11  C   UNL     1      29.368  43.961  54.768  1.00  0.00    -0.008 A 
HETATM   12  C   UNL     1      29.238  45.167  55.475  1.00  0.00     0.014 A 
HETATM   13  C   UNL     1      30.057  45.445  56.575  1.00  0.00     0.001 A 
HETATM   14  C   UNL     1      31.014  44.520  56.987  1.00  0.00     0.000 A 
HETATM   15  C   UNL     1      31.153  43.319  56.300  1.00  0.00     0.001 A 
HETATM   16  C   UNL     1      30.336  43.041  55.200  1.00  0.00     0.014 A 
ENDBRANCH   8  11
ENDBRANCH   1   5
BRANCH   2  17
HETATM   17  C   UNL     1      24.218  44.025  49.682  1.00  0.00     0.102 A 
HETATM   18  C   UNL     1      23.775  45.461  49.496  1.00  0.00     0.218 A 
HETATM   19  O   UNL     1      24.294  46.350  50.171  1.00  0.00    -0.284 OA
HETATM   20  C   UNL     1      22.700  45.737  48.482  1.00  0.00     0.078 A 
HETATM   21 BR   UNL     1      22.100  47.478  48.230  1.00  0.00    -0.045 Br
HETATM   22  C   UNL     1      22.215  44.688  47.802  1.00  0.00     0.111 A 
HETATM   23  N   UNL     1      22.650  43.402  47.988  1.00  0.00    -0.372 N 
HETATM   24  C   UNL     1      23.620  43.103  48.911  1.00  0.00     0.121 A 
HETATM   25  H   UNL     1      22.236  42.647  47.447  1.00  0.00     0.164 HD
ENDBRANCH   2  17
TORSDOF 3
ENDMDL
MODEL 9
REMARK VINA RESULT:      -7.7      3.866      4.543
REMARK  3 active torsions:
REMARK  status: ('A' for Active; 'I' for Inactive)
REMARK    1  A    between atoms: C_4  and  C_5 
REMARK    2  A    between atoms: C_9  and  C_10 
REMARK       I    between atoms: C_10  and  N_11 
REMARK    3  A    between atoms: N_11  and  C_12 
ROOT
HETATM    1  C   UNL     1      24.871  43.211  51.149  1.00  0.00     0.276 C 
HETATM    2  N   UNL     1      25.585  42.306  50.394  1.00  0.00    -0.317 N 
HETATM    3  O   UNL     1      23.743  43.620  50.894  1.00  0.00    -0.266 OA
HETATM    4  H   UNL     1      26.519  42.090  50.752  1.00  0.00     0.169 HD
ENDROOT
BRANCH   1   5
HETATM    5  C   UNL     1      25.618  43.672  52.330  1.00  0.00     0.147 A 
HETATM    6  N   UNL     1      25.013  44.291  53.363  1.00  0.00    -0.169 NA
HETATM    7  N   UNL     1      26.016  44.544  54.220  1.00  0.00    -0.277 N 
HETATM    8  C   UNL     1      27.246  44.091  53.814  1.00  0.00     0.063 A 
HETATM    9  H   UNL     1      25.794  45.040  55.077  1.00  0.00     0.189 HD
HETATM   10  C   UNL     1      27.008  43.538  52.569  1.00  0.00     0.071 A 
BRANCH   8  11
HETATM   11  C   UNL     1      28.477  44.230  54.595  1.00  0.00    -0.008 A 
HETATM   12  C   UNL     1      29.460  43.228  54.605  1.00  0.00     0.014 A 
HETATM   13  C   UNL     1      30.634  43.382  55.349  1.00  0.00     0.001 A 
HETATM   14  C   UNL     1      30.845  44.540  56.092  1.00  0.00     0.000 A 
HETATM   15  C   UNL     1      29.883  45.546  56.091  1.00  0.00     0.001 A 
HETATM   16  C   UNL     1      28.709  45.391  55.348  1.00  0.00     0.014 A 
ENDBRANCH   8  11
ENDBRANCH   1   5
BRANCH   2  17
HETATM   17  C   UNL     1      25.228  41.683  49.221  1.00  0.00     0.102 A 
HETATM   18  C   UNL     1      26.330  41.489  48.201  1.00  0.00     0.218 A 
HETATM   19  O   UNL     1      27.470  41.874  48.457  1.00  0.00    -0.284 OA
HETATM   20  C   UNL     1      25.971  40.829  46.899  1.00  0.00     0.078 A 
HETATM   21 BR   UNL     1      27.278  40.587  45.600  1.00  0.00    -0.045 Br
HETATM   22  C   UNL     1      24.696  40.446  46.737  1.00  0.00     0.111 A 
HETATM   23  N   UNL     1      23.728  40.626  47.689  1.00  0.00    -0.372 N 
HETATM   24  C   UNL     1      24.008  41.235  48.886  1.00  0.00     0.121 A 
HETATM   25  H   UNL     1      22.775  40.321  47.502  1.00  0.00     0.164 HD
ENDBRANCH   2  17
TORSDOF 3
ENDMDL
MODEL 10
REMARK VINA RESULT:      -7.5      5.739      6.394
REMARK  3 active torsions:
REMARK  status: ('A' for Active; 'I' for Inactive)
REMARK    1  A    between atoms: C_4  and  C_5 
REMARK    2  A    between atoms: C_9  and  C_10 
REMARK       I    between atoms: C_10  and  N_11 
REMARK    3  A    between atoms: N_11  and  C_12 
ROOT
HETATM    1  C   UNL     1      27.331  40.826  50.541  1.00  0.00     0.276 C 
HETATM    2  N   UNL     1      28.233  40.657  49.512  1.00  0.00    -0.317 N 
HETATM    3  O   UNL     1      26.122  40.632  50.469  1.00  0.00    -0.266 OA
HETATM    4  H   UNL     1      29.203  40.880  49.749  1.00  0.00     0.169 HD
ENDROOT
BRANCH   1   5
HETATM    5  C   UNL     1      27.974  41.294  51.780  1.00  0.00     0.147 A 
HETATM    6  N   UNL     1      28.576  40.446  52.637  1.00  0.00    -0.169 NA
HETATM    7  N   UNL     1      29.027  41.246  53.618  1.00  0.00    -0.277 N 
HETATM    8  C   UNL     1      28.779  42.582  53.429  1.00  0.00     0.063 A 
HETATM    9  H   UNL     1      29.501  40.812  54.403  1.00  0.00     0.189 HD
HETATM   10  C   UNL     1      28.070  42.629  52.242  1.00  0.00     0.071 A 
BRANCH   8  11
HETATM   11  C   UNL     1      29.200  43.639  54.351  1.00  0.00    -0.008 A 
HETATM   12  C   UNL     1      28.465  44.826  54.495  1.00  0.00     0.014 A 
HETATM   13  C   UNL     1      28.877  45.821  55.387  1.00  0.00     0.001 A 
HETATM   14  C   UNL     1      30.028  45.644  56.151  1.00  0.00     0.000 A 
HETATM   15  C   UNL     1      30.767  44.472  56.024  1.00  0.00     0.001 A 
HETATM   16  C   UNL     1      30.356  43.478  55.130  1.00  0.00     0.014 A 
ENDBRANCH   8  11
ENDBRANCH   1   5
BRANCH   2  17
HETATM   17  C   UNL     1      28.003  40.260  48.215  1.00  0.00     0.102 A 
HETATM   18  C   UNL     1      28.378  38.834  47.873  1.00  0.00     0.218 A 
HETATM   19  O   UNL     1      28.849  38.102  48.744  1.00  0.00    -0.284 OA
HETATM   20  C   UNL     1      28.158  38.371  46.460  1.00  0.00     0.078 A 
HETATM   21 BR   UNL     1      28.622  36.637  45.977  1.00  0.00    -0.045 Br
HETATM   22  C   UNL     1      27.632  39.256  45.601  1.00  0.00     0.111 A 
HETATM   23  N   UNL     1      27.293  40.536  45.950  1.00  0.00    -0.372 N 
HETATM   24  C   UNL     1      27.487  41.005  47.225  1.00  0.00     0.121 A 
HETATM   25  H   UNL     1      26.905  41.164  45.249  1.00  0.00     0.164 HD
ENDBRANCH   2  17
TORSDOF 3
ENDMDL
