MODEL 1
REMARK VINA RESULT:      -9.5      0.000      0.000
REMARK  9 active torsions:
REMARK  status: ('A' for Active; 'I' for Inactive)
REMARK    1  A    between atoms: S_2  and  C_3 
REMARK    2  A    between atoms: C_3  and  C_4 
REMARK    3  A    between atoms: C_5  and  C_6 
REMARK    4  A    between atoms: C_6  and  O_7 
REMARK    5  A    between atoms: O_7  and  C_8 
REMARK    6  A    between atoms: C_8  and  C_9 
REMARK       I    between atoms: C_9  and  N_10 
REMARK    7  A    between atoms: N_10  and  C_11 
REMARK    8  A    between atoms: C_12  and  C_13 
REMARK       I    between atoms: C_13  and  N_14 
REMARK    9  A    between atoms: N_14  and  C_15 
ROOT
HETATM    1  C   UNL     1      24.837  45.626  50.368  1.00  0.00     0.246 C 
HETATM    2  N   UNL     1      24.944  46.983  50.622  1.00  0.00    -0.324 N 
HETATM    3  O   UNL     1      25.010  45.098  49.275  1.00  0.00    -0.271 OA
HETATM    4  H   UNL     1      24.498  47.328  51.469  1.00  0.00     0.169 HD
ENDROOT
BRANCH   1   5
HETATM    5  C   UNL     1      24.426  44.825  51.606  1.00  0.00     0.282 C 
BRANCH   5   6
HETATM    6  O   UNL     1      25.567  44.226  52.222  1.00  0.00    -0.307 OA
BRANCH   6   7
HETATM    7  C   UNL     1      25.516  44.229  53.589  1.00  0.00     0.318 C 
HETATM    8  O   UNL     1      24.476  44.196  54.236  1.00  0.00    -0.257 OA
BRANCH   7   9
HETATM    9  C   UNL     1      26.845  44.212  54.156  1.00  0.00     0.159 A 
HETATM   10  C   UNL     1      27.801  43.200  54.176  1.00  0.00     0.004 A 
HETATM   11  C   UNL     1      28.935  43.740  54.859  1.00  0.00     0.008 A 
HETATM   12  C   UNL     1      28.594  45.041  55.202  1.00  0.00     0.087 A 
HETATM   13  C   UNL     1      30.211  43.266  55.218  1.00  0.00     0.015 A 
HETATM   14  O   UNL     1      27.336  45.330  54.776  1.00  0.00    -0.303 OA
HETATM   15  C   UNL     1      29.437  45.916  55.884  1.00  0.00     0.038 A 
HETATM   16  C   UNL     1      30.700  45.427  56.230  1.00  0.00     0.003 A 
HETATM   17  C   UNL     1      31.083  44.124  55.904  1.00  0.00     0.001 A 
BRANCH  10  18
HETATM   18  C   UNL     1      27.677  41.839  53.583  1.00  0.00     0.116 C 
BRANCH  18  19
HETATM   19  S   UNL     1      28.550  41.751  51.990  1.00  0.00    -0.169 SA
HETATM   20  C   UNL     1      27.138  41.332  50.942  1.00  0.00     0.090 C 
ENDBRANCH  18  19
ENDBRANCH  10  18
ENDBRANCH   7   9
ENDBRANCH   6   7
ENDBRANCH   5   6
ENDBRANCH   1   5
BRANCH   2  21
HETATM   21  C   UNL     1      25.532  47.954  49.776  1.00  0.00     0.050 A 
HETATM   22  C   UNL     1      24.716  48.878  49.092  1.00  0.00     0.058 A 
HETATM   23  C   UNL     1      25.282  49.935  48.365  1.00  0.00     0.019 A 
HETATM   24  C   UNL     1      26.667  50.059  48.286  1.00  0.00     0.001 A 
HETATM   25  C   UNL     1      27.483  49.128  48.926  1.00  0.00     0.002 A 
HETATM   26  C   UNL     1      26.921  48.083  49.666  1.00  0.00     0.030 A 
BRANCH  22  27
HETATM   27  C   UNL     1      23.240  48.728  49.034  1.00  0.00     0.254 C 
HETATM   28  N   UNL     1      22.541  49.869  49.385  1.00  0.00    -0.352 N 
HETATM   29  H   UNL     1      23.066  50.643  49.780  1.00  0.00     0.163 HD
HETATM   30  O   UNL     1      22.734  47.660  48.718  1.00  0.00    -0.268 OA
BRANCH  28  31
HETATM   31  C   UNL     1      21.115  49.948  49.410  1.00  0.00     0.084 A 
HETATM   32  C   UNL     1      20.429  51.027  50.200  1.00  0.00     0.027 A 
HETATM   33  C   UNL     1      20.419  51.078  48.701  1.00  0.00     0.027 A 
ENDBRANCH  28  31
ENDBRANCH  22  27
ENDBRANCH   2  21
TORSDOF 9
ENDMDL
MODEL 2
REMARK VINA RESULT:      -8.8      1.421      1.762
REMARK  9 active torsions:
REMARK  status: ('A' for Active; 'I' for Inactive)
REMARK    1  A    between atoms: S_2  and  C_3 
REMARK    2  A    between atoms: C_3  and  C_4 
REMARK    3  A    between atoms: C_5  and  C_6 
REMARK    4  A    between atoms: C_6  and  O_7 
REMARK    5  A    between atoms: O_7  and  C_8 
REMARK    6  A    between atoms: C_8  and  C_9 
REMARK       I    between atoms: C_9  and  N_10 
REMARK    7  A    between atoms: N_10  and  C_11 
REMARK    8  A    between atoms: C_12  and  C_13 
REMARK       I    between atoms: C_13  and  N_14 
REMARK    9  A    between atoms: N_14  and  C_15 
ROOT
HETATM    1  C   UNL     1      24.744  45.828  50.365  1.00  0.00     0.246 C 
HETATM    2  N   UNL     1      24.855  47.193  50.572  1.00  0.00    -0.324 N 
HETATM    3  O   UNL     1      24.733  45.280  49.269  1.00  0.00    -0.271 OA
HETATM    4  H   UNL     1      24.560  47.546  51.479  1.00  0.00     0.169 HD
ENDROOT
BRANCH   1   5
HETATM    5  C   UNL     1      24.586  45.045  51.671  1.00  0.00     0.282 C 
BRANCH   5   6
HETATM    6  O   UNL     1      25.655  45.340  52.571  1.00  0.00    -0.307 OA
BRANCH   6   7
HETATM    7  C   UNL     1      25.632  44.590  53.714  1.00  0.00     0.318 C 
HETATM    8  O   UNL     1      24.622  44.071  54.172  1.00  0.00    -0.257 OA
BRANCH   7   9
HETATM    9  C   UNL     1      26.960  44.444  54.264  1.00  0.00     0.159 A 
HETATM   10  C   UNL     1      27.870  43.396  54.155  1.00  0.00     0.004 A 
HETATM   11  C   UNL     1      29.029  43.798  54.888  1.00  0.00     0.008 A 
HETATM   12  C   UNL     1      28.748  45.062  55.389  1.00  0.00     0.087 A 
HETATM   13  C   UNL     1      30.282  43.227  55.178  1.00  0.00     0.015 A 
HETATM   14  O   UNL     1      27.503  45.456  55.012  1.00  0.00    -0.303 OA
HETATM   15  C   UNL     1      29.631  45.809  56.166  1.00  0.00     0.038 A 
HETATM   16  C   UNL     1      30.871  45.224  56.440  1.00  0.00     0.003 A 
HETATM   17  C   UNL     1      31.194  43.955  55.956  1.00  0.00     0.001 A 
BRANCH  10  18
HETATM   18  C   UNL     1      27.683  42.124  53.401  1.00  0.00     0.116 C 
BRANCH  18  19
HETATM   19  S   UNL     1      27.991  42.377  51.628  1.00  0.00    -0.169 SA
HETATM   20  C   UNL     1      26.360  41.899  51.009  1.00  0.00     0.090 C 
ENDBRANCH  18  19
ENDBRANCH  10  18
ENDBRANCH   7   9
ENDBRANCH   6   7
ENDBRANCH   5   6
ENDBRANCH   1   5
BRANCH   2  21
HETATM   21  C   UNL     1      25.253  48.158  49.616  1.00  0.00     0.050 A 
HETATM   22  C   UNL     1      24.280  48.843  48.860  1.00  0.00     0.058 A 
HETATM   23  C   UNL     1      24.641  49.902  48.016  1.00  0.00     0.019 A 
HETATM   24  C   UNL     1      25.980  50.264  47.891  1.00  0.00     0.001 A 
HETATM   25  C   UNL     1      26.955  49.568  48.603  1.00  0.00     0.002 A 
HETATM   26  C   UNL     1      26.595  48.523  49.460  1.00  0.00     0.030 A 
BRANCH  22  27
HETATM   27  C   UNL     1      22.856  48.425  48.854  1.00  0.00     0.254 C 
HETATM   28  N   UNL     1      22.597  47.310  48.077  1.00  0.00    -0.352 N 
HETATM   29  H   UNL     1      23.342  46.967  47.478  1.00  0.00     0.163 HD
HETATM   30  O   UNL     1      22.017  49.056  49.482  1.00  0.00    -0.268 OA
BRANCH  28  31
HETATM   31  C   UNL     1      21.297  46.740  47.917  1.00  0.00     0.084 A 
HETATM   32  C   UNL     1      20.600  46.801  46.587  1.00  0.00     0.027 A 
HETATM   33  C   UNL     1      21.126  45.491  47.095  1.00  0.00     0.027 A 
ENDBRANCH  28  31
ENDBRANCH  22  27
ENDBRANCH   2  21
TORSDOF 9
ENDMDL
MODEL 3
REMARK VINA RESULT:      -8.8      1.575      2.120
REMARK  9 active torsions:
REMARK  status: ('A' for Active; 'I' for Inactive)
REMARK    1  A    between atoms: S_2  and  C_3 
REMARK    2  A    between atoms: C_3  and  C_4 
REMARK    3  A    between atoms: C_5  and  C_6 
REMARK    4  A    between atoms: C_6  and  O_7 
REMARK    5  A    between atoms: O_7  and  C_8 
REMARK    6  A    between atoms: C_8  and  C_9 
REMARK       I    between atoms: C_9  and  N_10 
REMARK    7  A    between atoms: N_10  and  C_11 
REMARK    8  A    between atoms: C_12  and  C_13 
REMARK       I    between atoms: C_13  and  N_14 
REMARK    9  A    between atoms: N_14  and  C_15 
ROOT
HETATM    1  C   UNL     1      23.851  45.026  49.381  1.00  0.00     0.246 C 
HETATM    2  N   UNL     1      23.899  46.279  49.968  1.00  0.00    -0.324 N 
HETATM    3  O   UNL     1      24.223  44.767  48.242  1.00  0.00    -0.271 OA
HETATM    4  H   UNL     1      23.304  46.429  50.780  1.00  0.00     0.169 HD
ENDROOT
BRANCH   1   5
HETATM    5  C   UNL     1      23.228  43.970  50.297  1.00  0.00     0.282 C 
BRANCH   5   6
HETATM    6  O   UNL     1      23.818  44.015  51.596  1.00  0.00    -0.307 OA
BRANCH   6   7
HETATM    7  C   UNL     1      25.090  43.512  51.638  1.00  0.00     0.318 C 
HETATM    8  O   UNL     1      25.475  42.567  50.961  1.00  0.00    -0.257 OA
BRANCH   7   9
HETATM    9  C   UNL     1      25.921  44.281  52.535  1.00  0.00     0.159 A 
HETATM   10  C   UNL     1      26.967  43.878  53.361  1.00  0.00     0.004 A 
HETATM   11  C   UNL     1      27.435  45.061  54.013  1.00  0.00     0.008 A 
HETATM   12  C   UNL     1      26.647  46.100  53.539  1.00  0.00     0.087 A 
HETATM   13  C   UNL     1      28.442  45.359  54.951  1.00  0.00     0.015 A 
HETATM   14  O   UNL     1      25.735  45.634  52.645  1.00  0.00    -0.303 OA
HETATM   15  C   UNL     1      26.787  47.429  53.932  1.00  0.00     0.038 A 
HETATM   16  C   UNL     1      27.793  47.705  54.862  1.00  0.00     0.003 A 
HETATM   17  C   UNL     1      28.608  46.689  55.366  1.00  0.00     0.001 A 
BRANCH  10  18
HETATM   18  C   UNL     1      27.507  42.498  53.512  1.00  0.00     0.116 C 
BRANCH  18  19
HETATM   19  S   UNL     1      28.979  42.267  52.470  1.00  0.00    -0.169 SA
HETATM   20  C   UNL     1      28.447  40.778  51.593  1.00  0.00     0.090 C 
ENDBRANCH  18  19
ENDBRANCH  10  18
ENDBRANCH   7   9
ENDBRANCH   6   7
ENDBRANCH   5   6
ENDBRANCH   1   5
BRANCH   2  21
HETATM   21  C   UNL     1      24.623  47.401  49.498  1.00  0.00     0.050 A 
HETATM   22  C   UNL     1      23.944  48.467  48.874  1.00  0.00     0.058 A 
HETATM   23  C   UNL     1      24.619  49.647  48.533  1.00  0.00     0.019 A 
HETATM   24  C   UNL     1      25.985  49.761  48.779  1.00  0.00     0.001 A 
HETATM   25  C   UNL     1      26.675  48.698  49.359  1.00  0.00     0.002 A 
HETATM   26  C   UNL     1      26.000  47.526  49.717  1.00  0.00     0.030 A 
BRANCH  22  27
HETATM   27  C   UNL     1      22.519  48.359  48.472  1.00  0.00     0.254 C 
HETATM   28  N   UNL     1      21.645  49.049  49.293  1.00  0.00    -0.352 N 
HETATM   29  H   UNL     1      22.015  49.439  50.156  1.00  0.00     0.163 HD
HETATM   30  O   UNL     1      22.193  47.688  47.503  1.00  0.00    -0.268 OA
BRANCH  28  31
HETATM   31  C   UNL     1      20.231  49.076  49.101  1.00  0.00     0.084 A 
HETATM   32  C   UNL     1      19.374  47.951  49.613  1.00  0.00     0.027 A 
HETATM   33  C   UNL     1      19.321  49.294  50.280  1.00  0.00     0.027 A 
ENDBRANCH  28  31
ENDBRANCH  22  27
ENDBRANCH   2  21
TORSDOF 9
ENDMDL
MODEL 4
REMARK VINA RESULT:      -8.5      2.888      9.026
REMARK  9 active torsions:
REMARK  status: ('A' for Active; 'I' for Inactive)
REMARK    1  A    between atoms: S_2  and  C_3 
REMARK    2  A    between atoms: C_3  and  C_4 
REMARK    3  A    between atoms: C_5  and  C_6 
REMARK    4  A    between atoms: C_6  and  O_7 
REMARK    5  A    between atoms: O_7  and  C_8 
REMARK    6  A    between atoms: C_8  and  C_9 
REMARK       I    between atoms: C_9  and  N_10 
REMARK    7  A    between atoms: N_10  and  C_11 
REMARK    8  A    between atoms: C_12  and  C_13 
REMARK       I    between atoms: C_13  and  N_14 
REMARK    9  A    between atoms: N_14  and  C_15 
ROOT
HETATM    1  C   UNL     1      25.435  44.410  52.707  1.00  0.00     0.246 C 
HETATM    2  N   UNL     1      26.711  44.246  52.195  1.00  0.00    -0.324 N 
HETATM    3  O   UNL     1      25.042  43.960  53.778  1.00  0.00    -0.271 OA
HETATM    4  H   UNL     1      26.828  44.400  51.196  1.00  0.00     0.169 HD
ENDROOT
BRANCH   1   5
HETATM    5  C   UNL     1      24.516  45.190  51.764  1.00  0.00     0.282 C 
BRANCH   5   6
HETATM    6  O   UNL     1      25.113  46.432  51.389  1.00  0.00    -0.307 OA
BRANCH   6   7
HETATM    7  C   UNL     1      25.231  46.597  50.036  1.00  0.00     0.318 C 
HETATM    8  O   UNL     1      26.070  46.030  49.347  1.00  0.00    -0.257 OA
BRANCH   7   9
HETATM    9  C   UNL     1      24.200  47.475  49.531  1.00  0.00     0.159 A 
HETATM   10  C   UNL     1      22.970  47.177  48.951  1.00  0.00     0.004 A 
HETATM   11  C   UNL     1      22.357  48.434  48.654  1.00  0.00     0.008 A 
HETATM   12  C   UNL     1      23.252  49.408  49.075  1.00  0.00     0.087 A 
HETATM   13  C   UNL     1      21.142  48.847  48.076  1.00  0.00     0.015 A 
HETATM   14  O   UNL     1      24.363  48.832  49.608  1.00  0.00    -0.303 OA
HETATM   15  C   UNL     1      23.026  50.778  48.964  1.00  0.00     0.038 A 
HETATM   16  C   UNL     1      21.813  51.167  48.390  1.00  0.00     0.003 A 
HETATM   17  C   UNL     1      20.884  50.220  47.952  1.00  0.00     0.001 A 
BRANCH  10  18
HETATM   18  C   UNL     1      22.396  45.822  48.714  1.00  0.00     0.116 C 
BRANCH  18  19
HETATM   19  S   UNL     1      22.306  45.466  46.934  1.00  0.00    -0.169 SA
HETATM   20  C   UNL     1      23.212  43.901  46.935  1.00  0.00     0.090 C 
ENDBRANCH  18  19
ENDBRANCH  10  18
ENDBRANCH   7   9
ENDBRANCH   6   7
ENDBRANCH   5   6
ENDBRANCH   1   5
BRANCH   2  21
HETATM   21  C   UNL     1      27.850  43.796  52.904  1.00  0.00     0.050 A 
HETATM   22  C   UNL     1      28.624  42.735  52.393  1.00  0.00     0.058 A 
HETATM   23  C   UNL     1      29.834  42.370  53.000  1.00  0.00     0.019 A 
HETATM   24  C   UNL     1      30.265  43.038  54.144  1.00  0.00     0.001 A 
HETATM   25  C   UNL     1      29.489  44.063  54.681  1.00  0.00     0.002 A 
HETATM   26  C   UNL     1      28.289  44.441  54.066  1.00  0.00     0.030 A 
BRANCH  22  27
HETATM   27  C   UNL     1      28.158  41.903  51.254  1.00  0.00     0.254 C 
HETATM   28  N   UNL     1      28.618  40.599  51.280  1.00  0.00    -0.352 N 
HETATM   29  H   UNL     1      29.327  40.361  51.967  1.00  0.00     0.163 HD
HETATM   30  O   UNL     1      27.447  42.383  50.382  1.00  0.00    -0.268 OA
BRANCH  28  31
HETATM   31  C   UNL     1      28.304  39.628  50.281  1.00  0.00     0.084 A 
HETATM   32  C   UNL     1      29.070  39.595  48.988  1.00  0.00     0.027 A 
HETATM   33  C   UNL     1      29.268  38.507  50.001  1.00  0.00     0.027 A 
ENDBRANCH  28  31
ENDBRANCH  22  27
ENDBRANCH   2  21
TORSDOF 9
ENDMDL
MODEL 5
REMARK VINA RESULT:      -8.4      2.047      2.907
REMARK  9 active torsions:
REMARK  status: ('A' for Active; 'I' for Inactive)
REMARK    1  A    between atoms: S_2  and  C_3 
REMARK    2  A    between atoms: C_3  and  C_4 
REMARK    3  A    between atoms: C_5  and  C_6 
REMARK    4  A    between atoms: C_6  and  O_7 
REMARK    5  A    between atoms: O_7  and  C_8 
REMARK    6  A    between atoms: C_8  and  C_9 
REMARK       I    between atoms: C_9  and  N_10 
REMARK    7  A    between atoms: N_10  and  C_11 
REMARK    8  A    between atoms: C_12  and  C_13 
REMARK       I    between atoms: C_13  and  N_14 
REMARK    9  A    between atoms: N_14  and  C_15 
ROOT
HETATM    1  C   UNL     1      23.920  45.784  49.515  1.00  0.00     0.246 C 
HETATM    2  N   UNL     1      23.809  47.104  49.916  1.00  0.00    -0.324 N 
HETATM    3  O   UNL     1      23.841  45.389  48.357  1.00  0.00    -0.271 OA
HETATM    4  H   UNL     1      23.597  47.270  50.897  1.00  0.00     0.169 HD
ENDROOT
BRANCH   1   5
HETATM    5  C   UNL     1      24.110  44.824  50.693  1.00  0.00     0.282 C 
BRANCH   5   6
HETATM    6  O   UNL     1      25.486  44.754  51.071  1.00  0.00    -0.307 OA
BRANCH   6   7
HETATM    7  C   UNL     1      25.836  43.562  51.645  1.00  0.00     0.318 C 
HETATM    8  O   UNL     1      25.350  42.482  51.333  1.00  0.00    -0.257 OA
BRANCH   7   9
HETATM    9  C   UNL     1      26.892  43.746  52.614  1.00  0.00     0.159 A 
HETATM   10  C   UNL     1      26.948  44.564  53.739  1.00  0.00     0.004 A 
HETATM   11  C   UNL     1      28.226  44.332  54.335  1.00  0.00     0.008 A 
HETATM   12  C   UNL     1      28.857  43.388  53.536  1.00  0.00     0.087 A 
HETATM   13  C   UNL     1      28.912  44.820  55.464  1.00  0.00     0.015 A 
HETATM   14  O   UNL     1      28.054  43.030  52.500  1.00  0.00    -0.303 OA
HETATM   15  C   UNL     1      30.134  42.887  53.780  1.00  0.00     0.038 A 
HETATM   16  C   UNL     1      30.797  43.382  54.907  1.00  0.00     0.003 A 
HETATM   17  C   UNL     1      30.198  44.333  55.736  1.00  0.00     0.001 A 
BRANCH  10  18
HETATM   18  C   UNL     1      25.880  45.477  54.236  1.00  0.00     0.116 C 
BRANCH  18  19
HETATM   19  S   UNL     1      26.221  47.193  53.743  1.00  0.00    -0.169 SA
HETATM   20  C   UNL     1      26.458  47.896  55.393  1.00  0.00     0.090 C 
ENDBRANCH  18  19
ENDBRANCH  10  18
ENDBRANCH   7   9
ENDBRANCH   6   7
ENDBRANCH   5   6
ENDBRANCH   1   5
BRANCH   2  21
HETATM   21  C   UNL     1      23.872  48.245  49.081  1.00  0.00     0.050 A 
HETATM   22  C   UNL     1      22.684  48.890  48.680  1.00  0.00     0.058 A 
HETATM   23  C   UNL     1      22.727  50.101  47.975  1.00  0.00     0.019 A 
HETATM   24  C   UNL     1      23.955  50.661  47.632  1.00  0.00     0.001 A 
HETATM   25  C   UNL     1      25.136  50.012  47.989  1.00  0.00     0.002 A 
HETATM   26  C   UNL     1      25.096  48.812  48.708  1.00  0.00     0.030 A 
BRANCH  22  27
HETATM   27  C   UNL     1      21.348  48.282  48.905  1.00  0.00     0.254 C 
HETATM   28  N   UNL     1      20.429  49.136  49.487  1.00  0.00    -0.352 N 
HETATM   29  H   UNL     1      20.766  50.028  49.836  1.00  0.00     0.163 HD
HETATM   30  O   UNL     1      21.135  47.116  48.603  1.00  0.00    -0.268 OA
BRANCH  28  31
HETATM   31  C   UNL     1      19.088  48.759  49.802  1.00  0.00     0.084 A 
HETATM   32  C   UNL     1      18.622  48.738  51.232  1.00  0.00     0.027 A 
HETATM   33  C   UNL     1      18.118  49.798  50.298  1.00  0.00     0.027 A 
ENDBRANCH  28  31
ENDBRANCH  22  27
ENDBRANCH   2  21
TORSDOF 9
ENDMDL
MODEL 6
REMARK VINA RESULT:      -8.3      2.674      9.258
REMARK  9 active torsions:
REMARK  status: ('A' for Active; 'I' for Inactive)
REMARK    1  A    between atoms: S_2  and  C_3 
REMARK    2  A    between atoms: C_3  and  C_4 
REMARK    3  A    between atoms: C_5  and  C_6 
REMARK    4  A    between atoms: C_6  and  O_7 
REMARK    5  A    between atoms: O_7  and  C_8 
REMARK    6  A    between atoms: C_8  and  C_9 
REMARK       I    between atoms: C_9  and  N_10 
REMARK    7  A    between atoms: N_10  and  C_11 
REMARK    8  A    between atoms: C_12  and  C_13 
REMARK       I    between atoms: C_13  and  N_14 
REMARK    9  A    between atoms: N_14  and  C_15 
ROOT
HETATM    1  C   UNL     1      25.418  44.919  51.993  1.00  0.00     0.246 C 
HETATM    2  N   UNL     1      26.792  44.751  51.975  1.00  0.00    -0.324 N 
HETATM    3  O   UNL     1      24.600  44.021  52.162  1.00  0.00    -0.271 OA
HETATM    4  H   UNL     1      27.339  45.491  51.540  1.00  0.00     0.169 HD
ENDROOT
BRANCH   1   5
HETATM    5  C   UNL     1      24.997  46.366  51.728  1.00  0.00     0.282 C 
BRANCH   5   6
HETATM    6  O   UNL     1      24.252  46.462  50.514  1.00  0.00    -0.307 OA
BRANCH   6   7
HETATM    7  C   UNL     1      24.634  47.507  49.717  1.00  0.00     0.318 C 
HETATM    8  O   UNL     1      25.797  47.751  49.419  1.00  0.00    -0.257 OA
BRANCH   7   9
HETATM    9  C   UNL     1      23.484  48.236  49.233  1.00  0.00     0.159 A 
HETATM   10  C   UNL     1      22.487  47.852  48.341  1.00  0.00     0.004 A 
HETATM   11  C   UNL     1      21.596  48.965  48.239  1.00  0.00     0.008 A 
HETATM   12  C   UNL     1      22.109  49.946  49.076  1.00  0.00     0.087 A 
HETATM   13  C   UNL     1      20.412  49.243  47.529  1.00  0.00     0.015 A 
HETATM   14  O   UNL     1      23.246  49.508  49.680  1.00  0.00    -0.303 OA
HETATM   15  C   UNL     1      21.526  51.198  49.263  1.00  0.00     0.038 A 
HETATM   16  C   UNL     1      20.350  51.453  48.551  1.00  0.00     0.003 A 
HETATM   17  C   UNL     1      19.801  50.494  47.697  1.00  0.00     0.001 A 
BRANCH  10  18
HETATM   18  C   UNL     1      22.358  46.536  47.654  1.00  0.00     0.116 C 
BRANCH  18  19
HETATM   19  S   UNL     1      21.334  45.397  48.633  1.00  0.00    -0.169 SA
HETATM   20  C   UNL     1      19.784  45.590  47.721  1.00  0.00     0.090 C 
ENDBRANCH  18  19
ENDBRANCH  10  18
ENDBRANCH   7   9
ENDBRANCH   6   7
ENDBRANCH   5   6
ENDBRANCH   1   5
BRANCH   2  21
HETATM   21  C   UNL     1      27.507  43.612  52.418  1.00  0.00     0.050 A 
HETATM   22  C   UNL     1      28.037  43.578  53.724  1.00  0.00     0.058 A 
HETATM   23  C   UNL     1      28.619  42.409  54.232  1.00  0.00     0.019 A 
HETATM   24  C   UNL     1      28.710  41.274  53.430  1.00  0.00     0.001 A 
HETATM   25  C   UNL     1      28.225  41.308  52.124  1.00  0.00     0.002 A 
HETATM   26  C   UNL     1      27.627  42.469  51.620  1.00  0.00     0.030 A 
BRANCH  22  27
HETATM   27  C   UNL     1      28.083  44.789  54.582  1.00  0.00     0.254 C 
HETATM   28  N   UNL     1      29.262  44.935  55.291  1.00  0.00    -0.352 N 
HETATM   29  H   UNL     1      29.919  44.160  55.283  1.00  0.00     0.163 HD
HETATM   30  O   UNL     1      27.127  45.550  54.640  1.00  0.00    -0.268 OA
BRANCH  28  31
HETATM   31  C   UNL     1      29.520  46.019  56.184  1.00  0.00     0.084 A 
HETATM   32  C   UNL     1      28.866  46.059  57.537  1.00  0.00     0.027 A 
HETATM   33  C   UNL     1      30.336  45.784  57.426  1.00  0.00     0.027 A 
ENDBRANCH  28  31
ENDBRANCH  22  27
ENDBRANCH   2  21
TORSDOF 9
ENDMDL
MODEL 7
REMARK VINA RESULT:      -8.2      2.160      2.739
REMARK  9 active torsions:
REMARK  status: ('A' for Active; 'I' for Inactive)
REMARK    1  A    between atoms: S_2  and  C_3 
REMARK    2  A    between atoms: C_3  and  C_4 
REMARK    3  A    between atoms: C_5  and  C_6 
REMARK    4  A    between atoms: C_6  and  O_7 
REMARK    5  A    between atoms: O_7  and  C_8 
REMARK    6  A    between atoms: C_8  and  C_9 
REMARK       I    between atoms: C_9  and  N_10 
REMARK    7  A    between atoms: N_10  and  C_11 
REMARK    8  A    between atoms: C_12  and  C_13 
REMARK       I    between atoms: C_13  and  N_14 
REMARK    9  A    between atoms: N_14  and  C_15 
ROOT
HETATM    1  C   UNL     1      24.504  46.970  50.390  1.00  0.00     0.246 C 
HETATM    2  N   UNL     1      23.772  47.175  49.233  1.00  0.00    -0.324 N 
HETATM    3  O   UNL     1      24.942  47.858  51.114  1.00  0.00    -0.271 OA
HETATM    4  H   UNL     1      23.723  46.399  48.577  1.00  0.00     0.169 HD
ENDROOT
BRANCH   1   5
HETATM    5  C   UNL     1      24.766  45.488  50.668  1.00  0.00     0.282 C 
BRANCH   5   6
HETATM    6  O   UNL     1      25.923  45.323  51.488  1.00  0.00    -0.307 OA
BRANCH   6   7
HETATM    7  C   UNL     1      25.667  44.698  52.678  1.00  0.00     0.318 C 
HETATM    8  O   UNL     1      24.553  44.329  53.032  1.00  0.00    -0.257 OA
BRANCH   7   9
HETATM    9  C   UNL     1      26.886  44.481  53.422  1.00  0.00     0.159 A 
HETATM   10  C   UNL     1      27.703  43.357  53.501  1.00  0.00     0.004 A 
HETATM   11  C   UNL     1      28.780  43.711  54.372  1.00  0.00     0.008 A 
HETATM   12  C   UNL     1      28.548  45.023  54.759  1.00  0.00     0.087 A 
HETATM   13  C   UNL     1      29.925  43.059  54.870  1.00  0.00     0.015 A 
HETATM   14  O   UNL     1      27.408  45.492  54.184  1.00  0.00    -0.303 OA
HETATM   15  C   UNL     1      29.378  45.745  55.613  1.00  0.00     0.038 A 
HETATM   16  C   UNL     1      30.510  45.081  56.095  1.00  0.00     0.003 A 
HETATM   17  C   UNL     1      30.781  43.760  55.732  1.00  0.00     0.001 A 
BRANCH  10  18
HETATM   18  C   UNL     1      27.509  42.058  52.798  1.00  0.00     0.116 C 
BRANCH  18  19
HETATM   19  S   UNL     1      27.780  42.248  51.011  1.00  0.00    -0.169 SA
HETATM   20  C   UNL     1      28.153  40.523  50.619  1.00  0.00     0.090 C 
ENDBRANCH  18  19
ENDBRANCH  10  18
ENDBRANCH   7   9
ENDBRANCH   6   7
ENDBRANCH   5   6
ENDBRANCH   1   5
BRANCH   2  21
HETATM   21  C   UNL     1      23.159  48.385  48.829  1.00  0.00     0.050 A 
HETATM   22  C   UNL     1      21.771  48.426  48.589  1.00  0.00     0.058 A 
HETATM   23  C   UNL     1      21.121  49.641  48.330  1.00  0.00     0.019 A 
HETATM   24  C   UNL     1      21.858  50.822  48.273  1.00  0.00     0.001 A 
HETATM   25  C   UNL     1      23.237  50.789  48.470  1.00  0.00     0.002 A 
HETATM   26  C   UNL     1      23.884  49.580  48.747  1.00  0.00     0.030 A 
BRANCH  22  27
HETATM   27  C   UNL     1      20.953  47.189  48.511  1.00  0.00     0.254 C 
HETATM   28  N   UNL     1      19.591  47.415  48.433  1.00  0.00    -0.352 N 
HETATM   29  H   UNL     1      19.259  48.365  48.577  1.00  0.00     0.163 HD
HETATM   30  O   UNL     1      21.484  46.087  48.538  1.00  0.00    -0.268 OA
BRANCH  28  31
HETATM   31  C   UNL     1      18.617  46.373  48.360  1.00  0.00     0.084 A 
HETATM   32  C   UNL     1      17.151  46.698  48.428  1.00  0.00     0.027 A 
HETATM   33  C   UNL     1      17.756  46.241  47.134  1.00  0.00     0.027 A 
ENDBRANCH  28  31
ENDBRANCH  22  27
ENDBRANCH   2  21
TORSDOF 9
ENDMDL
MODEL 8
REMARK VINA RESULT:      -8.2      3.515      9.635
REMARK  9 active torsions:
REMARK  status: ('A' for Active; 'I' for Inactive)
REMARK    1  A    between atoms: S_2  and  C_3 
REMARK    2  A    between atoms: C_3  and  C_4 
REMARK    3  A    between atoms: C_5  and  C_6 
REMARK    4  A    between atoms: C_6  and  O_7 
REMARK    5  A    between atoms: O_7  and  C_8 
REMARK    6  A    between atoms: C_8  and  C_9 
REMARK       I    between atoms: C_9  and  N_10 
REMARK    7  A    between atoms: N_10  and  C_11 
REMARK    8  A    between atoms: C_12  and  C_13 
REMARK       I    between atoms: C_13  and  N_14 
REMARK    9  A    between atoms: N_14  and  C_15 
ROOT
HETATM    1  C   UNL     1      25.389  47.394  50.898  1.00  0.00     0.246 C 
HETATM    2  N   UNL     1      25.143  46.797  52.123  1.00  0.00    -0.324 N 
HETATM    3  O   UNL     1      26.422  47.979  50.593  1.00  0.00    -0.271 OA
HETATM    4  H   UNL     1      24.171  46.612  52.358  1.00  0.00     0.169 HD
ENDROOT
BRANCH   1   5
HETATM    5  C   UNL     1      24.195  47.295  49.945  1.00  0.00     0.282 C 
BRANCH   5   6
HETATM    6  O   UNL     1      23.478  48.529  49.901  1.00  0.00    -0.307 OA
BRANCH   6   7
HETATM    7  C   UNL     1      22.860  48.762  48.703  1.00  0.00     0.318 C 
HETATM    8  O   UNL     1      23.435  49.188  47.709  1.00  0.00    -0.257 OA
BRANCH   7   9
HETATM    9  C   UNL     1      21.468  48.380  48.755  1.00  0.00     0.159 A 
HETATM   10  C   UNL     1      20.370  49.052  49.287  1.00  0.00     0.004 A 
HETATM   11  C   UNL     1      19.238  48.213  49.047  1.00  0.00     0.008 A 
HETATM   12  C   UNL     1      19.722  47.093  48.385  1.00  0.00     0.087 A 
HETATM   13  C   UNL     1      17.859  48.286  49.319  1.00  0.00     0.015 A 
HETATM   14  O   UNL     1      21.066  47.193  48.204  1.00  0.00    -0.303 OA
HETATM   15  C   UNL     1      18.927  46.028  47.968  1.00  0.00     0.038 A 
HETATM   16  C   UNL     1      17.560  46.120  48.246  1.00  0.00     0.003 A 
HETATM   17  C   UNL     1      17.032  47.229  48.911  1.00  0.00     0.001 A 
BRANCH  10  18
HETATM   18  C   UNL     1      20.372  50.388  49.946  1.00  0.00     0.116 C 
BRANCH  18  19
HETATM   19  S   UNL     1      19.783  51.671  48.800  1.00  0.00    -0.169 SA
HETATM   20  C   UNL     1      18.298  52.167  49.705  1.00  0.00     0.090 C 
ENDBRANCH  18  19
ENDBRANCH  10  18
ENDBRANCH   7   9
ENDBRANCH   6   7
ENDBRANCH   5   6
ENDBRANCH   1   5
BRANCH   2  21
HETATM   21  C   UNL     1      26.102  46.501  53.121  1.00  0.00     0.050 A 
HETATM   22  C   UNL     1      26.641  45.202  53.217  1.00  0.00     0.058 A 
HETATM   23  C   UNL     1      27.694  44.924  54.099  1.00  0.00     0.019 A 
HETATM   24  C   UNL     1      28.195  45.931  54.920  1.00  0.00     0.001 A 
HETATM   25  C   UNL     1      27.644  47.210  54.862  1.00  0.00     0.002 A 
HETATM   26  C   UNL     1      26.605  47.494  53.969  1.00  0.00     0.030 A 
BRANCH  22  27
HETATM   27  C   UNL     1      26.068  44.059  52.462  1.00  0.00     0.254 C 
HETATM   28  N   UNL     1      27.009  43.280  51.813  1.00  0.00    -0.352 N 
HETATM   29  H   UNL     1      27.966  43.621  51.782  1.00  0.00     0.163 HD
HETATM   30  O   UNL     1      24.859  43.876  52.431  1.00  0.00    -0.268 OA
BRANCH  28  31
HETATM   31  C   UNL     1      26.682  42.138  51.021  1.00  0.00     0.084 A 
HETATM   32  C   UNL     1      27.047  42.096  49.563  1.00  0.00     0.027 A 
HETATM   33  C   UNL     1      27.777  41.225  50.541  1.00  0.00     0.027 A 
ENDBRANCH  28  31
ENDBRANCH  22  27
ENDBRANCH   2  21
TORSDOF 9
ENDMDL
MODEL 9
REMARK VINA RESULT:      -8.2      1.764      2.619
REMARK  9 active torsions:
REMARK  status: ('A' for Active; 'I' for Inactive)
REMARK    1  A    between atoms: S_2  and  C_3 
REMARK    2  A    between atoms: C_3  and  C_4 
REMARK    3  A    between atoms: C_5  and  C_6 
REMARK    4  A    between atoms: C_6  and  O_7 
REMARK    5  A    between atoms: O_7  and  C_8 
REMARK    6  A    between atoms: C_8  and  C_9 
REMARK       I    between atoms: C_9  and  N_10 
REMARK    7  A    between atoms: N_10  and  C_11 
REMARK    8  A    between atoms: C_12  and  C_13 
REMARK       I    between atoms: C_13  and  N_14 
REMARK    9  A    between atoms: N_14  and  C_15 
ROOT
HETATM    1  C   UNL     1      24.801  45.885  50.078  1.00  0.00     0.246 C 
HETATM    2  N   UNL     1      23.433  46.080  50.004  1.00  0.00    -0.324 N 
HETATM    3  O   UNL     1      25.494  45.406  49.187  1.00  0.00    -0.271 OA
HETATM    4  H   UNL     1      22.937  46.199  50.884  1.00  0.00     0.169 HD
ENDROOT
BRANCH   1   5
HETATM    5  C   UNL     1      25.382  46.293  51.433  1.00  0.00     0.282 C 
BRANCH   5   6
HETATM    6  O   UNL     1      26.401  45.379  51.843  1.00  0.00    -0.307 OA
BRANCH   6   7
HETATM    7  C   UNL     1      26.107  44.714  53.002  1.00  0.00     0.318 C 
HETATM    8  O   UNL     1      24.979  44.357  53.319  1.00  0.00    -0.257 OA
BRANCH   7   9
HETATM    9  C   UNL     1      27.306  44.440  53.759  1.00  0.00     0.159 A 
HETATM   10  C   UNL     1      28.064  43.276  53.854  1.00  0.00     0.004 A 
HETATM   11  C   UNL     1      29.148  43.580  54.735  1.00  0.00     0.008 A 
HETATM   12  C   UNL     1      28.979  44.905  55.111  1.00  0.00     0.087 A 
HETATM   13  C   UNL     1      30.253  42.874  55.249  1.00  0.00     0.015 A 
HETATM   14  O   UNL     1      27.872  45.428  54.521  1.00  0.00    -0.303 OA
HETATM   15  C   UNL     1      29.837  45.589  55.969  1.00  0.00     0.038 A 
HETATM   16  C   UNL     1      30.928  44.871  56.467  1.00  0.00     0.003 A 
HETATM   17  C   UNL     1      31.135  43.536  56.115  1.00  0.00     0.001 A 
BRANCH  10  18
HETATM   18  C   UNL     1      27.810  41.983  53.158  1.00  0.00     0.116 C 
BRANCH  18  19
HETATM   19  S   UNL     1      28.087  42.154  51.369  1.00  0.00    -0.169 SA
HETATM   20  C   UNL     1      28.277  40.401  50.967  1.00  0.00     0.090 C 
ENDBRANCH  18  19
ENDBRANCH  10  18
ENDBRANCH   7   9
ENDBRANCH   6   7
ENDBRANCH   5   6
ENDBRANCH   1   5
BRANCH   2  21
HETATM   21  C   UNL     1      22.639  46.039  48.832  1.00  0.00     0.050 A 
HETATM   22  C   UNL     1      22.155  47.236  48.267  1.00  0.00     0.058 A 
HETATM   23  C   UNL     1      21.493  47.231  47.032  1.00  0.00     0.019 A 
HETATM   24  C   UNL     1      21.276  46.027  46.366  1.00  0.00     0.001 A 
HETATM   25  C   UNL     1      21.715  44.833  46.934  1.00  0.00     0.002 A 
HETATM   26  C   UNL     1      22.392  44.837  48.158  1.00  0.00     0.030 A 
BRANCH  22  27
HETATM   27  C   UNL     1      22.244  48.533  48.985  1.00  0.00     0.254 C 
HETATM   28  N   UNL     1      21.117  49.326  48.862  1.00  0.00    -0.352 N 
HETATM   29  H   UNL     1      20.405  49.037  48.197  1.00  0.00     0.163 HD
HETATM   30  O   UNL     1      23.256  48.836  49.601  1.00  0.00    -0.268 OA
BRANCH  28  31
HETATM   31  C   UNL     1      20.987  50.616  49.460  1.00  0.00     0.084 A 
HETATM   32  C   UNL     1      20.186  51.691  48.779  1.00  0.00     0.027 A 
HETATM   33  C   UNL     1      19.661  51.045  50.026  1.00  0.00     0.027 A 
ENDBRANCH  28  31
ENDBRANCH  22  27
ENDBRANCH   2  21
TORSDOF 9
ENDMDL
MODEL 10
REMARK VINA RESULT:      -8.1      1.940      4.108
REMARK  9 active torsions:
REMARK  status: ('A' for Active; 'I' for Inactive)
REMARK    1  A    between atoms: S_2  and  C_3 
REMARK    2  A    between atoms: C_3  and  C_4 
REMARK    3  A    between atoms: C_5  and  C_6 
REMARK    4  A    between atoms: C_6  and  O_7 
REMARK    5  A    between atoms: O_7  and  C_8 
REMARK    6  A    between atoms: C_8  and  C_9 
REMARK       I    between atoms: C_9  and  N_10 
REMARK    7  A    between atoms: N_10  and  C_11 
REMARK    8  A    between atoms: C_12  and  C_13 
REMARK       I    between atoms: C_13  and  N_14 
REMARK    9  A    between atoms: N_14  and  C_15 
ROOT
HETATM    1  C   UNL     1      22.419  45.745  47.978  1.00  0.00     0.246 C 
HETATM    2  N   UNL     1      22.146  46.727  48.915  1.00  0.00    -0.324 N 
HETATM    3  O   UNL     1      22.354  45.893  46.762  1.00  0.00    -0.271 OA
HETATM    4  H   UNL     1      21.946  46.415  49.862  1.00  0.00     0.169 HD
ENDROOT
BRANCH   1   5
HETATM    5  C   UNL     1      22.776  44.401  48.618  1.00  0.00     0.282 C 
BRANCH   5   6
HETATM    6  O   UNL     1      23.752  44.574  49.646  1.00  0.00    -0.307 OA
BRANCH   6   7
HETATM    7  C   UNL     1      23.709  43.607  50.612  1.00  0.00     0.318 C 
HETATM    8  O   UNL     1      22.823  42.765  50.699  1.00  0.00    -0.257 OA
BRANCH   7   9
HETATM    9  C   UNL     1      24.873  43.675  51.465  1.00  0.00     0.159 A 
HETATM   10  C   UNL     1      26.133  43.101  51.316  1.00  0.00     0.004 A 
HETATM   11  C   UNL     1      26.893  43.514  52.454  1.00  0.00     0.008 A 
HETATM   12  C   UNL     1      26.048  44.313  53.212  1.00  0.00     0.087 A 
HETATM   13  C   UNL     1      28.205  43.298  52.917  1.00  0.00     0.015 A 
HETATM   14  O   UNL     1      24.831  44.415  52.617  1.00  0.00    -0.303 OA
HETATM   15  C   UNL     1      26.415  44.920  54.411  1.00  0.00     0.038 A 
HETATM   16  C   UNL     1      27.722  44.694  54.853  1.00  0.00     0.003 A 
HETATM   17  C   UNL     1      28.604  43.897  54.121  1.00  0.00     0.001 A 
BRANCH  10  18
HETATM   18  C   UNL     1      26.601  42.251  50.186  1.00  0.00     0.116 C 
BRANCH  18  19
HETATM   19  S   UNL     1      26.314  40.491  50.545  1.00  0.00    -0.169 SA
HETATM   20  C   UNL     1      26.320  39.875  48.845  1.00  0.00     0.090 C 
ENDBRANCH  18  19
ENDBRANCH  10  18
ENDBRANCH   7   9
ENDBRANCH   6   7
ENDBRANCH   5   6
ENDBRANCH   1   5
BRANCH   2  21
HETATM   21  C   UNL     1      22.026  48.115  48.667  1.00  0.00     0.050 A 
HETATM   22  C   UNL     1      23.119  48.971  48.914  1.00  0.00     0.058 A 
HETATM   23  C   UNL     1      23.073  50.321  48.542  1.00  0.00     0.019 A 
HETATM   24  C   UNL     1      21.922  50.839  47.952  1.00  0.00     0.001 A 
HETATM   25  C   UNL     1      20.822  50.012  47.738  1.00  0.00     0.002 A 
HETATM   26  C   UNL     1      20.872  48.659  48.093  1.00  0.00     0.030 A 
BRANCH  22  27
HETATM   27  C   UNL     1      24.323  48.511  49.652  1.00  0.00     0.254 C 
HETATM   28  N   UNL     1      25.518  48.968  49.127  1.00  0.00    -0.352 N 
HETATM   29  H   UNL     1      25.489  49.442  48.229  1.00  0.00     0.163 HD
HETATM   30  O   UNL     1      24.216  47.774  50.623  1.00  0.00    -0.268 OA
BRANCH  28  31
HETATM   31  C   UNL     1      26.798  48.642  49.669  1.00  0.00     0.084 A 
HETATM   32  C   UNL     1      27.805  47.893  48.841  1.00  0.00     0.027 A 
HETATM   33  C   UNL     1      28.026  49.343  49.155  1.00  0.00     0.027 A 
ENDBRANCH  28  31
ENDBRANCH  22  27
ENDBRANCH   2  21
TORSDOF 9
ENDMDL
