MODEL 1
REMARK VINA RESULT:      -7.8      0.000      0.000
REMARK  3 active torsions:
REMARK  status: ('A' for Active; 'I' for Inactive)
REMARK    1  A    between atoms: C_5  and  N_6 
REMARK       I    between atoms: N_6  and  C_7 
REMARK    2  A    between atoms: C_7  and  C_8 
REMARK    3  A    between atoms: C_11  and  N_12 
ROOT
HETATM    1  C   UNL     1      28.787  52.533  37.980  1.00  0.00     0.001 A 
HETATM    2  C   UNL     1      28.040  51.774  38.884  1.00  0.00     0.008 A 
HETATM    3  C   UNL     1      28.596  50.603  39.369  1.00  0.00    -0.043 A 
HETATM    4  C   UNL     1      29.875  50.187  38.964  1.00  0.00    -0.028 A 
HETATM    5  C   UNL     1      30.312  48.959  39.740  1.00  0.00     0.125 C 
HETATM    6  C   UNL     1      28.895  48.390  40.046  1.00  0.00     0.049 C 
HETATM    7  C   UNL     1      27.982  49.604  40.292  1.00  0.00     0.053 C 
HETATM    8  C   UNL     1      28.614  47.526  41.244  1.00  0.00     0.239 C 
HETATM    9  N   UNL     1      28.478  48.497  42.371  1.00  0.00    -0.074 N 
HETATM   10  H   UNL     1      27.834  48.166  43.099  1.00  0.00     0.277 HD
HETATM   11  H   UNL     1      29.417  48.530  42.813  1.00  0.00     0.277 HD
HETATM   12  C   UNL     1      28.107  49.842  41.796  1.00  0.00     0.242 C 
HETATM   13  C   UNL     1      30.620  50.936  38.065  1.00  0.00     0.010 A 
HETATM   14  C   UNL     1      30.063  52.115  37.570  1.00  0.00     0.001 A 
ENDROOT
BRANCH   5  15
HETATM   15  N   UNL     1      31.199  49.484  40.778  1.00  0.00    -0.348 N 
HETATM   16  C   UNL     1      32.431  49.028  41.162  1.00  0.00     0.252 C 
HETATM   17  O   UNL     1      32.825  47.890  40.948  1.00  0.00    -0.268 OA
HETATM   18  H   UNL     1      31.074  50.484  40.914  1.00  0.00     0.163 HD
BRANCH  16  19
HETATM   19  C   UNL     1      33.266  49.975  41.948  1.00  0.00     0.032 A 
HETATM   20  C   UNL     1      32.719  50.774  42.958  1.00  0.00     0.019 A 
HETATM   21  C   UNL     1      33.538  51.657  43.667  1.00  0.00     0.024 A 
HETATM   22  C   UNL     1      34.911  51.722  43.413  1.00  0.00     0.005 A 
HETATM   23  C   UNL     1      35.439  50.949  42.375  1.00  0.00     0.024 A 
HETATM   24  C   UNL     1      34.632  50.057  41.663  1.00  0.00     0.019 A 
BRANCH  22  25
HETATM   25  N   UNL     1      35.690  52.705  44.025  1.00  0.00    -0.303 NA
HETATM   26  H   UNL     1      36.177  52.405  44.865  1.00  0.00     0.124 HD
HETATM   27  H   UNL     1      36.299  53.219  43.396  1.00  0.00     0.124 HD
ENDBRANCH  22  25
ENDBRANCH  16  19
ENDBRANCH   5  15
TORSDOF 3
ENDMDL
MODEL 2
REMARK VINA RESULT:      -7.5      1.901      2.570
REMARK  3 active torsions:
REMARK  status: ('A' for Active; 'I' for Inactive)
REMARK    1  A    between atoms: C_5  and  N_6 
REMARK       I    between atoms: N_6  and  C_7 
REMARK    2  A    between atoms: C_7  and  C_8 
REMARK    3  A    between atoms: C_11  and  N_12 
ROOT
HETATM    1  C   UNL     1      28.016  52.379  41.260  1.00  0.00     0.001 A 
HETATM    2  C   UNL     1      28.074  50.983  41.242  1.00  0.00     0.008 A 
HETATM    3  C   UNL     1      28.983  50.378  40.391  1.00  0.00    -0.043 A 
HETATM    4  C   UNL     1      29.824  51.144  39.567  1.00  0.00    -0.028 A 
HETATM    5  C   UNL     1      30.818  50.258  38.841  1.00  0.00     0.125 C 
HETATM    6  C   UNL     1      29.963  48.957  38.821  1.00  0.00     0.049 C 
HETATM    7  C   UNL     1      29.194  48.920  40.154  1.00  0.00     0.053 C 
HETATM    8  C   UNL     1      30.579  47.586  38.766  1.00  0.00     0.239 C 
HETATM    9  N   UNL     1      30.984  47.311  40.177  1.00  0.00    -0.074 N 
HETATM   10  H   UNL     1      30.954  46.310  40.406  1.00  0.00     0.277 HD
HETATM   11  H   UNL     1      31.984  47.586  40.229  1.00  0.00     0.277 HD
HETATM   12  C   UNL     1      30.142  48.170  41.089  1.00  0.00     0.242 C 
HETATM   13  C   UNL     1      29.769  52.530  39.579  1.00  0.00     0.010 A 
HETATM   14  C   UNL     1      28.853  53.145  40.432  1.00  0.00     0.001 A 
ENDROOT
BRANCH   5  15
HETATM   15  N   UNL     1      32.051  50.387  39.618  1.00  0.00    -0.348 N 
HETATM   16  C   UNL     1      33.059  51.302  39.476  1.00  0.00     0.252 C 
HETATM   17  O   UNL     1      33.262  51.927  38.445  1.00  0.00    -0.268 OA
HETATM   18  H   UNL     1      31.937  50.050  40.570  1.00  0.00     0.163 HD
BRANCH  16  19
HETATM   19  C   UNL     1      33.979  51.449  40.636  1.00  0.00     0.032 A 
HETATM   20  C   UNL     1      35.341  51.720  40.463  1.00  0.00     0.019 A 
HETATM   21  C   UNL     1      36.173  51.844  41.580  1.00  0.00     0.024 A 
HETATM   22  C   UNL     1      35.655  51.747  42.874  1.00  0.00     0.005 A 
HETATM   23  C   UNL     1      34.301  51.437  43.033  1.00  0.00     0.024 A 
HETATM   24  C   UNL     1      33.457  51.317  41.925  1.00  0.00     0.019 A 
BRANCH  22  25
HETATM   25  N   UNL     1      36.515  51.729  43.972  1.00  0.00    -0.303 NA
HETATM   26  H   UNL     1      37.478  51.978  43.767  1.00  0.00     0.124 HD
HETATM   27  H   UNL     1      36.165  52.211  44.795  1.00  0.00     0.124 HD
ENDBRANCH  22  25
ENDBRANCH  16  19
ENDBRANCH   5  15
TORSDOF 3
ENDMDL
MODEL 3
REMARK VINA RESULT:      -7.4      2.605      6.080
REMARK  3 active torsions:
REMARK  status: ('A' for Active; 'I' for Inactive)
REMARK    1  A    between atoms: C_5  and  N_6 
REMARK       I    between atoms: N_6  and  C_7 
REMARK    2  A    between atoms: C_7  and  C_8 
REMARK    3  A    between atoms: C_11  and  N_12 
ROOT
HETATM    1  C   UNL     1      32.996  51.406  43.380  1.00  0.00     0.001 A 
HETATM    2  C   UNL     1      31.850  52.161  43.121  1.00  0.00     0.008 A 
HETATM    3  C   UNL     1      31.266  52.056  41.870  1.00  0.00    -0.043 A 
HETATM    4  C   UNL     1      31.811  51.214  40.886  1.00  0.00    -0.028 A 
HETATM    5  C   UNL     1      30.916  51.166  39.663  1.00  0.00     0.125 C 
HETATM    6  C   UNL     1      30.262  52.571  39.828  1.00  0.00     0.049 C 
HETATM    7  C   UNL     1      30.082  52.793  41.339  1.00  0.00     0.053 C 
HETATM    8  C   UNL     1      28.896  52.893  39.288  1.00  0.00     0.239 C 
HETATM    9  N   UNL     1      27.960  52.327  40.305  1.00  0.00    -0.074 N 
HETATM   10  H   UNL     1      27.079  52.853  40.365  1.00  0.00     0.277 HD
HETATM   11  H   UNL     1      27.706  51.387  39.944  1.00  0.00     0.277 HD
HETATM   12  C   UNL     1      28.694  52.219  41.619  1.00  0.00     0.242 C 
HETATM   13  C   UNL     1      32.950  50.463  41.137  1.00  0.00     0.010 A 
HETATM   14  C   UNL     1      33.544  50.568  42.395  1.00  0.00     0.001 A 
ENDROOT
BRANCH   5  15
HETATM   15  N   UNL     1      30.166  49.919  39.812  1.00  0.00    -0.348 N 
HETATM   16  C   UNL     1      29.400  49.266  38.885  1.00  0.00     0.252 C 
HETATM   17  O   UNL     1      28.924  49.811  37.899  1.00  0.00    -0.268 OA
HETATM   18  H   UNL     1      30.591  49.301  40.499  1.00  0.00     0.163 HD
BRANCH  16  19
HETATM   19  C   UNL     1      29.089  47.841  39.177  1.00  0.00     0.032 A 
HETATM   20  C   UNL     1      28.116  47.478  40.114  1.00  0.00     0.019 A 
HETATM   21  C   UNL     1      27.860  46.126  40.364  1.00  0.00     0.024 A 
HETATM   22  C   UNL     1      28.533  45.126  39.656  1.00  0.00     0.005 A 
HETATM   23  C   UNL     1      29.531  45.501  38.752  1.00  0.00     0.024 A 
HETATM   24  C   UNL     1      29.792  46.849  38.488  1.00  0.00     0.019 A 
BRANCH  22  25
HETATM   25  N   UNL     1      28.373  43.787  40.014  1.00  0.00    -0.303 NA
HETATM   26  H   UNL     1      29.141  43.392  40.550  1.00  0.00     0.124 HD
HETATM   27  H   UNL     1      27.470  43.560  40.419  1.00  0.00     0.124 HD
ENDBRANCH  22  25
ENDBRANCH  16  19
ENDBRANCH   5  15
TORSDOF 3
ENDMDL
MODEL 4
REMARK VINA RESULT:      -7.2     12.727     14.948
REMARK  3 active torsions:
REMARK  status: ('A' for Active; 'I' for Inactive)
REMARK    1  A    between atoms: C_5  and  N_6 
REMARK       I    between atoms: N_6  and  C_7 
REMARK    2  A    between atoms: C_7  and  C_8 
REMARK    3  A    between atoms: C_11  and  N_12 
ROOT
HETATM    1  C   UNL     1      29.460  43.642  55.126  1.00  0.00     0.001 A 
HETATM    2  C   UNL     1      28.202  44.134  54.771  1.00  0.00     0.008 A 
HETATM    3  C   UNL     1      27.867  44.164  53.428  1.00  0.00    -0.043 A 
HETATM    4  C   UNL     1      28.766  43.713  52.448  1.00  0.00    -0.028 A 
HETATM    5  C   UNL     1      28.115  43.716  51.078  1.00  0.00     0.125 C 
HETATM    6  C   UNL     1      27.080  44.850  51.341  1.00  0.00     0.049 C 
HETATM    7  C   UNL     1      26.619  44.689  52.800  1.00  0.00     0.053 C 
HETATM    8  C   UNL     1      25.775  44.940  50.598  1.00  0.00     0.239 C 
HETATM    9  N   UNL     1      24.891  43.957  51.293  1.00  0.00    -0.074 N 
HETATM   10  H   UNL     1      23.901  44.228  51.261  1.00  0.00     0.277 HD
HETATM   11  H   UNL     1      24.967  43.085  50.735  1.00  0.00     0.277 HD
HETATM   12  C   UNL     1      25.419  43.748  52.691  1.00  0.00     0.242 C 
HETATM   13  C   UNL     1      30.018  43.225  52.795  1.00  0.00     0.010 A 
HETATM   14  C   UNL     1      30.362  43.196  54.146  1.00  0.00     0.001 A 
ENDROOT
BRANCH   5  15
HETATM   15  N   UNL     1      27.728  42.322  50.859  1.00  0.00    -0.348 N 
HETATM   16  C   UNL     1      27.453  41.686  49.679  1.00  0.00     0.252 C 
HETATM   17  O   UNL     1      27.131  42.274  48.655  1.00  0.00    -0.268 OA
HETATM   18  H   UNL     1      28.104  41.707  51.576  1.00  0.00     0.163 HD
BRANCH  16  19
HETATM   19  C   UNL     1      27.482  40.200  49.712  1.00  0.00     0.032 A 
HETATM   20  C   UNL     1      26.340  39.437  49.445  1.00  0.00     0.019 A 
HETATM   21  C   UNL     1      26.408  38.041  49.494  1.00  0.00     0.024 A 
HETATM   22  C   UNL     1      27.616  37.391  49.762  1.00  0.00     0.005 A 
HETATM   23  C   UNL     1      28.740  38.164  50.066  1.00  0.00     0.024 A 
HETATM   24  C   UNL     1      28.687  39.561  50.014  1.00  0.00     0.019 A 
BRANCH  22  25
HETATM   25  N   UNL     1      27.640  36.009  49.949  1.00  0.00    -0.303 NA
HETATM   26  H   UNL     1      28.559  35.582  49.871  1.00  0.00     0.124 HD
HETATM   27  H   UNL     1      27.137  35.681  50.767  1.00  0.00     0.124 HD
ENDBRANCH  22  25
ENDBRANCH  16  19
ENDBRANCH   5  15
TORSDOF 3
ENDMDL
MODEL 5
REMARK VINA RESULT:      -7.2     12.387     14.423
REMARK  3 active torsions:
REMARK  status: ('A' for Active; 'I' for Inactive)
REMARK    1  A    between atoms: C_5  and  N_6 
REMARK       I    between atoms: N_6  and  C_7 
REMARK    2  A    between atoms: C_7  and  C_8 
REMARK    3  A    between atoms: C_11  and  N_12 
ROOT
HETATM    1  C   UNL     1      26.439  44.553  54.703  1.00  0.00     0.001 A 
HETATM    2  C   UNL     1      25.388  44.446  53.789  1.00  0.00     0.008 A 
HETATM    3  C   UNL     1      25.700  44.262  52.453  1.00  0.00    -0.043 A 
HETATM    4  C   UNL     1      27.036  44.186  52.025  1.00  0.00    -0.028 A 
HETATM    5  C   UNL     1      27.110  43.841  50.550  1.00  0.00     0.125 C 
HETATM    6  C   UNL     1      25.736  44.440  50.127  1.00  0.00     0.049 C 
HETATM    7  C   UNL     1      24.767  44.174  51.292  1.00  0.00     0.053 C 
HETATM    8  C   UNL     1      24.964  43.930  48.941  1.00  0.00     0.239 C 
HETATM    9  N   UNL     1      24.283  42.702  49.450  1.00  0.00    -0.074 N 
HETATM   10  H   UNL     1      23.388  42.525  48.979  1.00  0.00     0.277 HD
HETATM   11  H   UNL     1      24.908  41.917  49.181  1.00  0.00     0.277 HD
HETATM   12  C   UNL     1      24.170  42.809  50.951  1.00  0.00     0.242 C 
HETATM   13  C   UNL     1      28.083  44.294  52.928  1.00  0.00     0.010 A 
HETATM   14  C   UNL     1      27.775  44.483  54.275  1.00  0.00     0.001 A 
ENDROOT
BRANCH   5  15
HETATM   15  N   UNL     1      27.392  42.406  50.528  1.00  0.00    -0.348 N 
HETATM   16  C   UNL     1      27.700  41.612  49.457  1.00  0.00     0.252 C 
HETATM   17  O   UNL     1      27.430  41.905  48.301  1.00  0.00    -0.268 OA
HETATM   18  H   UNL     1      27.796  42.085  51.404  1.00  0.00     0.163 HD
BRANCH  16  19
HETATM   19  C   UNL     1      28.323  40.298  49.772  1.00  0.00     0.032 A 
HETATM   20  C   UNL     1      28.491  39.312  48.793  1.00  0.00     0.019 A 
HETATM   21  C   UNL     1      29.075  38.088  49.133  1.00  0.00     0.024 A 
HETATM   22  C   UNL     1      29.537  37.849  50.430  1.00  0.00     0.005 A 
HETATM   23  C   UNL     1      29.328  38.827  51.407  1.00  0.00     0.024 A 
HETATM   24  C   UNL     1      28.752  40.058  51.079  1.00  0.00     0.019 A 
BRANCH  22  25
HETATM   25  N   UNL     1      29.985  36.578  50.791  1.00  0.00    -0.303 NA
HETATM   26  H   UNL     1      29.299  36.001  51.269  1.00  0.00     0.124 HD
HETATM   27  H   UNL     1      30.461  36.069  50.052  1.00  0.00     0.124 HD
ENDBRANCH  22  25
ENDBRANCH  16  19
ENDBRANCH   5  15
TORSDOF 3
ENDMDL
MODEL 6
REMARK VINA RESULT:      -7.2     12.082     13.582
REMARK  3 active torsions:
REMARK  status: ('A' for Active; 'I' for Inactive)
REMARK    1  A    between atoms: C_5  and  N_6 
REMARK       I    between atoms: N_6  and  C_7 
REMARK    2  A    between atoms: C_7  and  C_8 
REMARK    3  A    between atoms: C_11  and  N_12 
ROOT
HETATM    1  C   UNL     1      18.619  52.096  49.472  1.00  0.00     0.001 A 
HETATM    2  C   UNL     1      17.745  51.006  49.474  1.00  0.00     0.008 A 
HETATM    3  C   UNL     1      18.022  49.944  48.632  1.00  0.00    -0.043 A 
HETATM    4  C   UNL     1      19.151  49.959  47.795  1.00  0.00    -0.028 A 
HETATM    5  C   UNL     1      19.310  48.630  47.082  1.00  0.00     0.125 C 
HETATM    6  C   UNL     1      17.809  48.212  47.083  1.00  0.00     0.049 C 
HETATM    7  C   UNL     1      17.221  48.704  48.416  1.00  0.00     0.053 C 
HETATM    8  C   UNL     1      17.372  46.773  47.047  1.00  0.00     0.239 C 
HETATM    9  N   UNL     1      17.511  46.315  48.462  1.00  0.00    -0.074 N 
HETATM   10  H   UNL     1      16.833  45.583  48.706  1.00  0.00     0.277 HD
HETATM   11  H   UNL     1      18.446  45.865  48.509  1.00  0.00     0.277 HD
HETATM   12  C   UNL     1      17.451  47.525  49.361  1.00  0.00     0.242 C 
HETATM   13  C   UNL     1      20.021  51.039  47.787  1.00  0.00     0.010 A 
HETATM   14  C   UNL     1      19.744  52.114  48.631  1.00  0.00     0.001 A 
ENDROOT
BRANCH   5  15
HETATM   15  N   UNL     1      20.332  47.924  47.855  1.00  0.00    -0.348 N 
HETATM   16  C   UNL     1      21.414  47.221  47.401  1.00  0.00     0.252 C 
HETATM   17  O   UNL     1      21.495  46.764  46.269  1.00  0.00    -0.268 OA
HETATM   18  H   UNL     1      20.473  48.345  48.770  1.00  0.00     0.163 HD
BRANCH  16  19
HETATM   19  C   UNL     1      22.489  46.955  48.395  1.00  0.00     0.032 A 
HETATM   20  C   UNL     1      22.865  45.652  48.739  1.00  0.00     0.019 A 
HETATM   21  C   UNL     1      23.875  45.446  49.684  1.00  0.00     0.024 A 
HETATM   22  C   UNL     1      24.549  46.527  50.259  1.00  0.00     0.005 A 
HETATM   23  C   UNL     1      24.138  47.823  49.937  1.00  0.00     0.024 A 
HETATM   24  C   UNL     1      23.134  48.043  48.989  1.00  0.00     0.019 A 
BRANCH  22  25
HETATM   25  N   UNL     1      25.452  46.313  51.301  1.00  0.00    -0.303 NA
HETATM   26  H   UNL     1      26.420  46.205  51.015  1.00  0.00     0.124 HD
HETATM   27  H   UNL     1      25.356  46.951  52.085  1.00  0.00     0.124 HD
ENDBRANCH  22  25
ENDBRANCH  16  19
ENDBRANCH   5  15
TORSDOF 3
ENDMDL
MODEL 7
REMARK VINA RESULT:      -7.1      2.339      3.135
REMARK  3 active torsions:
REMARK  status: ('A' for Active; 'I' for Inactive)
REMARK    1  A    between atoms: C_5  and  N_6 
REMARK       I    between atoms: N_6  and  C_7 
REMARK    2  A    between atoms: C_7  and  C_8 
REMARK    3  A    between atoms: C_11  and  N_12 
ROOT
HETATM    1  C   UNL     1      28.964  52.860  41.188  1.00  0.00     0.001 A 
HETATM    2  C   UNL     1      29.112  51.543  41.630  1.00  0.00     0.008 A 
HETATM    3  C   UNL     1      30.240  50.845  41.237  1.00  0.00    -0.043 A 
HETATM    4  C   UNL     1      31.211  51.442  40.416  1.00  0.00    -0.028 A 
HETATM    5  C   UNL     1      32.409  50.527  40.246  1.00  0.00     0.125 C 
HETATM    6  C   UNL     1      31.668  49.173  40.456  1.00  0.00     0.049 C 
HETATM    7  C   UNL     1      30.595  49.425  41.529  1.00  0.00     0.053 C 
HETATM    8  C   UNL     1      32.363  47.945  40.977  1.00  0.00     0.239 C 
HETATM    9  N   UNL     1      32.418  48.156  42.455  1.00  0.00    -0.074 N 
HETATM   10  H   UNL     1      32.394  47.273  42.979  1.00  0.00     0.277 HD
HETATM   11  H   UNL     1      33.354  48.569  42.633  1.00  0.00     0.277 HD
HETATM   12  C   UNL     1      31.323  49.121  42.838  1.00  0.00     0.242 C 
HETATM   13  C   UNL     1      31.069  52.749  39.973  1.00  0.00     0.010 A 
HETATM   14  C   UNL     1      29.932  53.456  40.363  1.00  0.00     0.001 A 
ENDROOT
BRANCH   5  15
HETATM   15  N   UNL     1      33.398  51.047  41.191  1.00  0.00    -0.348 N 
HETATM   16  C   UNL     1      34.743  50.800  41.243  1.00  0.00     0.252 C 
HETATM   17  O   UNL     1      35.268  49.819  40.734  1.00  0.00    -0.268 OA
HETATM   18  H   UNL     1      33.137  51.962  41.548  1.00  0.00     0.163 HD
BRANCH  16  19
HETATM   19  C   UNL     1      35.556  51.757  42.040  1.00  0.00     0.032 A 
HETATM   20  C   UNL     1      36.540  52.555  41.446  1.00  0.00     0.019 A 
HETATM   21  C   UNL     1      37.287  53.437  42.233  1.00  0.00     0.024 A 
HETATM   22  C   UNL     1      37.034  53.569  43.601  1.00  0.00     0.005 A 
HETATM   23  C   UNL     1      36.076  52.739  44.188  1.00  0.00     0.024 A 
HETATM   24  C   UNL     1      35.317  51.857  43.413  1.00  0.00     0.019 A 
BRANCH  22  25
HETATM   25  N   UNL     1      37.878  54.344  44.397  1.00  0.00    -0.303 NA
HETATM   26  H   UNL     1      37.637  54.365  45.384  1.00  0.00     0.124 HD
HETATM   27  H   UNL     1      38.870  54.180  44.251  1.00  0.00     0.124 HD
ENDBRANCH  22  25
ENDBRANCH  16  19
ENDBRANCH   5  15
TORSDOF 3
ENDMDL
MODEL 8
REMARK VINA RESULT:      -7.0      2.121      3.427
REMARK  3 active torsions:
REMARK  status: ('A' for Active; 'I' for Inactive)
REMARK    1  A    between atoms: C_5  and  N_6 
REMARK       I    between atoms: N_6  and  C_7 
REMARK    2  A    between atoms: C_7  and  C_8 
REMARK    3  A    between atoms: C_11  and  N_12 
ROOT
HETATM    1  C   UNL     1      28.839  47.358  38.690  1.00  0.00     0.001 A 
HETATM    2  C   UNL     1      28.292  48.637  38.563  1.00  0.00     0.008 A 
HETATM    3  C   UNL     1      28.443  49.521  39.617  1.00  0.00    -0.043 A 
HETATM    4  C   UNL     1      29.126  49.143  40.785  1.00  0.00    -0.028 A 
HETATM    5  C   UNL     1      29.278  50.324  41.725  1.00  0.00     0.125 C 
HETATM    6  C   UNL     1      28.024  51.123  41.260  1.00  0.00     0.049 C 
HETATM    7  C   UNL     1      27.908  50.908  39.741  1.00  0.00     0.053 C 
HETATM    8  C   UNL     1      27.929  52.619  41.383  1.00  0.00     0.239 C 
HETATM    9  N   UNL     1      28.702  53.131  40.212  1.00  0.00    -0.074 N 
HETATM   10  H   UNL     1      28.347  54.033  39.871  1.00  0.00     0.277 HD
HETATM   11  H   UNL     1      29.654  53.320  40.579  1.00  0.00     0.277 HD
HETATM   12  C   UNL     1      28.736  52.052  39.157  1.00  0.00     0.242 C 
HETATM   13  C   UNL     1      29.669  47.874  40.918  1.00  0.00     0.010 A 
HETATM   14  C   UNL     1      29.517  46.978  39.860  1.00  0.00     0.001 A 
ENDROOT
BRANCH   5  15
HETATM   15  N   UNL     1      30.646  50.791  41.499  1.00  0.00    -0.348 N 
HETATM   16  C   UNL     1      31.780  50.487  42.203  1.00  0.00     0.252 C 
HETATM   17  O   UNL     1      31.769  50.066  43.351  1.00  0.00    -0.268 OA
HETATM   18  H   UNL     1      30.818  51.004  40.520  1.00  0.00     0.163 HD
BRANCH  16  19
HETATM   19  C   UNL     1      33.071  50.775  41.523  1.00  0.00     0.032 A 
HETATM   20  C   UNL     1      34.271  50.191  41.946  1.00  0.00     0.019 A 
HETATM   21  C   UNL     1      35.464  50.494  41.284  1.00  0.00     0.024 A 
HETATM   22  C   UNL     1      35.471  51.340  40.171  1.00  0.00     0.005 A 
HETATM   23  C   UNL     1      34.274  51.948  39.783  1.00  0.00     0.024 A 
HETATM   24  C   UNL     1      33.073  51.648  40.432  1.00  0.00     0.019 A 
BRANCH  22  25
HETATM   25  N   UNL     1      36.682  51.747  39.610  1.00  0.00    -0.303 NA
HETATM   26  H   UNL     1      36.597  52.321  38.776  1.00  0.00     0.124 HD
HETATM   27  H   UNL     1      37.350  52.133  40.270  1.00  0.00     0.124 HD
ENDBRANCH  22  25
ENDBRANCH  16  19
ENDBRANCH   5  15
TORSDOF 3
ENDMDL
MODEL 9
REMARK VINA RESULT:      -6.9      2.491      5.846
REMARK  3 active torsions:
REMARK  status: ('A' for Active; 'I' for Inactive)
REMARK    1  A    between atoms: C_5  and  N_6 
REMARK       I    between atoms: N_6  and  C_7 
REMARK    2  A    between atoms: C_7  and  C_8 
REMARK    3  A    between atoms: C_11  and  N_12 
ROOT
HETATM    1  C   UNL     1      30.221  51.902  37.668  1.00  0.00     0.001 A 
HETATM    2  C   UNL     1      31.304  51.668  38.518  1.00  0.00     0.008 A 
HETATM    3  C   UNL     1      31.041  51.268  39.817  1.00  0.00    -0.043 A 
HETATM    4  C   UNL     1      29.721  51.103  40.270  1.00  0.00    -0.028 A 
HETATM    5  C   UNL     1      29.702  50.526  41.673  1.00  0.00     0.125 C 
HETATM    6  C   UNL     1      31.083  51.072  42.142  1.00  0.00     0.049 C 
HETATM    7  C   UNL     1      32.014  51.011  40.918  1.00  0.00     0.053 C 
HETATM    8  C   UNL     1      31.901  50.392  43.205  1.00  0.00     0.239 C 
HETATM    9  N   UNL     1      32.578  49.272  42.484  1.00  0.00    -0.074 N 
HETATM   10  H   UNL     1      33.490  49.037  42.891  1.00  0.00     0.277 HD
HETATM   11  H   UNL     1      31.972  48.444  42.643  1.00  0.00     0.277 HD
HETATM   12  C   UNL     1      32.638  49.619  41.016  1.00  0.00     0.242 C 
HETATM   13  C   UNL     1      28.642  51.336  39.430  1.00  0.00     0.010 A 
HETATM   14  C   UNL     1      28.901  51.743  38.122  1.00  0.00     0.001 A 
ENDROOT
BRANCH   5  15
HETATM   15  N   UNL     1      29.437  49.101  41.473  1.00  0.00    -0.348 N 
HETATM   16  C   UNL     1      28.259  48.489  41.138  1.00  0.00     0.252 C 
HETATM   17  O   UNL     1      27.161  49.000  41.310  1.00  0.00    -0.268 OA
HETATM   18  H   UNL     1      30.262  48.603  41.150  1.00  0.00     0.163 HD
BRANCH  16  19
HETATM   19  C   UNL     1      28.367  47.101  40.616  1.00  0.00     0.032 A 
HETATM   20  C   UNL     1      27.437  46.113  40.960  1.00  0.00     0.019 A 
HETATM   21  C   UNL     1      27.579  44.818  40.452  1.00  0.00     0.024 A 
HETATM   22  C   UNL     1      28.614  44.503  39.567  1.00  0.00     0.005 A 
HETATM   23  C   UNL     1      29.558  45.488  39.262  1.00  0.00     0.024 A 
HETATM   24  C   UNL     1      29.424  46.789  39.758  1.00  0.00     0.019 A 
BRANCH  22  25
HETATM   25  N   UNL     1      28.828  43.180  39.182  1.00  0.00    -0.303 NA
HETATM   26  H   UNL     1      29.766  42.975  38.851  1.00  0.00     0.124 HD
HETATM   27  H   UNL     1      28.499  42.485  39.846  1.00  0.00     0.124 HD
ENDBRANCH  22  25
ENDBRANCH  16  19
ENDBRANCH   5  15
TORSDOF 3
ENDMDL
MODEL 10
REMARK VINA RESULT:      -6.9      2.675      5.972
REMARK  3 active torsions:
REMARK  status: ('A' for Active; 'I' for Inactive)
REMARK    1  A    between atoms: C_5  and  N_6 
REMARK       I    between atoms: N_6  and  C_7 
REMARK    2  A    between atoms: C_7  and  C_8 
REMARK    3  A    between atoms: C_11  and  N_12 
ROOT
HETATM    1  C   UNL     1      29.143  53.653  40.207  1.00  0.00     0.001 A 
HETATM    2  C   UNL     1      30.518  53.416  40.126  1.00  0.00     0.008 A 
HETATM    3  C   UNL     1      31.039  52.345  40.830  1.00  0.00    -0.043 A 
HETATM    4  C   UNL     1      30.211  51.518  41.607  1.00  0.00    -0.028 A 
HETATM    5  C   UNL     1      30.992  50.341  42.160  1.00  0.00     0.125 C 
HETATM    6  C   UNL     1      32.396  51.016  42.186  1.00  0.00     0.049 C 
HETATM    7  C   UNL     1      32.466  51.924  40.946  1.00  0.00     0.053 C 
HETATM    8  C   UNL     1      33.672  50.228  42.083  1.00  0.00     0.239 C 
HETATM    9  N   UNL     1      33.818  49.959  40.620  1.00  0.00    -0.074 N 
HETATM   10  H   UNL     1      34.800  49.888  40.330  1.00  0.00     0.277 HD
HETATM   11  H   UNL     1      33.409  49.015  40.478  1.00  0.00     0.277 HD
HETATM   12  C   UNL     1      33.033  51.004  39.865  1.00  0.00     0.242 C 
HETATM   13  C   UNL     1      28.846  51.749  41.693  1.00  0.00     0.010 A 
HETATM   14  C   UNL     1      28.316  52.830  40.988  1.00  0.00     0.001 A 
ENDROOT
BRANCH   5  15
HETATM   15  N   UNL     1      30.659  49.234  41.263  1.00  0.00    -0.348 N 
HETATM   16  C   UNL     1      29.567  48.409  41.291  1.00  0.00     0.252 C 
HETATM   17  O   UNL     1      28.880  48.234  42.288  1.00  0.00    -0.268 OA
HETATM   18  H   UNL     1      31.043  49.371  40.332  1.00  0.00     0.163 HD
BRANCH  16  19
HETATM   19  C   UNL     1      29.287  47.648  40.045  1.00  0.00     0.032 A 
HETATM   20  C   UNL     1      30.033  46.517  39.692  1.00  0.00     0.019 A 
HETATM   21  C   UNL     1      29.742  45.834  38.508  1.00  0.00     0.024 A 
HETATM   22  C   UNL     1      28.684  46.237  37.688  1.00  0.00     0.005 A 
HETATM   23  C   UNL     1      27.973  47.391  38.031  1.00  0.00     0.024 A 
HETATM   24  C   UNL     1      28.249  48.079  39.216  1.00  0.00     0.019 A 
BRANCH  22  25
HETATM   25  N   UNL     1      28.496  45.637  36.443  1.00  0.00    -0.303 NA
HETATM   26  H   UNL     1      27.653  45.076  36.360  1.00  0.00     0.124 HD
HETATM   27  H   UNL     1      28.619  46.258  35.649  1.00  0.00     0.124 HD
ENDBRANCH  22  25
ENDBRANCH  16  19
ENDBRANCH   5  15
TORSDOF 3
ENDMDL
