MODEL 1
REMARK VINA RESULT:      -9.3      0.000      0.000
REMARK  4 active torsions:
REMARK  status: ('A' for Active; 'I' for Inactive)
REMARK    1  A    between atoms: O_2  and  C_3 
REMARK    2  A    between atoms: C_6  and  C_7 
REMARK    3  A    between atoms: C_12  and  N_13 
REMARK    4  A    between atoms: C_15  and  C_16 
ROOT
HETATM    1  C   UNL     1      26.375  45.317  52.727  1.00  0.00     0.135 C 
HETATM    2  N   UNL     1      26.672  44.237  51.793  1.00  0.00    -0.214 N 
HETATM    3  C   UNL     1      25.972  44.191  50.640  1.00  0.00     0.736 A 
HETATM    4  N   UNL     1      25.360  45.308  50.134  1.00  0.00    -0.074 N 
HETATM    5  N   UNL     1      24.621  45.007  49.051  1.00  0.00     0.037 NA
HETATM    6  C   UNL     1      24.895  43.713  48.913  1.00  0.00     0.753 A 
HETATM    7  N   UNL     1      25.723  43.177  49.855  1.00  0.00     0.131 NA
HETATM    8  C   UNL     1      25.314  46.595  50.821  1.00  0.00     0.164 C 
HETATM    9  C   UNL     1      26.344  46.652  51.965  1.00  0.00     0.063 C 
HETATM   10  H   UNL     1      26.874  43.335  52.223  1.00  0.00     0.178 HD
ENDROOT
BRANCH   1  11
HETATM   11  C   UNL     1      27.409  45.352  53.836  1.00  0.00    -0.035 A 
HETATM   12  C   UNL     1      28.328  44.307  54.015  1.00  0.00     0.012 A 
HETATM   13  C   UNL     1      29.305  44.382  55.010  1.00  0.00     0.037 A 
HETATM   14  C   UNL     1      29.391  45.499  55.842  1.00  0.00     0.068 A 
HETATM   15  C   UNL     1      28.472  46.536  55.684  1.00  0.00     0.037 A 
HETATM   16  C   UNL     1      27.490  46.464  54.688  1.00  0.00     0.012 A 
BRANCH  14  17
HETATM   17  O   UNL     1      30.401  45.453  56.762  1.00  0.00    -0.356 OA
HETATM   18  C   UNL     1      30.090  45.899  58.076  1.00  0.00     0.210 C 
ENDBRANCH  14  17
ENDBRANCH   1  11
BRANCH   8  19
HETATM   19  C   UNL     1      25.505  47.772  49.875  1.00  0.00    -0.031 A 
HETATM   20  C   UNL     1      24.383  48.433  49.347  1.00  0.00     0.028 A 
HETATM   21  C   UNL     1      24.546  49.535  48.506  1.00  0.00     0.011 A 
HETATM   22 BR   UNL     1      23.024  50.412  47.807  1.00  0.00    -0.051 Br
HETATM   23  C   UNL     1      25.819  49.998  48.181  1.00  0.00     0.019 A 
HETATM   24  C   UNL     1      26.939  49.353  48.699  1.00  0.00     0.002 A 
HETATM   25  C   UNL     1      26.785  48.249  49.542  1.00  0.00     0.009 A 
ENDBRANCH   8  19
BRANCH   6  26
HETATM   26  N   UNL     1      24.437  42.926  47.943  1.00  0.00    -0.229 N 
HETATM   27  H   UNL     1      24.192  43.378  47.074  1.00  0.00     0.174 HD
HETATM   28  H   UNL     1      24.885  42.026  47.844  1.00  0.00     0.174 HD
ENDBRANCH   6  26
TORSDOF 4
ENDMDL
MODEL 2
REMARK VINA RESULT:      -9.0      1.700      2.247
REMARK  4 active torsions:
REMARK  status: ('A' for Active; 'I' for Inactive)
REMARK    1  A    between atoms: O_2  and  C_3 
REMARK    2  A    between atoms: C_6  and  C_7 
REMARK    3  A    between atoms: C_12  and  N_13 
REMARK    4  A    between atoms: C_15  and  C_16 
ROOT
HETATM    1  C   UNL     1      27.314  43.734  52.828  1.00  0.00     0.135 C 
HETATM    2  N   UNL     1      27.886  43.010  51.699  1.00  0.00    -0.214 N 
HETATM    3  C   UNL     1      27.153  42.923  50.569  1.00  0.00     0.736 A 
HETATM    4  N   UNL     1      26.157  43.825  50.297  1.00  0.00    -0.074 N 
HETATM    5  N   UNL     1      25.480  43.478  49.187  1.00  0.00     0.037 NA
HETATM    6  C   UNL     1      26.168  42.409  48.798  1.00  0.00     0.753 A 
HETATM    7  N   UNL     1      27.203  42.041  49.606  1.00  0.00     0.131 NA
HETATM    8  C   UNL     1      25.729  44.871  51.220  1.00  0.00     0.164 C 
HETATM    9  C   UNL     1      26.766  45.085  52.339  1.00  0.00     0.063 C 
HETATM   10  H   UNL     1      28.418  42.176  51.944  1.00  0.00     0.178 HD
ENDROOT
BRANCH   1  11
HETATM   11  C   UNL     1      28.360  43.934  53.908  1.00  0.00    -0.035 A 
HETATM   12  C   UNL     1      29.395  43.009  54.107  1.00  0.00     0.012 A 
HETATM   13  C   UNL     1      30.377  43.238  55.072  1.00  0.00     0.037 A 
HETATM   14  C   UNL     1      30.353  44.393  55.855  1.00  0.00     0.068 A 
HETATM   15  C   UNL     1      29.320  45.312  55.677  1.00  0.00     0.037 A 
HETATM   16  C   UNL     1      28.332  45.085  54.710  1.00  0.00     0.012 A 
BRANCH  14  17
HETATM   17  O   UNL     1      31.381  44.502  56.750  1.00  0.00    -0.356 OA
HETATM   18  C   UNL     1      31.935  43.287  57.237  1.00  0.00     0.210 C 
ENDBRANCH  14  17
ENDBRANCH   1  11
BRANCH   8  19
HETATM   19  C   UNL     1      25.428  46.188  50.516  1.00  0.00    -0.031 A 
HETATM   20  C   UNL     1      26.483  47.048  50.166  1.00  0.00     0.028 A 
HETATM   21  C   UNL     1      26.223  48.242  49.491  1.00  0.00     0.011 A 
HETATM   22 BR   UNL     1      27.655  49.385  49.027  1.00  0.00    -0.051 Br
HETATM   23  C   UNL     1      24.919  48.595  49.151  1.00  0.00     0.019 A 
HETATM   24  C   UNL     1      23.866  47.750  49.491  1.00  0.00     0.002 A 
HETATM   25  C   UNL     1      24.117  46.554  50.167  1.00  0.00     0.009 A 
ENDBRANCH   8  19
BRANCH   6  26
HETATM   26  N   UNL     1      25.930  41.695  47.702  1.00  0.00    -0.229 N 
HETATM   27  H   UNL     1      24.992  41.338  47.590  1.00  0.00     0.174 HD
HETATM   28  H   UNL     1      26.366  42.019  46.850  1.00  0.00     0.174 HD
ENDBRANCH   6  26
TORSDOF 4
ENDMDL
MODEL 3
REMARK VINA RESULT:      -8.5      3.809      5.333
REMARK  4 active torsions:
REMARK  status: ('A' for Active; 'I' for Inactive)
REMARK    1  A    between atoms: O_2  and  C_3 
REMARK    2  A    between atoms: C_6  and  C_7 
REMARK    3  A    between atoms: C_12  and  N_13 
REMARK    4  A    between atoms: C_15  and  C_16 
ROOT
HETATM    1  C   UNL     1      27.834  44.191  52.476  1.00  0.00     0.135 C 
HETATM    2  N   UNL     1      26.432  44.289  52.866  1.00  0.00    -0.214 N 
HETATM    3  C   UNL     1      25.499  44.122  51.905  1.00  0.00     0.736 A 
HETATM    4  N   UNL     1      25.783  43.447  50.746  1.00  0.00    -0.074 N 
HETATM    5  N   UNL     1      24.751  43.509  49.885  1.00  0.00     0.037 NA
HETATM    6  C   UNL     1      23.853  44.161  50.617  1.00  0.00     0.753 A 
HETATM    7  N   UNL     1      24.263  44.545  51.859  1.00  0.00     0.131 NA
HETATM    8  C   UNL     1      27.110  42.951  50.395  1.00  0.00     0.164 C 
HETATM    9  C   UNL     1      28.038  42.927  51.625  1.00  0.00     0.063 C 
HETATM   10  H   UNL     1      26.224  45.002  53.563  1.00  0.00     0.178 HD
ENDROOT
BRANCH   1  11
HETATM   11  C   UNL     1      28.721  44.164  53.706  1.00  0.00    -0.035 A 
HETATM   12  C   UNL     1      29.688  43.165  53.891  1.00  0.00     0.012 A 
HETATM   13  C   UNL     1      30.529  43.187  55.005  1.00  0.00     0.037 A 
HETATM   14  C   UNL     1      30.429  44.205  55.954  1.00  0.00     0.068 A 
HETATM   15  C   UNL     1      29.461  45.194  55.789  1.00  0.00     0.037 A 
HETATM   16  C   UNL     1      28.615  45.175  54.673  1.00  0.00     0.012 A 
BRANCH  14  17
HETATM   17  O   UNL     1      31.322  44.117  56.985  1.00  0.00    -0.356 OA
HETATM   18  C   UNL     1      31.041  44.895  58.142  1.00  0.00     0.210 C 
ENDBRANCH  14  17
ENDBRANCH   1  11
BRANCH   8  19
HETATM   19  C   UNL     1      27.068  41.580  49.735  1.00  0.00    -0.031 A 
HETATM   20  C   UNL     1      27.393  41.450  48.374  1.00  0.00     0.028 A 
HETATM   21  C   UNL     1      27.391  40.193  47.767  1.00  0.00     0.011 A 
HETATM   22 BR   UNL     1      27.833  40.039  45.935  1.00  0.00    -0.051 Br
HETATM   23  C   UNL     1      27.072  39.052  48.498  1.00  0.00     0.019 A 
HETATM   24  C   UNL     1      26.750  39.167  49.849  1.00  0.00     0.002 A 
HETATM   25  C   UNL     1      26.750  40.421  50.464  1.00  0.00     0.009 A 
ENDBRANCH   8  19
BRANCH   6  26
HETATM   26  N   UNL     1      22.612  44.453  50.236  1.00  0.00    -0.229 N 
HETATM   27  H   UNL     1      22.255  45.356  50.515  1.00  0.00     0.174 HD
HETATM   28  H   UNL     1      22.345  44.157  49.307  1.00  0.00     0.174 HD
ENDBRANCH   6  26
TORSDOF 4
ENDMDL
MODEL 4
REMARK VINA RESULT:      -8.1      5.925      9.629
REMARK  4 active torsions:
REMARK  status: ('A' for Active; 'I' for Inactive)
REMARK    1  A    between atoms: O_2  and  C_3 
REMARK    2  A    between atoms: C_6  and  C_7 
REMARK    3  A    between atoms: C_12  and  N_13 
REMARK    4  A    between atoms: C_15  and  C_16 
ROOT
HETATM    1  C   UNL     1      22.062  50.268  48.721  1.00  0.00     0.135 C 
HETATM    2  N   UNL     1      23.184  50.629  47.862  1.00  0.00    -0.214 N 
HETATM    3  C   UNL     1      24.390  50.091  48.143  1.00  0.00     0.736 A 
HETATM    4  N   UNL     1      24.501  48.934  48.869  1.00  0.00    -0.074 N 
HETATM    5  N   UNL     1      25.790  48.650  49.133  1.00  0.00     0.037 NA
HETATM    6  C   UNL     1      26.402  49.628  48.471  1.00  0.00     0.753 A 
HETATM    7  N   UNL     1      25.587  50.523  47.844  1.00  0.00     0.131 NA
HETATM    8  C   UNL     1      23.372  48.246  49.486  1.00  0.00     0.164 C 
HETATM    9  C   UNL     1      22.034  48.742  48.906  1.00  0.00     0.063 C 
HETATM   10  H   UNL     1      23.196  51.598  47.548  1.00  0.00     0.178 HD
ENDROOT
BRANCH   1  11
HETATM   11  C   UNL     1      20.760  50.764  48.121  1.00  0.00    -0.035 A 
HETATM   12  C   UNL     1      20.153  50.107  47.041  1.00  0.00     0.012 A 
HETATM   13  C   UNL     1      18.929  50.550  46.536  1.00  0.00     0.037 A 
HETATM   14  C   UNL     1      18.281  51.650  47.100  1.00  0.00     0.068 A 
HETATM   15  C   UNL     1      18.883  52.320  48.163  1.00  0.00     0.037 A 
HETATM   16  C   UNL     1      20.112  51.880  48.672  1.00  0.00     0.012 A 
BRANCH  14  17
HETATM   17  O   UNL     1      17.083  51.967  46.523  1.00  0.00    -0.356 OA
HETATM   18  C   UNL     1      17.125  52.439  45.182  1.00  0.00     0.210 C 
ENDBRANCH  14  17
ENDBRANCH   1  11
BRANCH   8  19
HETATM   19  C   UNL     1      23.472  46.731  49.368  1.00  0.00    -0.031 A 
HETATM   20  C   UNL     1      24.213  46.005  50.316  1.00  0.00     0.028 A 
HETATM   21  C   UNL     1      24.284  44.613  50.237  1.00  0.00     0.011 A 
HETATM   22 BR   UNL     1      25.285  43.653  51.522  1.00  0.00    -0.051 Br
HETATM   23  C   UNL     1      23.620  43.924  49.224  1.00  0.00     0.019 A 
HETATM   24  C   UNL     1      22.881  44.633  48.280  1.00  0.00     0.002 A 
HETATM   25  C   UNL     1      22.805  46.026  48.351  1.00  0.00     0.009 A 
ENDBRANCH   8  19
BRANCH   6  26
HETATM   26  N   UNL     1      27.719  49.786  48.373  1.00  0.00    -0.229 N 
HETATM   27  H   UNL     1      28.040  50.529  47.768  1.00  0.00     0.174 HD
HETATM   28  H   UNL     1      28.251  49.670  49.224  1.00  0.00     0.174 HD
ENDBRANCH   6  26
TORSDOF 4
ENDMDL
MODEL 5
REMARK VINA RESULT:      -8.0      4.600      7.297
REMARK  4 active torsions:
REMARK  status: ('A' for Active; 'I' for Inactive)
REMARK    1  A    between atoms: O_2  and  C_3 
REMARK    2  A    between atoms: C_6  and  C_7 
REMARK    3  A    between atoms: C_12  and  N_13 
REMARK    4  A    between atoms: C_15  and  C_16 
ROOT
HETATM    1  C   UNL     1      26.836  42.621  50.383  1.00  0.00     0.135 C 
HETATM    2  N   UNL     1      27.040  43.763  49.499  1.00  0.00    -0.214 N 
HETATM    3  C   UNL     1      26.690  44.983  49.957  1.00  0.00     0.736 A 
HETATM    4  N   UNL     1      26.591  45.238  51.300  1.00  0.00    -0.074 N 
HETATM    5  N   UNL     1      26.111  46.475  51.524  1.00  0.00     0.037 NA
HETATM    6  C   UNL     1      26.020  46.937  50.280  1.00  0.00     0.753 A 
HETATM    7  N   UNL     1      26.372  46.064  49.294  1.00  0.00     0.131 NA
HETATM    8  C   UNL     1      26.743  44.223  52.337  1.00  0.00     0.164 C 
HETATM    9  C   UNL     1      27.401  42.948  51.774  1.00  0.00     0.063 C 
HETATM   10  H   UNL     1      26.846  43.589  48.514  1.00  0.00     0.178 HD
ENDROOT
BRANCH   1  11
HETATM   11  C   UNL     1      27.500  41.385  49.807  1.00  0.00    -0.035 A 
HETATM   12  C   UNL     1      28.052  40.396  50.634  1.00  0.00     0.012 A 
HETATM   13  C   UNL     1      28.613  39.242  50.084  1.00  0.00     0.037 A 
HETATM   14  C   UNL     1      28.630  39.045  48.703  1.00  0.00     0.068 A 
HETATM   15  C   UNL     1      28.098  40.028  47.871  1.00  0.00     0.037 A 
HETATM   16  C   UNL     1      27.535  41.188  48.418  1.00  0.00     0.012 A 
BRANCH  14  17
HETATM   17  O   UNL     1      29.193  37.866  48.298  1.00  0.00    -0.356 OA
HETATM   18  C   UNL     1      28.835  37.398  47.004  1.00  0.00     0.210 C 
ENDBRANCH  14  17
ENDBRANCH   1  11
BRANCH   8  19
HETATM   19  C   UNL     1      27.516  44.730  53.546  1.00  0.00    -0.031 A 
HETATM   20  C   UNL     1      28.625  44.008  54.019  1.00  0.00     0.028 A 
HETATM   21  C   UNL     1      29.362  44.481  55.106  1.00  0.00     0.011 A 
HETATM   22 BR   UNL     1      30.852  43.497  55.725  1.00  0.00    -0.051 Br
HETATM   23  C   UNL     1      29.013  45.674  55.735  1.00  0.00     0.019 A 
HETATM   24  C   UNL     1      27.916  46.399  55.275  1.00  0.00     0.002 A 
HETATM   25  C   UNL     1      27.174  45.933  54.188  1.00  0.00     0.009 A 
ENDBRANCH   8  19
BRANCH   6  26
HETATM   26  N   UNL     1      25.626  48.161  49.938  1.00  0.00    -0.229 N 
HETATM   27  H   UNL     1      26.163  48.930  50.316  1.00  0.00     0.174 HD
HETATM   28  H   UNL     1      25.318  48.285  48.984  1.00  0.00     0.174 HD
ENDBRANCH   6  26
TORSDOF 4
ENDMDL
MODEL 6
REMARK VINA RESULT:      -7.9      4.785      7.857
REMARK  4 active torsions:
REMARK  status: ('A' for Active; 'I' for Inactive)
REMARK    1  A    between atoms: O_2  and  C_3 
REMARK    2  A    between atoms: C_6  and  C_7 
REMARK    3  A    between atoms: C_12  and  N_13 
REMARK    4  A    between atoms: C_15  and  C_16 
ROOT
HETATM    1  C   UNL     1      27.127  41.681  50.457  1.00  0.00     0.135 C 
HETATM    2  N   UNL     1      27.129  42.908  49.669  1.00  0.00    -0.214 N 
HETATM    3  C   UNL     1      26.891  44.070  50.313  1.00  0.00     0.736 A 
HETATM    4  N   UNL     1      27.095  44.190  51.663  1.00  0.00    -0.074 N 
HETATM    5  N   UNL     1      26.679  45.388  52.112  1.00  0.00     0.037 NA
HETATM    6  C   UNL     1      26.312  45.968  50.972  1.00  0.00     0.753 A 
HETATM    7  N   UNL     1      26.435  45.204  49.850  1.00  0.00     0.131 NA
HETATM    8  C   UNL     1      27.474  43.081  52.533  1.00  0.00     0.164 C 
HETATM    9  C   UNL     1      27.989  41.882  51.713  1.00  0.00     0.063 C 
HETATM   10  H   UNL     1      26.720  42.828  48.740  1.00  0.00     0.178 HD
ENDROOT
BRANCH   1  11
HETATM   11  C   UNL     1      27.644  40.522  49.626  1.00  0.00    -0.035 A 
HETATM   12  C   UNL     1      27.367  40.422  48.254  1.00  0.00     0.012 A 
HETATM   13  C   UNL     1      27.896  39.376  47.497  1.00  0.00     0.037 A 
HETATM   14  C   UNL     1      28.715  38.411  48.086  1.00  0.00     0.068 A 
HETATM   15  C   UNL     1      28.984  38.492  49.451  1.00  0.00     0.037 A 
HETATM   16  C   UNL     1      28.454  39.540  50.215  1.00  0.00     0.012 A 
BRANCH  14  17
HETATM   17  O   UNL     1      29.179  37.452  47.230  1.00  0.00    -0.356 OA
HETATM   18  C   UNL     1      28.323  37.086  46.155  1.00  0.00     0.210 C 
ENDBRANCH  14  17
ENDBRANCH   1  11
BRANCH   8  19
HETATM   19  C   UNL     1      28.498  43.483  53.585  1.00  0.00    -0.031 A 
HETATM   20  C   UNL     1      28.193  44.503  54.502  1.00  0.00     0.028 A 
HETATM   21  C   UNL     1      29.110  44.858  55.493  1.00  0.00     0.011 A 
HETATM   22 BR   UNL     1      28.680  46.231  56.718  1.00  0.00    -0.051 Br
HETATM   23  C   UNL     1      30.337  44.206  55.590  1.00  0.00     0.019 A 
HETATM   24  C   UNL     1      30.651  43.192  54.688  1.00  0.00     0.002 A 
HETATM   25  C   UNL     1      29.738  42.831  53.694  1.00  0.00     0.009 A 
ENDBRANCH   8  19
BRANCH   6  26
HETATM   26  N   UNL     1      25.854  47.210  50.851  1.00  0.00    -0.229 N 
HETATM   27  H   UNL     1      24.970  47.321  50.373  1.00  0.00     0.174 HD
HETATM   28  H   UNL     1      25.986  47.819  51.647  1.00  0.00     0.174 HD
ENDBRANCH   6  26
TORSDOF 4
ENDMDL
MODEL 7
REMARK VINA RESULT:      -7.7      4.767      8.079
REMARK  4 active torsions:
REMARK  status: ('A' for Active; 'I' for Inactive)
REMARK    1  A    between atoms: O_2  and  C_3 
REMARK    2  A    between atoms: C_6  and  C_7 
REMARK    3  A    between atoms: C_12  and  N_13 
REMARK    4  A    between atoms: C_15  and  C_16 
ROOT
HETATM    1  C   UNL     1      24.762  44.306  51.773  1.00  0.00     0.135 C 
HETATM    2  N   UNL     1      24.904  45.757  51.745  1.00  0.00    -0.214 N 
HETATM    3  C   UNL     1      25.504  46.351  52.797  1.00  0.00     0.736 A 
HETATM    4  N   UNL     1      26.348  45.654  53.622  1.00  0.00    -0.074 N 
HETATM    5  N   UNL     1      26.733  46.406  54.668  1.00  0.00     0.037 NA
HETATM    6  C   UNL     1      26.153  47.565  54.371  1.00  0.00     0.753 A 
HETATM    7  N   UNL     1      25.403  47.579  53.233  1.00  0.00     0.131 NA
HETATM    8  C   UNL     1      26.591  44.219  53.516  1.00  0.00     0.164 C 
HETATM    9  C   UNL     1      26.108  43.672  52.159  1.00  0.00     0.063 C 
HETATM   10  H   UNL     1      24.114  46.262  51.345  1.00  0.00     0.178 HD
ENDROOT
BRANCH   1  11
HETATM   11  C   UNL     1      24.292  43.798  50.423  1.00  0.00    -0.035 A 
HETATM   12  C   UNL     1      23.057  44.186  49.883  1.00  0.00     0.012 A 
HETATM   13  C   UNL     1      22.666  43.748  48.616  1.00  0.00     0.037 A 
HETATM   14  C   UNL     1      23.497  42.920  47.860  1.00  0.00     0.068 A 
HETATM   15  C   UNL     1      24.719  42.515  48.393  1.00  0.00     0.037 A 
HETATM   16  C   UNL     1      25.115  42.952  49.664  1.00  0.00     0.012 A 
BRANCH  14  17
HETATM   17  O   UNL     1      23.002  42.578  46.632  1.00  0.00    -0.356 OA
HETATM   18  C   UNL     1      22.882  43.625  45.677  1.00  0.00     0.210 C 
ENDBRANCH  14  17
ENDBRANCH   1  11
BRANCH   8  19
HETATM   19  C   UNL     1      28.051  43.852  53.746  1.00  0.00    -0.031 A 
HETATM   20  C   UNL     1      28.685  44.231  54.942  1.00  0.00     0.028 A 
HETATM   21  C   UNL     1      30.013  43.872  55.179  1.00  0.00     0.011 A 
HETATM   22 BR   UNL     1      30.848  44.390  56.793  1.00  0.00    -0.051 Br
HETATM   23  C   UNL     1      30.726  43.130  54.240  1.00  0.00     0.019 A 
HETATM   24  C   UNL     1      30.108  42.746  53.052  1.00  0.00     0.002 A 
HETATM   25  C   UNL     1      28.780  43.102  52.807  1.00  0.00     0.009 A 
ENDBRANCH   8  19
BRANCH   6  26
HETATM   26  N   UNL     1      26.256  48.685  55.081  1.00  0.00    -0.229 N 
HETATM   27  H   UNL     1      26.564  48.585  56.038  1.00  0.00     0.174 HD
HETATM   28  H   UNL     1      26.621  49.493  54.598  1.00  0.00     0.174 HD
ENDBRANCH   6  26
TORSDOF 4
ENDMDL
MODEL 8
REMARK VINA RESULT:      -7.7     11.931     13.531
REMARK  4 active torsions:
REMARK  status: ('A' for Active; 'I' for Inactive)
REMARK    1  A    between atoms: O_2  and  C_3 
REMARK    2  A    between atoms: C_6  and  C_7 
REMARK    3  A    between atoms: C_12  and  N_13 
REMARK    4  A    between atoms: C_15  and  C_16 
ROOT
HETATM    1  C   UNL     1      28.988  49.182  40.996  1.00  0.00     0.135 C 
HETATM    2  N   UNL     1      28.925  50.107  39.870  1.00  0.00    -0.214 N 
HETATM    3  C   UNL     1      29.259  51.395  40.095  1.00  0.00     0.736 A 
HETATM    4  N   UNL     1      30.049  51.751  41.157  1.00  0.00    -0.074 N 
HETATM    5  N   UNL     1      30.151  53.088  41.258  1.00  0.00     0.037 NA
HETATM    6  C   UNL     1      29.468  53.473  40.184  1.00  0.00     0.753 A 
HETATM    7  N   UNL     1      28.916  52.473  39.440  1.00  0.00     0.131 NA
HETATM    8  C   UNL     1      30.507  50.818  42.182  1.00  0.00     0.164 C 
HETATM    9  C   UNL     1      30.330  49.358  41.724  1.00  0.00     0.063 C 
HETATM   10  H   UNL     1      28.147  49.958  39.230  1.00  0.00     0.178 HD
ENDROOT
BRANCH   1  11
HETATM   11  C   UNL     1      28.818  47.754  40.513  1.00  0.00    -0.035 A 
HETATM   12  C   UNL     1      29.775  47.138  39.694  1.00  0.00     0.012 A 
HETATM   13  C   UNL     1      29.625  45.806  39.303  1.00  0.00     0.037 A 
HETATM   14  C   UNL     1      28.524  45.059  39.724  1.00  0.00     0.068 A 
HETATM   15  C   UNL     1      27.558  45.665  40.525  1.00  0.00     0.037 A 
HETATM   16  C   UNL     1      27.705  47.002  40.919  1.00  0.00     0.012 A 
BRANCH  14  17
HETATM   17  O   UNL     1      28.507  43.765  39.284  1.00  0.00    -0.356 OA
HETATM   18  C   UNL     1      29.289  43.471  38.133  1.00  0.00     0.210 C 
ENDBRANCH  14  17
ENDBRANCH   1  11
BRANCH   8  19
HETATM   19  C   UNL     1      31.947  51.071  42.605  1.00  0.00    -0.031 A 
HETATM   20  C   UNL     1      32.998  50.759  41.725  1.00  0.00     0.028 A 
HETATM   21  C   UNL     1      34.321  51.018  42.088  1.00  0.00     0.011 A 
HETATM   22 BR   UNL     1      35.720  50.593  40.890  1.00  0.00    -0.051 Br
HETATM   23  C   UNL     1      34.619  51.592  43.322  1.00  0.00     0.019 A 
HETATM   24  C   UNL     1      33.586  51.907  44.202  1.00  0.00     0.002 A 
HETATM   25  C   UNL     1      32.260  51.651  43.847  1.00  0.00     0.009 A 
ENDBRANCH   8  19
BRANCH   6  26
HETATM   26  N   UNL     1      29.295  54.731  39.789  1.00  0.00    -0.229 N 
HETATM   27  H   UNL     1      28.759  55.328  40.404  1.00  0.00     0.174 HD
HETATM   28  H   UNL     1      30.087  55.177  39.347  1.00  0.00     0.174 HD
ENDBRANCH   6  26
TORSDOF 4
ENDMDL
MODEL 9
REMARK VINA RESULT:      -7.5      9.334     12.872
REMARK  4 active torsions:
REMARK  status: ('A' for Active; 'I' for Inactive)
REMARK    1  A    between atoms: O_2  and  C_3 
REMARK    2  A    between atoms: C_6  and  C_7 
REMARK    3  A    between atoms: C_12  and  N_13 
REMARK    4  A    between atoms: C_15  and  C_16 
ROOT
HETATM    1  C   UNL     1      16.147  51.367  47.306  1.00  0.00     0.135 C 
HETATM    2  N   UNL     1      15.561  50.239  48.022  1.00  0.00    -0.214 N 
HETATM    3  C   UNL     1      16.309  49.125  48.160  1.00  0.00     0.736 A 
HETATM    4  N   UNL     1      17.676  49.169  48.069  1.00  0.00    -0.074 N 
HETATM    5  N   UNL     1      18.205  47.933  48.113  1.00  0.00     0.037 NA
HETATM    6  C   UNL     1      17.113  47.201  48.313  1.00  0.00     0.753 A 
HETATM    7  N   UNL     1      15.936  47.888  48.358  1.00  0.00     0.131 NA
HETATM    8  C   UNL     1      18.432  50.367  47.717  1.00  0.00     0.164 C 
HETATM    9  C   UNL     1      17.561  51.632  47.847  1.00  0.00     0.063 C 
HETATM   10  H   UNL     1      14.569  50.086  47.851  1.00  0.00     0.178 HD
ENDROOT
BRANCH   1  11
HETATM   11  C   UNL     1      15.271  52.597  47.458  1.00  0.00    -0.035 A 
HETATM   12  C   UNL     1      15.015  53.164  48.715  1.00  0.00     0.012 A 
HETATM   13  C   UNL     1      14.249  54.326  48.827  1.00  0.00     0.037 A 
HETATM   14  C   UNL     1      13.729  54.950  47.692  1.00  0.00     0.068 A 
HETATM   15  C   UNL     1      13.965  54.387  46.440  1.00  0.00     0.037 A 
HETATM   16  C   UNL     1      14.732  53.220  46.322  1.00  0.00     0.012 A 
BRANCH  14  17
HETATM   17  O   UNL     1      13.013  56.087  47.941  1.00  0.00    -0.356 OA
HETATM   18  C   UNL     1      12.504  56.247  49.259  1.00  0.00     0.210 C 
ENDBRANCH  14  17
ENDBRANCH   1  11
BRANCH   8  19
HETATM   19  C   UNL     1      19.709  50.516  48.533  1.00  0.00    -0.031 A 
HETATM   20  C   UNL     1      20.958  50.358  47.909  1.00  0.00     0.028 A 
HETATM   21  C   UNL     1      22.136  50.525  48.639  1.00  0.00     0.011 A 
HETATM   22 BR   UNL     1      23.807  50.310  47.782  1.00  0.00    -0.051 Br
HETATM   23  C   UNL     1      22.092  50.855  49.992  1.00  0.00     0.019 A 
HETATM   24  C   UNL     1      20.860  51.016  50.621  1.00  0.00     0.002 A 
HETATM   25  C   UNL     1      19.676  50.851  49.898  1.00  0.00     0.009 A 
ENDBRANCH   8  19
BRANCH   6  26
HETATM   26  N   UNL     1      17.088  45.881  48.474  1.00  0.00    -0.229 N 
HETATM   27  H   UNL     1      17.828  45.480  49.034  1.00  0.00     0.174 HD
HETATM   28  H   UNL     1      16.179  45.460  48.607  1.00  0.00     0.174 HD
ENDBRANCH   6  26
TORSDOF 4
ENDMDL
MODEL 10
REMARK VINA RESULT:      -7.5     17.612     20.098
REMARK  4 active torsions:
REMARK  status: ('A' for Active; 'I' for Inactive)
REMARK    1  A    between atoms: O_2  and  C_3 
REMARK    2  A    between atoms: C_6  and  C_7 
REMARK    3  A    between atoms: C_12  and  N_13 
REMARK    4  A    between atoms: C_15  and  C_16 
ROOT
HETATM    1  C   UNL     1      40.782  45.366  64.000  1.00  0.00     0.135 C 
HETATM    2  N   UNL     1      39.714  45.588  64.968  1.00  0.00    -0.214 N 
HETATM    3  C   UNL     1      38.566  44.897  64.808  1.00  0.00     0.736 A 
HETATM    4  N   UNL     1      38.533  43.727  64.095  1.00  0.00    -0.074 N 
HETATM    5  N   UNL     1      37.273  43.277  63.961  1.00  0.00     0.037 NA
HETATM    6  C   UNL     1      36.609  44.174  64.683  1.00  0.00     0.753 A 
HETATM    7  N   UNL     1      37.359  45.174  65.227  1.00  0.00     0.131 NA
HETATM    8  C   UNL     1      39.675  43.183  63.366  1.00  0.00     0.164 C 
HETATM    9  C   UNL     1      40.989  43.855  63.810  1.00  0.00     0.063 C 
HETATM   10  H   UNL     1      39.609  46.551  65.283  1.00  0.00     0.178 HD
ENDROOT
BRANCH   1  11
HETATM   11  C   UNL     1      42.062  46.033  64.467  1.00  0.00    -0.035 A 
HETATM   12  C   UNL     1      42.064  46.958  65.522  1.00  0.00     0.012 A 
HETATM   13  C   UNL     1      43.260  47.521  65.971  1.00  0.00     0.037 A 
HETATM   14  C   UNL     1      44.478  47.171  65.385  1.00  0.00     0.068 A 
HETATM   15  C   UNL     1      44.486  46.265  64.326  1.00  0.00     0.037 A 
HETATM   16  C   UNL     1      43.288  45.698  63.872  1.00  0.00     0.012 A 
BRANCH  14  17
HETATM   17  O   UNL     1      45.573  47.782  65.930  1.00  0.00    -0.356 OA
HETATM   18  C   UNL     1      46.714  47.914  65.092  1.00  0.00     0.210 C 
ENDBRANCH  14  17
ENDBRANCH   1  11
BRANCH   8  19
HETATM   19  C   UNL     1      39.784  41.670  63.491  1.00  0.00    -0.031 A 
HETATM   20  C   UNL     1      40.295  41.102  64.671  1.00  0.00     0.028 A 
HETATM   21  C   UNL     1      40.368  39.715  64.810  1.00  0.00     0.011 A 
HETATM   22 BR   UNL     1      41.056  38.970  66.405  1.00  0.00    -0.051 Br
HETATM   23  C   UNL     1      39.934  38.875  63.787  1.00  0.00     0.019 A 
HETATM   24  C   UNL     1      39.424  39.426  62.613  1.00  0.00     0.002 A 
HETATM   25  C   UNL     1      39.348  40.812  62.466  1.00  0.00     0.009 A 
ENDBRANCH   8  19
BRANCH   6  26
HETATM   26  N   UNL     1      35.298  44.163  64.913  1.00  0.00    -0.229 N 
HETATM   27  H   UNL     1      34.707  43.880  64.144  1.00  0.00     0.174 HD
HETATM   28  H   UNL     1      35.003  43.832  65.821  1.00  0.00     0.174 HD
ENDBRANCH   6  26
TORSDOF 4
ENDMDL
