MODEL 1
REMARK VINA RESULT:     -10.0      0.000      0.000
REMARK  8 active torsions:
REMARK  status: ('A' for Active; 'I' for Inactive)
REMARK    1  A    between atoms: C_2  and  C_3 
REMARK    2  A    between atoms: N_4  and  C_5 
REMARK    3  A    between atoms: C_5  and  C_6 
REMARK    4  A    between atoms: C_14  and  C_15 
REMARK       I    between atoms: C_15  and  N_16 
REMARK    5  A    between atoms: N_16  and  N_17 
REMARK       I    between atoms: N_17  and  C_18 
REMARK    6  A    between atoms: C_18  and  C_19 
REMARK    7  A    between atoms: C_23  and  C_24 
REMARK    8  A    between atoms: C_27  and  O_28 
ROOT
HETATM    1  C   UNL     1      23.517  47.604  49.581  1.00  0.00     0.273 C 
HETATM    2  N   UNL     1      23.568  46.240  49.770  1.00  0.00    -0.263 N 
HETATM    3  O   UNL     1      24.400  48.333  50.036  1.00  0.00    -0.266 OA
HETATM    4  H   UNL     1      22.919  45.577  49.364  1.00  0.00     0.190 HD
ENDROOT
BRANCH   2   5
HETATM    5  N   UNL     1      24.651  45.707  50.482  1.00  0.00    -0.262 N 
HETATM    6  C   UNL     1      24.491  44.516  51.157  1.00  0.00     0.288 C 
HETATM    7  O   UNL     1      23.443  43.873  51.096  1.00  0.00    -0.264 OA
HETATM    8  H   UNL     1      25.472  46.300  50.567  1.00  0.00     0.190 HD
BRANCH   6   9
HETATM    9  C   UNL     1      25.624  44.086  51.925  1.00  0.00     0.121 A 
HETATM   10  N   UNL     1      26.135  42.824  51.809  1.00  0.00    -0.272 N 
HETATM   11  H   UNL     1      25.793  42.079  51.209  1.00  0.00     0.189 HD
HETATM   12  N   UNL     1      27.207  42.590  52.579  1.00  0.00    -0.174 NA
HETATM   13  C   UNL     1      27.411  43.741  53.241  1.00  0.00     0.089 A 
HETATM   14  C   UNL     1      26.433  44.704  52.859  1.00  0.00     0.071 A 
BRANCH  13  15
HETATM   15  C   UNL     1      28.521  43.900  54.187  1.00  0.00    -0.005 A 
HETATM   16  C   UNL     1      28.580  45.016  55.031  1.00  0.00     0.016 A 
HETATM   17  C   UNL     1      29.620  45.160  55.955  1.00  0.00     0.037 A 
HETATM   18  C   UNL     1      30.622  44.195  56.054  1.00  0.00     0.068 A 
HETATM   19  C   UNL     1      30.584  43.088  55.208  1.00  0.00     0.037 A 
HETATM   20  C   UNL     1      29.540  42.941  54.282  1.00  0.00     0.016 A 
BRANCH  18  21
HETATM   21  O   UNL     1      31.573  44.451  57.003  1.00  0.00    -0.356 OA
HETATM   22  C   UNL     1      31.114  44.939  58.258  1.00  0.00     0.210 C 
ENDBRANCH  18  21
ENDBRANCH  13  15
ENDBRANCH   6   9
ENDBRANCH   2   5
BRANCH   1  23
HETATM   23  C   UNL     1      22.399  48.139  48.816  1.00  0.00     0.077 A 
HETATM   24  C   UNL     1      21.959  49.438  48.549  1.00  0.00     0.048 A 
HETATM   25  N   UNL     1      20.842  49.289  47.742  1.00  0.00    -0.269 N 
HETATM   26  N   UNL     1      20.553  48.003  47.465  1.00  0.00    -0.183 NA
HETATM   27  C   UNL     1      21.487  47.316  48.112  1.00  0.00     0.158 A 
BRANCH  24  28
HETATM   28  C   UNL     1      22.484  50.784  48.943  1.00  0.00     0.055 C 
HETATM   29  C   UNL     1      23.621  51.246  48.044  1.00  0.00     0.011 C 
ENDBRANCH  24  28
BRANCH  25  30
HETATM   30  C   UNL     1      20.020  50.321  47.108  1.00  0.00     0.189 C 
BRANCH  30  31
HETATM   31  C   UNL     1      18.921  50.847  48.000  1.00  0.00    -0.038 A 
HETATM   32  C   UNL     1      19.114  52.034  48.722  1.00  0.00     0.009 A 
HETATM   33  C   UNL     1      18.089  52.562  49.512  1.00  0.00     0.001 A 
HETATM   34  C   UNL     1      16.858  51.914  49.582  1.00  0.00     0.000 A 
HETATM   35  C   UNL     1      16.646  50.744  48.858  1.00  0.00     0.001 A 
HETATM   36  C   UNL     1      17.667  50.218  48.065  1.00  0.00     0.009 A 
ENDBRANCH  30  31
ENDBRANCH  25  30
ENDBRANCH   1  23
TORSDOF 8
ENDMDL
MODEL 2
REMARK VINA RESULT:      -9.5      1.982     11.993
REMARK  8 active torsions:
REMARK  status: ('A' for Active; 'I' for Inactive)
REMARK    1  A    between atoms: C_2  and  C_3 
REMARK    2  A    between atoms: N_4  and  C_5 
REMARK    3  A    between atoms: C_5  and  C_6 
REMARK    4  A    between atoms: C_14  and  C_15 
REMARK       I    between atoms: C_15  and  N_16 
REMARK    5  A    between atoms: N_16  and  N_17 
REMARK       I    between atoms: N_17  and  C_18 
REMARK    6  A    between atoms: C_18  and  C_19 
REMARK    7  A    between atoms: C_23  and  C_24 
REMARK    8  A    between atoms: C_27  and  O_28 
ROOT
HETATM    1  C   UNL     1      25.004  44.936  51.219  1.00  0.00     0.273 C 
HETATM    2  N   UNL     1      25.107  46.082  50.462  1.00  0.00    -0.263 N 
HETATM    3  O   UNL     1      23.906  44.412  51.417  1.00  0.00    -0.266 OA
HETATM    4  H   UNL     1      25.979  46.523  50.199  1.00  0.00     0.190 HD
ENDROOT
BRANCH   2   5
HETATM    5  N   UNL     1      23.936  46.629  49.919  1.00  0.00    -0.262 N 
HETATM    6  C   UNL     1      23.923  47.955  49.547  1.00  0.00     0.288 C 
HETATM    7  O   UNL     1      24.933  48.657  49.614  1.00  0.00    -0.264 OA
HETATM    8  H   UNL     1      23.108  46.040  49.947  1.00  0.00     0.190 HD
BRANCH   6   9
HETATM    9  C   UNL     1      22.661  48.452  49.077  1.00  0.00     0.121 A 
HETATM   10  N   UNL     1      21.985  47.848  48.054  1.00  0.00    -0.272 N 
HETATM   11  H   UNL     1      22.277  47.030  47.529  1.00  0.00     0.189 HD
HETATM   12  N   UNL     1      20.812  48.423  47.754  1.00  0.00    -0.174 NA
HETATM   13  C   UNL     1      20.709  49.457  48.606  1.00  0.00     0.089 A 
HETATM   14  C   UNL     1      21.855  49.510  49.450  1.00  0.00     0.071 A 
BRANCH  13  15
HETATM   15  C   UNL     1      19.537  50.340  48.608  1.00  0.00    -0.005 A 
HETATM   16  C   UNL     1      18.244  49.805  48.580  1.00  0.00     0.016 A 
HETATM   17  C   UNL     1      17.123  50.640  48.610  1.00  0.00     0.037 A 
HETATM   18  C   UNL     1      17.269  52.026  48.665  1.00  0.00     0.068 A 
HETATM   19  C   UNL     1      18.552  52.572  48.675  1.00  0.00     0.037 A 
HETATM   20  C   UNL     1      19.677  51.735  48.648  1.00  0.00     0.016 A 
BRANCH  18  21
HETATM   21  O   UNL     1      16.095  52.726  48.700  1.00  0.00    -0.356 OA
HETATM   22  C   UNL     1      15.253  52.513  49.825  1.00  0.00     0.210 C 
ENDBRANCH  18  21
ENDBRANCH  13  15
ENDBRANCH   6   9
ENDBRANCH   2   5
BRANCH   1  23
HETATM   23  C   UNL     1      26.233  44.366  51.754  1.00  0.00     0.077 A 
HETATM   24  C   UNL     1      26.558  43.773  52.976  1.00  0.00     0.048 A 
HETATM   25  N   UNL     1      27.893  43.416  52.868  1.00  0.00    -0.269 N 
HETATM   26  N   UNL     1      28.430  43.720  51.670  1.00  0.00    -0.183 NA
HETATM   27  C   UNL     1      27.432  44.291  51.006  1.00  0.00     0.158 A 
BRANCH  24  28
HETATM   28  C   UNL     1      25.754  43.487  54.206  1.00  0.00     0.055 C 
HETATM   29  C   UNL     1      25.123  44.744  54.788  1.00  0.00     0.011 C 
ENDBRANCH  24  28
BRANCH  25  30
HETATM   30  C   UNL     1      28.736  42.699  53.827  1.00  0.00     0.189 C 
BRANCH  30  31
HETATM   31  C   UNL     1      29.473  43.612  54.779  1.00  0.00    -0.038 A 
HETATM   32  C   UNL     1      28.990  44.907  55.021  1.00  0.00     0.009 A 
HETATM   33  C   UNL     1      29.630  45.745  55.937  1.00  0.00     0.001 A 
HETATM   34  C   UNL     1      30.754  45.296  56.627  1.00  0.00     0.000 A 
HETATM   35  C   UNL     1      31.234  44.008  56.409  1.00  0.00     0.001 A 
HETATM   36  C   UNL     1      30.594  43.167  55.498  1.00  0.00     0.009 A 
ENDBRANCH  30  31
ENDBRANCH  25  30
ENDBRANCH   1  23
TORSDOF 8
ENDMDL
MODEL 3
REMARK VINA RESULT:      -9.2      1.870      2.766
REMARK  8 active torsions:
REMARK  status: ('A' for Active; 'I' for Inactive)
REMARK    1  A    between atoms: C_2  and  C_3 
REMARK    2  A    between atoms: N_4  and  C_5 
REMARK    3  A    between atoms: C_5  and  C_6 
REMARK    4  A    between atoms: C_14  and  C_15 
REMARK       I    between atoms: C_15  and  N_16 
REMARK    5  A    between atoms: N_16  and  N_17 
REMARK       I    between atoms: N_17  and  C_18 
REMARK    6  A    between atoms: C_18  and  C_19 
REMARK    7  A    between atoms: C_23  and  C_24 
REMARK    8  A    between atoms: C_27  and  O_28 
ROOT
HETATM    1  C   UNL     1      21.164  46.264  48.598  1.00  0.00     0.273 C 
HETATM    2  N   UNL     1      22.372  46.845  48.914  1.00  0.00    -0.263 N 
HETATM    3  O   UNL     1      20.940  45.087  48.888  1.00  0.00    -0.266 OA
HETATM    4  H   UNL     1      22.597  47.822  48.772  1.00  0.00     0.190 HD
ENDROOT
BRANCH   2   5
HETATM    5  N   UNL     1      23.332  46.068  49.577  1.00  0.00    -0.262 N 
HETATM    6  C   UNL     1      24.340  46.696  50.275  1.00  0.00     0.288 C 
HETATM    7  O   UNL     1      24.383  47.921  50.390  1.00  0.00    -0.264 OA
HETATM    8  H   UNL     1      23.303  45.068  49.400  1.00  0.00     0.190 HD
BRANCH   6   9
HETATM    9  C   UNL     1      25.323  45.826  50.855  1.00  0.00     0.121 A 
HETATM   10  N   UNL     1      25.642  44.623  50.291  1.00  0.00    -0.272 N 
HETATM   11  H   UNL     1      25.243  44.218  49.449  1.00  0.00     0.189 HD
HETATM   12  N   UNL     1      26.596  43.943  50.943  1.00  0.00    -0.174 NA
HETATM   13  C   UNL     1      26.916  44.722  51.990  1.00  0.00     0.089 A 
HETATM   14  C   UNL     1      26.134  45.913  51.970  1.00  0.00     0.071 A 
BRANCH  13  15
HETATM   15  C   UNL     1      27.951  44.332  52.953  1.00  0.00    -0.005 A 
HETATM   16  C   UNL     1      28.878  43.331  52.634  1.00  0.00     0.016 A 
HETATM   17  C   UNL     1      29.885  42.974  53.536  1.00  0.00     0.037 A 
HETATM   18  C   UNL     1      29.986  43.604  54.776  1.00  0.00     0.068 A 
HETATM   19  C   UNL     1      29.058  44.589  55.113  1.00  0.00     0.037 A 
HETATM   20  C   UNL     1      28.050  44.951  54.208  1.00  0.00     0.016 A 
BRANCH  18  21
HETATM   21  O   UNL     1      31.019  43.169  55.559  1.00  0.00    -0.356 OA
HETATM   22  C   UNL     1      31.271  43.897  56.754  1.00  0.00     0.210 C 
ENDBRANCH  18  21
ENDBRANCH  13  15
ENDBRANCH   6   9
ENDBRANCH   2   5
BRANCH   1  23
HETATM   23  C   UNL     1      20.168  47.093  47.932  1.00  0.00     0.077 A 
HETATM   24  C   UNL     1      18.975  47.681  48.359  1.00  0.00     0.048 A 
HETATM   25  N   UNL     1      18.487  48.365  47.256  1.00  0.00    -0.269 N 
HETATM   26  N   UNL     1      19.286  48.269  46.175  1.00  0.00    -0.183 NA
HETATM   27  C   UNL     1      20.291  47.504  46.583  1.00  0.00     0.158 A 
BRANCH  24  28
HETATM   28  C   UNL     1      18.269  47.690  49.679  1.00  0.00     0.055 C 
HETATM   29  C   UNL     1      18.864  48.705  50.644  1.00  0.00     0.011 C 
ENDBRANCH  24  28
BRANCH  25  30
HETATM   30  C   UNL     1      17.301  49.216  47.151  1.00  0.00     0.189 C 
BRANCH  30  31
HETATM   31  C   UNL     1      17.416  50.506  47.928  1.00  0.00    -0.038 A 
HETATM   32  C   UNL     1      16.368  50.910  48.771  1.00  0.00     0.009 A 
HETATM   33  C   UNL     1      16.480  52.074  49.536  1.00  0.00     0.001 A 
HETATM   34  C   UNL     1      17.641  52.841  49.475  1.00  0.00     0.000 A 
HETATM   35  C   UNL     1      18.694  52.444  48.656  1.00  0.00     0.001 A 
HETATM   36  C   UNL     1      18.587  51.279  47.894  1.00  0.00     0.009 A 
ENDBRANCH  30  31
ENDBRANCH  25  30
ENDBRANCH   1  23
TORSDOF 8
ENDMDL
MODEL 4
REMARK VINA RESULT:      -8.9      1.924      2.571
REMARK  8 active torsions:
REMARK  status: ('A' for Active; 'I' for Inactive)
REMARK    1  A    between atoms: C_2  and  C_3 
REMARK    2  A    between atoms: N_4  and  C_5 
REMARK    3  A    between atoms: C_5  and  C_6 
REMARK    4  A    between atoms: C_14  and  C_15 
REMARK       I    between atoms: C_15  and  N_16 
REMARK    5  A    between atoms: N_16  and  N_17 
REMARK       I    between atoms: N_17  and  C_18 
REMARK    6  A    between atoms: C_18  and  C_19 
REMARK    7  A    between atoms: C_23  and  C_24 
REMARK    8  A    between atoms: C_27  and  O_28 
ROOT
HETATM    1  C   UNL     1      23.012  47.881  49.243  1.00  0.00     0.273 C 
HETATM    2  N   UNL     1      23.459  46.728  49.848  1.00  0.00    -0.263 N 
HETATM    3  O   UNL     1      23.507  48.973  49.531  1.00  0.00    -0.266 OA
HETATM    4  H   UNL     1      23.150  45.794  49.608  1.00  0.00     0.190 HD
ENDROOT
BRANCH   2   5
HETATM    5  N   UNL     1      24.492  46.826  50.790  1.00  0.00    -0.262 N 
HETATM    6  C   UNL     1      24.728  45.771  51.643  1.00  0.00     0.288 C 
HETATM    7  O   UNL     1      24.100  44.715  51.555  1.00  0.00    -0.264 OA
HETATM    8  H   UNL     1      24.937  47.736  50.878  1.00  0.00     0.190 HD
BRANCH   6   9
HETATM    9  C   UNL     1      25.749  45.989  52.627  1.00  0.00     0.121 A 
HETATM   10  N   UNL     1      26.052  47.241  53.084  1.00  0.00    -0.272 N 
HETATM   11  H   UNL     1      25.625  48.116  52.797  1.00  0.00     0.189 HD
HETATM   12  N   UNL     1      27.013  47.269  54.019  1.00  0.00    -0.174 NA
HETATM   13  C   UNL     1      27.370  45.984  54.182  1.00  0.00     0.089 A 
HETATM   14  C   UNL     1      26.600  45.150  53.320  1.00  0.00     0.071 A 
BRANCH  13  15
HETATM   15  C   UNL     1      28.401  45.587  55.147  1.00  0.00    -0.005 A 
HETATM   16  C   UNL     1      29.270  44.527  54.861  1.00  0.00     0.016 A 
HETATM   17  C   UNL     1      30.274  44.161  55.764  1.00  0.00     0.037 A 
HETATM   18  C   UNL     1      30.428  44.842  56.971  1.00  0.00     0.068 A 
HETATM   19  C   UNL     1      29.557  45.888  57.275  1.00  0.00     0.037 A 
HETATM   20  C   UNL     1      28.552  46.258  56.369  1.00  0.00     0.016 A 
BRANCH  18  21
HETATM   21  O   UNL     1      31.451  44.392  57.758  1.00  0.00    -0.356 OA
HETATM   22  C   UNL     1      32.201  43.287  57.268  1.00  0.00     0.210 C 
ENDBRANCH  18  21
ENDBRANCH  13  15
ENDBRANCH   6   9
ENDBRANCH   2   5
BRANCH   1  23
HETATM   23  C   UNL     1      21.956  47.758  48.247  1.00  0.00     0.077 A 
HETATM   24  C   UNL     1      20.976  48.637  47.780  1.00  0.00     0.048 A 
HETATM   25  N   UNL     1      20.280  47.931  46.812  1.00  0.00    -0.269 N 
HETATM   26  N   UNL     1      20.754  46.684  46.618  1.00  0.00    -0.183 NA
HETATM   27  C   UNL     1      21.757  46.584  47.482  1.00  0.00     0.158 A 
BRANCH  24  28
HETATM   28  C   UNL     1      20.645  50.056  48.123  1.00  0.00     0.055 C 
HETATM   29  C   UNL     1      19.894  50.171  49.441  1.00  0.00     0.011 C 
ENDBRANCH  24  28
BRANCH  25  30
HETATM   30  C   UNL     1      19.190  48.384  45.945  1.00  0.00     0.189 C 
BRANCH  30  31
HETATM   31  C   UNL     1      17.893  48.615  46.683  1.00  0.00    -0.038 A 
HETATM   32  C   UNL     1      17.384  47.620  47.532  1.00  0.00     0.009 A 
HETATM   33  C   UNL     1      16.212  47.837  48.261  1.00  0.00     0.001 A 
HETATM   34  C   UNL     1      15.541  49.053  48.158  1.00  0.00     0.000 A 
HETATM   35  C   UNL     1      16.043  50.056  47.333  1.00  0.00     0.001 A 
HETATM   36  C   UNL     1      17.215  49.843  46.606  1.00  0.00     0.009 A 
ENDBRANCH  30  31
ENDBRANCH  25  30
ENDBRANCH   1  23
TORSDOF 8
ENDMDL
MODEL 5
REMARK VINA RESULT:      -8.7      2.210      3.204
REMARK  8 active torsions:
REMARK  status: ('A' for Active; 'I' for Inactive)
REMARK    1  A    between atoms: C_2  and  C_3 
REMARK    2  A    between atoms: N_4  and  C_5 
REMARK    3  A    between atoms: C_5  and  C_6 
REMARK    4  A    between atoms: C_14  and  C_15 
REMARK       I    between atoms: C_15  and  N_16 
REMARK    5  A    between atoms: N_16  and  N_17 
REMARK       I    between atoms: N_17  and  C_18 
REMARK    6  A    between atoms: C_18  and  C_19 
REMARK    7  A    between atoms: C_23  and  C_24 
REMARK    8  A    between atoms: C_27  and  O_28 
ROOT
HETATM    1  C   UNL     1      22.426  49.362  49.369  1.00  0.00     0.273 C 
HETATM    2  N   UNL     1      22.438  47.985  49.383  1.00  0.00    -0.263 N 
HETATM    3  O   UNL     1      23.412  50.001  49.742  1.00  0.00    -0.266 OA
HETATM    4  H   UNL     1      21.694  47.398  49.025  1.00  0.00     0.190 HD
ENDROOT
BRANCH   2   5
HETATM    5  N   UNL     1      23.598  47.333  49.822  1.00  0.00    -0.262 N 
HETATM    6  C   UNL     1      23.852  46.049  49.392  1.00  0.00     0.288 C 
HETATM    7  O   UNL     1      23.123  45.482  48.579  1.00  0.00    -0.264 OA
HETATM    8  H   UNL     1      24.135  47.805  50.546  1.00  0.00     0.190 HD
BRANCH   6   9
HETATM    9  C   UNL     1      25.019  45.430  49.955  1.00  0.00     0.121 A 
HETATM   10  N   UNL     1      25.975  44.850  49.169  1.00  0.00    -0.272 N 
HETATM   11  H   UNL     1      25.975  44.783  48.156  1.00  0.00     0.189 HD
HETATM   12  N   UNL     1      27.010  44.338  49.850  1.00  0.00    -0.174 NA
HETATM   13  C   UNL     1      26.726  44.579  51.140  1.00  0.00     0.089 A 
HETATM   14  C   UNL     1      25.479  45.260  51.246  1.00  0.00     0.071 A 
BRANCH  13  15
HETATM   15  C   UNL     1      27.637  44.179  52.219  1.00  0.00    -0.005 A 
HETATM   16  C   UNL     1      27.332  44.477  53.553  1.00  0.00     0.016 A 
HETATM   17  C   UNL     1      28.181  44.074  54.588  1.00  0.00     0.037 A 
HETATM   18  C   UNL     1      29.353  43.370  54.313  1.00  0.00     0.068 A 
HETATM   19  C   UNL     1      29.677  43.083  52.987  1.00  0.00     0.037 A 
HETATM   20  C   UNL     1      28.824  43.484  51.949  1.00  0.00     0.016 A 
BRANCH  18  21
HETATM   21  O   UNL     1      30.089  43.028  55.414  1.00  0.00    -0.356 OA
HETATM   22  C   UNL     1      31.034  43.984  55.878  1.00  0.00     0.210 C 
ENDBRANCH  18  21
ENDBRANCH  13  15
ENDBRANCH   6   9
ENDBRANCH   2   5
BRANCH   1  23
HETATM   23  C   UNL     1      21.221  50.023  48.885  1.00  0.00     0.077 A 
HETATM   24  C   UNL     1      19.988  49.549  48.433  1.00  0.00     0.048 A 
HETATM   25  N   UNL     1      19.248  50.681  48.127  1.00  0.00    -0.269 N 
HETATM   26  N   UNL     1      19.911  51.830  48.366  1.00  0.00    -0.183 NA
HETATM   27  C   UNL     1      21.094  51.431  48.819  1.00  0.00     0.158 A 
BRANCH  24  28
HETATM   28  C   UNL     1      19.429  48.168  48.285  1.00  0.00     0.055 C 
HETATM   29  C   UNL     1      18.527  47.782  49.448  1.00  0.00     0.011 C 
ENDBRANCH  24  28
BRANCH  25  30
HETATM   30  C   UNL     1      17.860  50.780  47.674  1.00  0.00     0.189 C 
BRANCH  30  31
HETATM   31  C   UNL     1      17.728  51.173  46.222  1.00  0.00    -0.038 A 
HETATM   32  C   UNL     1      16.997  52.319  45.872  1.00  0.00     0.009 A 
HETATM   33  C   UNL     1      16.908  52.726  44.538  1.00  0.00     0.001 A 
HETATM   34  C   UNL     1      17.555  51.999  43.541  1.00  0.00     0.000 A 
HETATM   35  C   UNL     1      18.297  50.870  43.876  1.00  0.00     0.001 A 
HETATM   36  C   UNL     1      18.391  50.463  45.208  1.00  0.00     0.009 A 
ENDBRANCH  30  31
ENDBRANCH  25  30
ENDBRANCH   1  23
TORSDOF 8
ENDMDL
MODEL 6
REMARK VINA RESULT:      -8.4      2.839      4.588
REMARK  8 active torsions:
REMARK  status: ('A' for Active; 'I' for Inactive)
REMARK    1  A    between atoms: C_2  and  C_3 
REMARK    2  A    between atoms: N_4  and  C_5 
REMARK    3  A    between atoms: C_5  and  C_6 
REMARK    4  A    between atoms: C_14  and  C_15 
REMARK       I    between atoms: C_15  and  N_16 
REMARK    5  A    between atoms: N_16  and  N_17 
REMARK       I    between atoms: N_17  and  C_18 
REMARK    6  A    between atoms: C_18  and  C_19 
REMARK    7  A    between atoms: C_23  and  C_24 
REMARK    8  A    between atoms: C_27  and  O_28 
ROOT
HETATM    1  C   UNL     1      19.520  48.628  49.219  1.00  0.00     0.273 C 
HETATM    2  N   UNL     1      20.760  48.898  48.684  1.00  0.00    -0.263 N 
HETATM    3  O   UNL     1      19.410  47.922  50.223  1.00  0.00    -0.266 OA
HETATM    4  H   UNL     1      20.930  49.526  47.908  1.00  0.00     0.190 HD
ENDROOT
BRANCH   2   5
HETATM    5  N   UNL     1      21.889  48.357  49.315  1.00  0.00    -0.262 N 
HETATM    6  C   UNL     1      23.128  48.527  48.737  1.00  0.00     0.288 C 
HETATM    7  O   UNL     1      23.280  49.200  47.718  1.00  0.00    -0.264 OA
HETATM    8  H   UNL     1      21.714  47.751  50.112  1.00  0.00     0.190 HD
BRANCH   6   9
HETATM    9  C   UNL     1      24.216  47.872  49.407  1.00  0.00     0.121 A 
HETATM   10  N   UNL     1      25.473  48.408  49.432  1.00  0.00    -0.272 N 
HETATM   11  H   UNL     1      25.775  49.276  49.001  1.00  0.00     0.189 HD
HETATM   12  N   UNL     1      26.367  47.683  50.118  1.00  0.00    -0.174 NA
HETATM   13  C   UNL     1      25.679  46.617  50.559  1.00  0.00     0.089 A 
HETATM   14  C   UNL     1      24.323  46.699  50.128  1.00  0.00     0.071 A 
BRANCH  13  15
HETATM   15  C   UNL     1      26.309  45.577  51.379  1.00  0.00    -0.005 A 
HETATM   16  C   UNL     1      27.126  44.604  50.788  1.00  0.00     0.016 A 
HETATM   17  C   UNL     1      27.753  43.627  51.567  1.00  0.00     0.037 A 
HETATM   18  C   UNL     1      27.576  43.598  52.951  1.00  0.00     0.068 A 
HETATM   19  C   UNL     1      26.751  44.550  53.548  1.00  0.00     0.037 A 
HETATM   20  C   UNL     1      26.124  45.532  52.769  1.00  0.00     0.016 A 
BRANCH  18  21
HETATM   21  O   UNL     1      28.251  42.598  53.595  1.00  0.00    -0.356 OA
HETATM   22  C   UNL     1      29.523  42.239  53.069  1.00  0.00     0.210 C 
ENDBRANCH  18  21
ENDBRANCH  13  15
ENDBRANCH   6   9
ENDBRANCH   2   5
BRANCH   1  23
HETATM   23  C   UNL     1      18.359  49.219  48.567  1.00  0.00     0.077 A 
HETATM   24  C   UNL     1      18.022  50.530  48.223  1.00  0.00     0.048 A 
HETATM   25  N   UNL     1      16.783  50.442  47.606  1.00  0.00    -0.269 N 
HETATM   26  N   UNL     1      16.322  49.179  47.518  1.00  0.00    -0.183 NA
HETATM   27  C   UNL     1      17.268  48.449  48.097  1.00  0.00     0.158 A 
BRANCH  24  28
HETATM   28  C   UNL     1      18.739  51.835  48.386  1.00  0.00     0.055 C 
HETATM   29  C   UNL     1      18.896  52.228  49.847  1.00  0.00     0.011 C 
ENDBRANCH  24  28
BRANCH  25  30
HETATM   30  C   UNL     1      15.985  51.501  46.985  1.00  0.00     0.189 C 
BRANCH  30  31
HETATM   31  C   UNL     1      15.296  52.398  47.985  1.00  0.00    -0.038 A 
HETATM   32  C   UNL     1      14.631  53.553  47.545  1.00  0.00     0.009 A 
HETATM   33  C   UNL     1      13.945  54.367  48.450  1.00  0.00     0.001 A 
HETATM   34  C   UNL     1      13.907  54.031  49.802  1.00  0.00     0.000 A 
HETATM   35  C   UNL     1      14.549  52.880  50.249  1.00  0.00     0.001 A 
HETATM   36  C   UNL     1      15.231  52.063  49.347  1.00  0.00     0.009 A 
ENDBRANCH  30  31
ENDBRANCH  25  30
ENDBRANCH   1  23
TORSDOF 8
ENDMDL
MODEL 7
REMARK VINA RESULT:      -8.4      3.481     12.631
REMARK  8 active torsions:
REMARK  status: ('A' for Active; 'I' for Inactive)
REMARK    1  A    between atoms: C_2  and  C_3 
REMARK    2  A    between atoms: N_4  and  C_5 
REMARK    3  A    between atoms: C_5  and  C_6 
REMARK    4  A    between atoms: C_14  and  C_15 
REMARK       I    between atoms: C_15  and  N_16 
REMARK    5  A    between atoms: N_16  and  N_17 
REMARK       I    between atoms: N_17  and  C_18 
REMARK    6  A    between atoms: C_18  and  C_19 
REMARK    7  A    between atoms: C_23  and  C_24 
REMARK    8  A    between atoms: C_27  and  O_28 
ROOT
HETATM    1  C   UNL     1      23.254  48.311  49.585  1.00  0.00     0.273 C 
HETATM    2  N   UNL     1      21.935  48.066  49.272  1.00  0.00    -0.263 N 
HETATM    3  O   UNL     1      23.638  49.458  49.826  1.00  0.00    -0.266 OA
HETATM    4  H   UNL     1      21.537  47.145  49.135  1.00  0.00     0.190 HD
ENDROOT
BRANCH   2   5
HETATM    5  N   UNL     1      21.045  49.148  49.243  1.00  0.00    -0.262 N 
HETATM    6  C   UNL     1      19.750  48.965  49.677  1.00  0.00     0.288 C 
HETATM    7  O   UNL     1      19.371  47.895  50.152  1.00  0.00    -0.264 OA
HETATM    8  H   UNL     1      21.374  49.991  48.779  1.00  0.00     0.190 HD
BRANCH   6   9
HETATM    9  C   UNL     1      18.886  50.103  49.536  1.00  0.00     0.121 A 
HETATM   10  N   UNL     1      19.112  51.266  50.216  1.00  0.00    -0.272 N 
HETATM   11  H   UNL     1      19.867  51.456  50.869  1.00  0.00     0.189 HD
HETATM   12  N   UNL     1      18.227  52.238  49.955  1.00  0.00    -0.174 NA
HETATM   13  C   UNL     1      17.372  51.695  49.073  1.00  0.00     0.089 A 
HETATM   14  C   UNL     1      17.752  50.351  48.789  1.00  0.00     0.071 A 
BRANCH  13  15
HETATM   15  C   UNL     1      16.247  52.457  48.519  1.00  0.00    -0.005 A 
HETATM   16  C   UNL     1      15.916  52.349  47.162  1.00  0.00     0.016 A 
HETATM   17  C   UNL     1      14.828  53.051  46.634  1.00  0.00     0.037 A 
HETATM   18  C   UNL     1      14.051  53.877  47.446  1.00  0.00     0.068 A 
HETATM   19  C   UNL     1      14.382  54.006  48.794  1.00  0.00     0.037 A 
HETATM   20  C   UNL     1      15.471  53.301  49.326  1.00  0.00     0.016 A 
BRANCH  18  21
HETATM   21  O   UNL     1      13.013  54.497  46.808  1.00  0.00    -0.356 OA
HETATM   22  C   UNL     1      12.657  55.794  47.269  1.00  0.00     0.210 C 
ENDBRANCH  18  21
ENDBRANCH  13  15
ENDBRANCH   6   9
ENDBRANCH   2   5
BRANCH   1  23
HETATM   23  C   UNL     1      24.161  47.172  49.636  1.00  0.00     0.077 A 
HETATM   24  C   UNL     1      25.534  47.054  49.862  1.00  0.00     0.048 A 
HETATM   25  N   UNL     1      25.801  45.695  49.801  1.00  0.00    -0.269 N 
HETATM   26  N   UNL     1      24.704  44.947  49.572  1.00  0.00    -0.183 NA
HETATM   27  C   UNL     1      23.723  45.836  49.472  1.00  0.00     0.158 A 
BRANCH  24  28
HETATM   28  C   UNL     1      26.601  48.064  50.151  1.00  0.00     0.055 C 
HETATM   29  C   UNL     1      27.010  48.842  48.909  1.00  0.00     0.011 C 
ENDBRANCH  24  28
BRANCH  25  30
HETATM   30  C   UNL     1      27.066  44.994  50.030  1.00  0.00     0.189 C 
BRANCH  30  31
HETATM   31  C   UNL     1      27.198  44.435  51.427  1.00  0.00    -0.038 A 
HETATM   32  C   UNL     1      27.829  43.197  51.627  1.00  0.00     0.009 A 
HETATM   33  C   UNL     1      28.006  42.690  52.917  1.00  0.00     0.001 A 
HETATM   34  C   UNL     1      27.563  43.417  54.020  1.00  0.00     0.000 A 
HETATM   35  C   UNL     1      26.950  44.653  53.837  1.00  0.00     0.001 A 
HETATM   36  C   UNL     1      26.776  45.164  52.550  1.00  0.00     0.009 A 
ENDBRANCH  30  31
ENDBRANCH  25  30
ENDBRANCH   1  23
TORSDOF 8
ENDMDL
MODEL 8
REMARK VINA RESULT:      -8.2      3.153      5.098
REMARK  8 active torsions:
REMARK  status: ('A' for Active; 'I' for Inactive)
REMARK    1  A    between atoms: C_2  and  C_3 
REMARK    2  A    between atoms: N_4  and  C_5 
REMARK    3  A    between atoms: C_5  and  C_6 
REMARK    4  A    between atoms: C_14  and  C_15 
REMARK       I    between atoms: C_15  and  N_16 
REMARK    5  A    between atoms: N_16  and  N_17 
REMARK       I    between atoms: N_17  and  C_18 
REMARK    6  A    between atoms: C_18  and  C_19 
REMARK    7  A    between atoms: C_23  and  C_24 
REMARK    8  A    between atoms: C_27  and  O_28 
ROOT
HETATM    1  C   UNL     1      19.298  48.572  49.407  1.00  0.00     0.273 C 
HETATM    2  N   UNL     1      20.511  49.158  49.120  1.00  0.00    -0.263 N 
HETATM    3  O   UNL     1      19.248  47.497  50.008  1.00  0.00    -0.266 OA
HETATM    4  H   UNL     1      20.624  50.071  48.697  1.00  0.00     0.190 HD
ENDROOT
BRANCH   2   5
HETATM    5  N   UNL     1      21.680  48.506  49.534  1.00  0.00    -0.262 N 
HETATM    6  C   UNL     1      22.784  48.519  48.711  1.00  0.00     0.288 C 
HETATM    7  O   UNL     1      22.795  49.144  47.651  1.00  0.00    -0.264 OA
HETATM    8  H   UNL     1      21.609  47.944  50.378  1.00  0.00     0.190 HD
BRANCH   6   9
HETATM    9  C   UNL     1      23.910  47.759  49.177  1.00  0.00     0.121 A 
HETATM   10  N   UNL     1      25.119  48.343  49.426  1.00  0.00    -0.272 N 
HETATM   11  H   UNL     1      25.359  49.323  49.313  1.00  0.00     0.189 HD
HETATM   12  N   UNL     1      26.057  47.498  49.877  1.00  0.00    -0.174 NA
HETATM   13  C   UNL     1      25.448  46.302  49.920  1.00  0.00     0.089 A 
HETATM   14  C   UNL     1      24.098  46.425  49.482  1.00  0.00     0.071 A 
BRANCH  13  15
HETATM   15  C   UNL     1      26.146  45.098  50.384  1.00  0.00    -0.005 A 
HETATM   16  C   UNL     1      26.282  43.987  49.542  1.00  0.00     0.016 A 
HETATM   17  C   UNL     1      26.971  42.846  49.968  1.00  0.00     0.037 A 
HETATM   18  C   UNL     1      27.535  42.790  51.242  1.00  0.00     0.068 A 
HETATM   19  C   UNL     1      27.391  43.883  52.096  1.00  0.00     0.037 A 
HETATM   20  C   UNL     1      26.703  45.028  51.669  1.00  0.00     0.016 A 
BRANCH  18  21
HETATM   21  O   UNL     1      28.188  41.624  51.530  1.00  0.00    -0.356 OA
HETATM   22  C   UNL     1      28.871  41.559  52.775  1.00  0.00     0.210 C 
ENDBRANCH  18  21
ENDBRANCH  13  15
ENDBRANCH   6   9
ENDBRANCH   2   5
BRANCH   1  23
HETATM   23  C   UNL     1      18.091  49.276  48.993  1.00  0.00     0.077 A 
HETATM   24  C   UNL     1      17.696  50.614  49.061  1.00  0.00     0.048 A 
HETATM   25  N   UNL     1      16.437  50.654  48.482  1.00  0.00    -0.269 N 
HETATM   26  N   UNL     1      16.015  49.453  48.040  1.00  0.00    -0.183 NA
HETATM   27  C   UNL     1      17.009  48.629  48.350  1.00  0.00     0.158 A 
BRANCH  24  28
HETATM   28  C   UNL     1      18.374  51.843  49.579  1.00  0.00     0.055 C 
HETATM   29  C   UNL     1      19.349  52.433  48.571  1.00  0.00     0.011 C 
ENDBRANCH  24  28
BRANCH  25  30
HETATM   30  C   UNL     1      15.578  51.812  48.225  1.00  0.00     0.189 C 
BRANCH  30  31
HETATM   31  C   UNL     1      15.741  52.385  46.837  1.00  0.00    -0.038 A 
HETATM   32  C   UNL     1      14.764  53.247  46.317  1.00  0.00     0.009 A 
HETATM   33  C   UNL     1      14.925  53.827  45.056  1.00  0.00     0.001 A 
HETATM   34  C   UNL     1      16.067  53.559  44.305  1.00  0.00     0.000 A 
HETATM   35  C   UNL     1      17.052  52.718  44.815  1.00  0.00     0.001 A 
HETATM   36  C   UNL     1      16.896  52.141  46.076  1.00  0.00     0.009 A 
ENDBRANCH  30  31
ENDBRANCH  25  30
ENDBRANCH   1  23
TORSDOF 8
ENDMDL
MODEL 9
REMARK VINA RESULT:      -8.2      1.902      2.687
REMARK  8 active torsions:
REMARK  status: ('A' for Active; 'I' for Inactive)
REMARK    1  A    between atoms: C_2  and  C_3 
REMARK    2  A    between atoms: N_4  and  C_5 
REMARK    3  A    between atoms: C_5  and  C_6 
REMARK    4  A    between atoms: C_14  and  C_15 
REMARK       I    between atoms: C_15  and  N_16 
REMARK    5  A    between atoms: N_16  and  N_17 
REMARK       I    between atoms: N_17  and  C_18 
REMARK    6  A    between atoms: C_18  and  C_19 
REMARK    7  A    between atoms: C_23  and  C_24 
REMARK    8  A    between atoms: C_27  and  O_28 
ROOT
HETATM    1  C   UNL     1      22.348  47.141  48.874  1.00  0.00     0.273 C 
HETATM    2  N   UNL     1      22.576  45.871  49.356  1.00  0.00    -0.263 N 
HETATM    3  O   UNL     1      23.226  48.004  48.942  1.00  0.00    -0.266 OA
HETATM    4  H   UNL     1      21.930  45.096  49.268  1.00  0.00     0.190 HD
ENDROOT
BRANCH   2   5
HETATM    5  N   UNL     1      23.830  45.586  49.915  1.00  0.00    -0.262 N 
HETATM    6  C   UNL     1      23.984  44.445  50.672  1.00  0.00     0.288 C 
HETATM    7  O   UNL     1      23.070  43.634  50.815  1.00  0.00    -0.264 OA
HETATM    8  H   UNL     1      24.536  46.313  49.835  1.00  0.00     0.190 HD
BRANCH   6   9
HETATM    9  C   UNL     1      25.277  44.274  51.273  1.00  0.00     0.121 A 
HETATM   10  N   UNL     1      26.336  43.773  50.570  1.00  0.00    -0.272 N 
HETATM   11  H   UNL     1      26.338  43.472  49.600  1.00  0.00     0.189 HD
HETATM   12  N   UNL     1      27.477  43.699  51.270  1.00  0.00    -0.174 NA
HETATM   13  C   UNL     1      27.160  44.161  52.491  1.00  0.00     0.089 A 
HETATM   14  C   UNL     1      25.784  44.529  52.532  1.00  0.00     0.071 A 
BRANCH  13  15
HETATM   15  C   UNL     1      28.158  44.258  53.562  1.00  0.00    -0.005 A 
HETATM   16  C   UNL     1      28.082  45.283  54.513  1.00  0.00     0.016 A 
HETATM   17  C   UNL     1      29.013  45.364  55.553  1.00  0.00     0.037 A 
HETATM   18  C   UNL     1      30.040  44.427  55.664  1.00  0.00     0.068 A 
HETATM   19  C   UNL     1      30.137  43.412  54.712  1.00  0.00     0.037 A 
HETATM   20  C   UNL     1      29.202  43.328  53.671  1.00  0.00     0.016 A 
BRANCH  18  21
HETATM   21  O   UNL     1      30.876  44.614  56.730  1.00  0.00    -0.356 OA
HETATM   22  C   UNL     1      31.618  43.484  57.171  1.00  0.00     0.210 C 
ENDBRANCH  18  21
ENDBRANCH  13  15
ENDBRANCH   6   9
ENDBRANCH   2   5
BRANCH   1  23
HETATM   23  C   UNL     1      21.050  47.413  48.273  1.00  0.00     0.077 A 
HETATM   24  C   UNL     1      20.040  48.336  48.557  1.00  0.00     0.048 A 
HETATM   25  N   UNL     1      19.054  48.105  47.610  1.00  0.00    -0.269 N 
HETATM   26  N   UNL     1      19.370  47.124  46.741  1.00  0.00    -0.183 NA
HETATM   27  C   UNL     1      20.566  46.711  47.144  1.00  0.00     0.158 A 
BRANCH  24  28
HETATM   28  C   UNL     1      19.915  49.411  49.591  1.00  0.00     0.055 C 
HETATM   29  C   UNL     1      18.988  49.012  50.729  1.00  0.00     0.011 C 
ENDBRANCH  24  28
BRANCH  25  30
HETATM   30  C   UNL     1      17.799  48.826  47.393  1.00  0.00     0.189 C 
BRANCH  30  31
HETATM   31  C   UNL     1      17.675  49.414  46.007  1.00  0.00    -0.038 A 
HETATM   32  C   UNL     1      16.567  49.092  45.208  1.00  0.00     0.009 A 
HETATM   33  C   UNL     1      16.411  49.667  43.944  1.00  0.00     0.001 A 
HETATM   34  C   UNL     1      17.354  50.575  43.468  1.00  0.00     0.000 A 
HETATM   35  C   UNL     1      18.449  50.916  44.257  1.00  0.00     0.001 A 
HETATM   36  C   UNL     1      18.606  50.347  45.521  1.00  0.00     0.009 A 
ENDBRANCH  30  31
ENDBRANCH  25  30
ENDBRANCH   1  23
TORSDOF 8
ENDMDL
MODEL 10
REMARK VINA RESULT:      -8.2      1.871      2.398
REMARK  8 active torsions:
REMARK  status: ('A' for Active; 'I' for Inactive)
REMARK    1  A    between atoms: C_2  and  C_3 
REMARK    2  A    between atoms: N_4  and  C_5 
REMARK    3  A    between atoms: C_5  and  C_6 
REMARK    4  A    between atoms: C_14  and  C_15 
REMARK       I    between atoms: C_15  and  N_16 
REMARK    5  A    between atoms: N_16  and  N_17 
REMARK       I    between atoms: N_17  and  C_18 
REMARK    6  A    between atoms: C_18  and  C_19 
REMARK    7  A    between atoms: C_23  and  C_24 
REMARK    8  A    between atoms: C_27  and  O_28 
ROOT
HETATM    1  C   UNL     1      22.365  46.382  48.498  1.00  0.00     0.273 C 
HETATM    2  N   UNL     1      22.878  45.105  48.541  1.00  0.00    -0.263 N 
HETATM    3  O   UNL     1      22.995  47.327  48.977  1.00  0.00    -0.266 OA
HETATM    4  H   UNL     1      22.451  44.297  48.105  1.00  0.00     0.190 HD
ENDROOT
BRANCH   2   5
HETATM    5  N   UNL     1      24.134  44.911  49.134  1.00  0.00    -0.262 N 
HETATM    6  C   UNL     1      24.204  44.370  50.398  1.00  0.00     0.288 C 
HETATM    7  O   UNL     1      23.198  43.989  50.997  1.00  0.00    -0.264 OA
HETATM    8  H   UNL     1      24.931  45.302  48.640  1.00  0.00     0.190 HD
BRANCH   6   9
HETATM    9  C   UNL     1      25.522  44.282  50.960  1.00  0.00     0.121 A 
HETATM   10  N   UNL     1      26.643  44.372  50.183  1.00  0.00    -0.272 N 
HETATM   11  H   UNL     1      26.679  44.497  49.176  1.00  0.00     0.189 HD
HETATM   12  N   UNL     1      27.794  44.294  50.865  1.00  0.00    -0.174 NA
HETATM   13  C   UNL     1      27.423  44.136  52.146  1.00  0.00     0.089 A 
HETATM   14  C   UNL     1      26.002  44.118  52.245  1.00  0.00     0.071 A 
BRANCH  13  15
HETATM   15  C   UNL     1      28.410  44.025  53.226  1.00  0.00    -0.005 A 
HETATM   16  C   UNL     1      29.437  43.075  53.155  1.00  0.00     0.016 A 
HETATM   17  C   UNL     1      30.397  42.983  54.167  1.00  0.00     0.037 A 
HETATM   18  C   UNL     1      30.351  43.833  55.272  1.00  0.00     0.068 A 
HETATM   19  C   UNL     1      29.322  44.771  55.363  1.00  0.00     0.037 A 
HETATM   20  C   UNL     1      28.361  44.866  54.347  1.00  0.00     0.016 A 
BRANCH  18  21
HETATM   21  O   UNL     1      31.353  43.646  56.183  1.00  0.00    -0.356 OA
HETATM   22  C   UNL     1      31.141  44.169  57.489  1.00  0.00     0.210 C 
ENDBRANCH  18  21
ENDBRANCH  13  15
ENDBRANCH   6   9
ENDBRANCH   2   5
BRANCH   1  23
HETATM   23  C   UNL     1      21.072  46.570  47.856  1.00  0.00     0.077 A 
HETATM   24  C   UNL     1      19.875  47.159  48.272  1.00  0.00     0.048 A 
HETATM   25  N   UNL     1      19.011  47.038  47.194  1.00  0.00    -0.269 N 
HETATM   26  N   UNL     1      19.573  46.437  46.127  1.00  0.00    -0.183 NA
HETATM   27  C   UNL     1      20.808  46.157  46.528  1.00  0.00     0.158 A 
BRANCH  24  28
HETATM   28  C   UNL     1      19.470  47.835  49.545  1.00  0.00     0.055 C 
HETATM   29  C   UNL     1      20.012  49.253  49.643  1.00  0.00     0.011 C 
ENDBRANCH  24  28
BRANCH  25  30
HETATM   30  C   UNL     1      17.644  47.540  47.048  1.00  0.00     0.189 C 
BRANCH  30  31
HETATM   31  C   UNL     1      17.562  49.046  46.973  1.00  0.00    -0.038 A 
HETATM   32  C   UNL     1      18.317  49.741  46.015  1.00  0.00     0.009 A 
HETATM   33  C   UNL     1      18.214  51.129  45.897  1.00  0.00     0.001 A 
HETATM   34  C   UNL     1      17.349  51.838  46.728  1.00  0.00     0.000 A 
HETATM   35  C   UNL     1      16.582  51.161  47.672  1.00  0.00     0.001 A 
HETATM   36  C   UNL     1      16.680  49.773  47.789  1.00  0.00     0.009 A 
ENDBRANCH  30  31
ENDBRANCH  25  30
ENDBRANCH   1  23
TORSDOF 8
ENDMDL
