MODEL 1
REMARK VINA RESULT:      -9.1      0.000      0.000
REMARK  10 active torsions:
REMARK  status: ('A' for Active; 'I' for Inactive)
REMARK    1  A    between atoms: C_6  and  C_7 
REMARK    2  A    between atoms: C_7  and  C_8 
REMARK       I    between atoms: C_8  and  N_9 
REMARK    3  A    between atoms: N_9  and  C_10 
REMARK    4  A    between atoms: C_10  and  C_11 
REMARK    5  A    between atoms: C_11  and  N_12 
REMARK    6  A    between atoms: C_17  and  C_18 
REMARK    7  A    between atoms: C_27  and  C_28 
REMARK    8  A    between atoms: C_28  and  O_29 
REMARK    9  A    between atoms: O_29  and  C_30 
REMARK   10  A    between atoms: C_30  and  C_31 
ROOT
HETATM    1  C   UNL     1      27.528  41.437  52.129  1.00  0.00     0.071 C 
HETATM    2  C   UNL     1      26.925  42.188  50.964  1.00  0.00     0.048 C 
HETATM    3  N   UNL     1      26.683  41.392  49.837  1.00  0.00    -0.229 NA
HETATM    4  C   UNL     1      25.676  41.737  49.097  1.00  0.00     0.170 C 
HETATM    5  N   UNL     1      24.917  43.090  49.298  1.00  0.00    -0.318 N 
HETATM    6  C   UNL     1      23.647  42.866  49.223  1.00  0.00     0.011 C 
HETATM    7  C   UNL     1      25.922  44.054  49.775  1.00  0.00     0.169 C 
HETATM    8  S   UNL     1      24.817  40.710  48.015  1.00  0.00    -0.086 SA
HETATM    9  C   UNL     1      23.277  41.624  48.419  1.00  0.00     0.135 C 
HETATM   10  C   UNL     1      26.466  43.464  51.035  1.00  0.00     0.069 C 
ENDROOT
BRANCH   6  11
HETATM   11  C   UNL     1      22.640  43.708  49.958  1.00  0.00     0.156 C 
BRANCH  11  12
HETATM   12  C   UNL     1      21.765  44.504  49.004  1.00  0.00     0.223 C 
HETATM   13  N   UNL     1      20.643  45.090  49.524  1.00  0.00    -0.359 N 
HETATM   14  H   UNL     1      20.434  44.971  50.518  1.00  0.00     0.162 HD
HETATM   15  O   UNL     1      22.024  44.574  47.804  1.00  0.00    -0.273 OA
BRANCH  13  16
HETATM   16  C   UNL     1      19.566  45.650  48.693  1.00  0.00     0.150 C 
BRANCH  16  17
HETATM   17  C   UNL     1      19.617  47.176  48.419  1.00  0.00     0.253 C 
BRANCH  17  18
HETATM   18  N   UNL     1      20.060  47.988  49.623  1.00  0.00    -0.077 N 
HETATM   19  H   UNL     1      20.564  47.334  50.254  1.00  0.00     0.279 HD
HETATM   20  C   UNL     1      21.035  49.085  49.302  1.00  0.00     0.269 C 
HETATM   21  C   UNL     1      18.893  48.522  50.408  1.00  0.00     0.269 C 
ENDBRANCH  17  18
ENDBRANCH  16  17
ENDBRANCH  13  16
ENDBRANCH  11  12
ENDBRANCH   6  11
BRANCH   7  22
HETATM   22  C   UNL     1      25.789  45.551  49.575  1.00  0.00     0.008 A 
HETATM   23  C   UNL     1      26.884  46.423  49.506  1.00  0.00     0.125 A 
HETATM   24  F   UNL     1      28.129  45.934  49.478  1.00  0.00    -0.205 F 
HETATM   25  C   UNL     1      26.738  47.808  49.544  1.00  0.00     0.043 A 
HETATM   26  C   UNL     1      25.475  48.367  49.704  1.00  0.00     0.003 A 
HETATM   27  C   UNL     1      24.365  47.535  49.810  1.00  0.00     0.001 A 
HETATM   28  C   UNL     1      24.517  46.146  49.741  1.00  0.00     0.013 A 
ENDBRANCH   7  22
BRANCH  10  29
HETATM   29  C   UNL     1      26.041  44.066  52.307  1.00  0.00     0.294 C 
HETATM   30  O   UNL     1      24.901  43.880  52.715  1.00  0.00    -0.259 OA
BRANCH  29  31
HETATM   31  O   UNL     1      27.039  44.719  52.909  1.00  0.00    -0.313 OA
BRANCH  31  32
HETATM   32  C   UNL     1      26.967  44.825  54.338  1.00  0.00     0.217 C 
BRANCH  32  33
HETATM   33  C   UNL     1      28.371  44.668  54.839  1.00  0.00    -0.034 A 
HETATM   34  C   UNL     1      29.116  43.530  54.500  1.00  0.00     0.009 A 
HETATM   35  C   UNL     1      30.396  43.346  55.024  1.00  0.00     0.001 A 
HETATM   36  C   UNL     1      30.937  44.292  55.892  1.00  0.00     0.000 A 
HETATM   37  C   UNL     1      30.205  45.426  56.234  1.00  0.00     0.001 A 
HETATM   38  C   UNL     1      28.925  45.615  55.713  1.00  0.00     0.009 A 
ENDBRANCH  32  33
ENDBRANCH  31  32
ENDBRANCH  29  31
ENDBRANCH  10  29
TORSDOF 10
ENDMDL
MODEL 2
REMARK VINA RESULT:      -8.0      8.630     12.378
REMARK  10 active torsions:
REMARK  status: ('A' for Active; 'I' for Inactive)
REMARK    1  A    between atoms: C_6  and  C_7 
REMARK    2  A    between atoms: C_7  and  C_8 
REMARK       I    between atoms: C_8  and  N_9 
REMARK    3  A    between atoms: N_9  and  C_10 
REMARK    4  A    between atoms: C_10  and  C_11 
REMARK    5  A    between atoms: C_11  and  N_12 
REMARK    6  A    between atoms: C_17  and  C_18 
REMARK    7  A    between atoms: C_27  and  C_28 
REMARK    8  A    between atoms: C_28  and  O_29 
REMARK    9  A    between atoms: O_29  and  C_30 
REMARK   10  A    between atoms: C_30  and  C_31 
ROOT
HETATM    1  C   UNL     1      14.191  49.379  45.207  1.00  0.00     0.071 C 
HETATM    2  C   UNL     1      15.017  50.526  45.742  1.00  0.00     0.048 C 
HETATM    3  N   UNL     1      14.570  51.789  45.333  1.00  0.00    -0.229 NA
HETATM    4  C   UNL     1      14.771  52.765  46.163  1.00  0.00     0.170 C 
HETATM    5  N   UNL     1      15.668  52.606  47.435  1.00  0.00    -0.318 N 
HETATM    6  C   UNL     1      15.071  53.169  48.433  1.00  0.00     0.011 C 
HETATM    7  C   UNL     1      16.715  51.637  47.077  1.00  0.00     0.169 C 
HETATM    8  S   UNL     1      13.900  54.248  46.210  1.00  0.00    -0.086 SA
HETATM    9  C   UNL     1      14.084  54.264  48.037  1.00  0.00     0.135 C 
HETATM   10  C   UNL     1      15.984  50.395  46.686  1.00  0.00     0.069 C 
ENDROOT
BRANCH   6  11
HETATM   11  C   UNL     1      15.266  52.704  49.850  1.00  0.00     0.156 C 
BRANCH  11  12
HETATM   12  C   UNL     1      14.480  53.550  50.837  1.00  0.00     0.223 C 
HETATM   13  N   UNL     1      15.175  54.487  51.553  1.00  0.00    -0.359 N 
HETATM   14  H   UNL     1      16.182  54.581  51.404  1.00  0.00     0.162 HD
HETATM   15  O   UNL     1      13.278  53.364  51.025  1.00  0.00    -0.273 OA
BRANCH  13  16
HETATM   16  C   UNL     1      14.621  55.180  52.726  1.00  0.00     0.150 C 
BRANCH  16  17
HETATM   17  C   UNL     1      15.101  56.635  52.968  1.00  0.00     0.253 C 
BRANCH  17  18
HETATM   18  N   UNL     1      15.206  56.995  54.438  1.00  0.00    -0.077 N 
HETATM   19  H   UNL     1      15.415  56.114  54.947  1.00  0.00     0.279 HD
HETATM   20  C   UNL     1      16.334  57.935  54.764  1.00  0.00     0.269 C 
HETATM   21  C   UNL     1      13.905  57.508  54.992  1.00  0.00     0.269 C 
ENDBRANCH  17  18
ENDBRANCH  16  17
ENDBRANCH  13  16
ENDBRANCH  11  12
ENDBRANCH   6  11
BRANCH   7  22
HETATM   22  C   UNL     1      18.070  51.597  47.758  1.00  0.00     0.008 A 
HETATM   23  C   UNL     1      19.216  51.046  47.169  1.00  0.00     0.125 A 
HETATM   24  F   UNL     1      19.187  50.645  45.893  1.00  0.00    -0.205 F 
HETATM   25  C   UNL     1      20.388  50.820  47.888  1.00  0.00     0.043 A 
HETATM   26  C   UNL     1      20.430  51.097  49.248  1.00  0.00     0.003 A 
HETATM   27  C   UNL     1      19.303  51.614  49.879  1.00  0.00     0.001 A 
HETATM   28  C   UNL     1      18.139  51.867  49.144  1.00  0.00     0.013 A 
ENDBRANCH   7  22
BRANCH  10  29
HETATM   29  C   UNL     1      15.994  49.271  47.635  1.00  0.00     0.294 C 
HETATM   30  O   UNL     1      15.253  49.295  48.610  1.00  0.00    -0.259 OA
BRANCH  29  31
HETATM   31  O   UNL     1      16.814  48.293  47.242  1.00  0.00    -0.313 OA
BRANCH  31  32
HETATM   32  C   UNL     1      17.414  47.504  48.280  1.00  0.00     0.217 C 
BRANCH  32  33
HETATM   33  C   UNL     1      18.873  47.412  47.943  1.00  0.00    -0.034 A 
HETATM   34  C   UNL     1      19.278  47.230  46.614  1.00  0.00     0.009 A 
HETATM   35  C   UNL     1      20.629  47.071  46.305  1.00  0.00     0.001 A 
HETATM   36  C   UNL     1      21.582  47.086  47.321  1.00  0.00     0.000 A 
HETATM   37  C   UNL     1      21.189  47.267  48.646  1.00  0.00     0.001 A 
HETATM   38  C   UNL     1      19.840  47.427  48.958  1.00  0.00     0.009 A 
ENDBRANCH  32  33
ENDBRANCH  31  32
ENDBRANCH  29  31
ENDBRANCH  10  29
TORSDOF 10
ENDMDL
MODEL 3
REMARK VINA RESULT:      -7.9     10.876     13.124
REMARK  10 active torsions:
REMARK  status: ('A' for Active; 'I' for Inactive)
REMARK    1  A    between atoms: C_6  and  C_7 
REMARK    2  A    between atoms: C_7  and  C_8 
REMARK       I    between atoms: C_8  and  N_9 
REMARK    3  A    between atoms: N_9  and  C_10 
REMARK    4  A    between atoms: C_10  and  C_11 
REMARK    5  A    between atoms: C_11  and  N_12 
REMARK    6  A    between atoms: C_17  and  C_18 
REMARK    7  A    between atoms: C_27  and  C_28 
REMARK    8  A    between atoms: C_28  and  O_29 
REMARK    9  A    between atoms: O_29  and  C_30 
REMARK   10  A    between atoms: C_30  and  C_31 
ROOT
HETATM    1  C   UNL     1      24.132  47.957  40.149  1.00  0.00     0.071 C 
HETATM    2  C   UNL     1      25.498  47.516  40.622  1.00  0.00     0.048 C 
HETATM    3  N   UNL     1      25.501  46.275  41.274  1.00  0.00    -0.229 NA
HETATM    4  C   UNL     1      26.581  45.567  41.151  1.00  0.00     0.170 C 
HETATM    5  N   UNL     1      27.892  46.146  40.526  1.00  0.00    -0.318 N 
HETATM    6  C   UNL     1      28.388  45.265  39.721  1.00  0.00     0.011 C 
HETATM    7  C   UNL     1      27.913  47.575  40.873  1.00  0.00     0.169 C 
HETATM    8  S   UNL     1      26.698  43.861  41.347  1.00  0.00    -0.086 SA
HETATM    9  C   UNL     1      27.981  43.829  40.035  1.00  0.00     0.135 C 
HETATM   10  C   UNL     1      26.658  48.140  40.293  1.00  0.00     0.069 C 
ENDROOT
BRANCH   6  11
HETATM   11  C   UNL     1      29.210  45.649  38.521  1.00  0.00     0.156 C 
BRANCH  11  12
HETATM   12  C   UNL     1      28.502  45.314  37.219  1.00  0.00     0.223 C 
HETATM   13  N   UNL     1      27.232  45.797  37.053  1.00  0.00    -0.359 N 
HETATM   14  H   UNL     1      26.811  46.355  37.800  1.00  0.00     0.162 HD
HETATM   15  O   UNL     1      29.026  44.593  36.372  1.00  0.00    -0.273 OA
BRANCH  13  16
HETATM   16  C   UNL     1      26.326  45.338  35.990  1.00  0.00     0.150 C 
BRANCH  16  17
HETATM   17  C   UNL     1      24.957  44.764  36.438  1.00  0.00     0.253 C 
BRANCH  17  18
HETATM   18  N   UNL     1      24.986  44.159  37.829  1.00  0.00    -0.077 N 
HETATM   19  H   UNL     1      25.793  44.587  38.323  1.00  0.00     0.279 HD
HETATM   20  C   UNL     1      23.777  44.476  38.665  1.00  0.00     0.269 C 
HETATM   21  C   UNL     1      25.242  42.677  37.799  1.00  0.00     0.269 C 
ENDBRANCH  17  18
ENDBRANCH  16  17
ENDBRANCH  13  16
ENDBRANCH  11  12
ENDBRANCH   6  11
BRANCH   7  22
HETATM   22  C   UNL     1      29.194  48.382  40.968  1.00  0.00     0.008 A 
HETATM   23  C   UNL     1      30.059  48.591  39.885  1.00  0.00     0.125 A 
HETATM   24  F   UNL     1      29.707  48.188  38.659  1.00  0.00    -0.205 F 
HETATM   25  C   UNL     1      31.330  49.141  40.042  1.00  0.00     0.043 A 
HETATM   26  C   UNL     1      31.796  49.456  41.312  1.00  0.00     0.003 A 
HETATM   27  C   UNL     1      30.982  49.233  42.418  1.00  0.00     0.001 A 
HETATM   28  C   UNL     1      29.695  48.708  42.249  1.00  0.00     0.013 A 
ENDBRANCH   7  22
BRANCH  10  29
HETATM   29  C   UNL     1      26.779  48.965  39.081  1.00  0.00     0.294 C 
HETATM   30  O   UNL     1      26.856  48.423  37.985  1.00  0.00    -0.259 OA
BRANCH  29  31
HETATM   31  O   UNL     1      26.719  50.270  39.358  1.00  0.00    -0.313 OA
BRANCH  31  32
HETATM   32  C   UNL     1      27.551  51.131  38.567  1.00  0.00     0.217 C 
BRANCH  32  33
HETATM   33  C   UNL     1      28.489  51.800  39.527  1.00  0.00    -0.034 A 
HETATM   34  C   UNL     1      29.736  52.262  39.087  1.00  0.00     0.009 A 
HETATM   35  C   UNL     1      30.640  52.818  39.993  1.00  0.00     0.001 A 
HETATM   36  C   UNL     1      30.307  52.911  41.342  1.00  0.00     0.000 A 
HETATM   37  C   UNL     1      29.069  52.454  41.790  1.00  0.00     0.001 A 
HETATM   38  C   UNL     1      28.162  51.898  40.888  1.00  0.00     0.009 A 
ENDBRANCH  32  33
ENDBRANCH  31  32
ENDBRANCH  29  31
ENDBRANCH  10  29
TORSDOF 10
ENDMDL
MODEL 4
REMARK VINA RESULT:      -7.8      4.679     11.154
REMARK  10 active torsions:
REMARK  status: ('A' for Active; 'I' for Inactive)
REMARK    1  A    between atoms: C_6  and  C_7 
REMARK    2  A    between atoms: C_7  and  C_8 
REMARK       I    between atoms: C_8  and  N_9 
REMARK    3  A    between atoms: N_9  and  C_10 
REMARK    4  A    between atoms: C_10  and  C_11 
REMARK    5  A    between atoms: C_11  and  N_12 
REMARK    6  A    between atoms: C_17  and  C_18 
REMARK    7  A    between atoms: C_27  and  C_28 
REMARK    8  A    between atoms: C_28  and  O_29 
REMARK    9  A    between atoms: O_29  and  C_30 
REMARK   10  A    between atoms: C_30  and  C_31 
ROOT
HETATM    1  C   UNL     1      18.765  51.999  49.908  1.00  0.00     0.071 C 
HETATM    2  C   UNL     1      19.379  51.213  48.773  1.00  0.00     0.048 C 
HETATM    3  N   UNL     1      20.704  51.569  48.485  1.00  0.00    -0.229 NA
HETATM    4  C   UNL     1      21.465  50.623  48.029  1.00  0.00     0.170 C 
HETATM    5  N   UNL     1      20.898  49.232  47.593  1.00  0.00    -0.318 N 
HETATM    6  C   UNL     1      21.676  48.308  48.051  1.00  0.00     0.011 C 
HETATM    7  C   UNL     1      19.547  49.488  47.070  1.00  0.00     0.169 C 
HETATM    8  S   UNL     1      23.184  50.588  48.098  1.00  0.00    -0.086 SA
HETATM    9  C   UNL     1      23.108  48.766  48.309  1.00  0.00     0.135 C 
HETATM   10  C   UNL     1      18.803  50.127  48.197  1.00  0.00     0.069 C 
ENDROOT
BRANCH   6  11
HETATM   11  C   UNL     1      21.173  46.932  48.392  1.00  0.00     0.156 C 
BRANCH  11  12
HETATM   12  C   UNL     1      22.258  45.879  48.245  1.00  0.00     0.223 C 
HETATM   13  N   UNL     1      22.914  45.491  49.381  1.00  0.00    -0.359 N 
HETATM   14  H   UNL     1      22.657  45.917  50.275  1.00  0.00     0.162 HD
HETATM   15  O   UNL     1      22.573  45.434  47.142  1.00  0.00    -0.273 OA
BRANCH  13  16
HETATM   16  C   UNL     1      24.155  44.702  49.368  1.00  0.00     0.150 C 
BRANCH  16  17
HETATM   17  C   UNL     1      25.477  45.473  49.617  1.00  0.00     0.253 C 
BRANCH  17  18
HETATM   18  N   UNL     1      25.285  46.751  50.412  1.00  0.00    -0.077 N 
HETATM   19  H   UNL     1      24.345  47.118  50.165  1.00  0.00     0.279 HD
HETATM   20  C   UNL     1      25.271  46.554  51.903  1.00  0.00     0.269 C 
HETATM   21  C   UNL     1      26.272  47.817  50.023  1.00  0.00     0.269 C 
ENDBRANCH  17  18
ENDBRANCH  16  17
ENDBRANCH  13  16
ENDBRANCH  11  12
ENDBRANCH   6  11
BRANCH   7  22
HETATM   22  C   UNL     1      18.866  48.581  46.063  1.00  0.00     0.008 A 
HETATM   23  C   UNL     1      18.247  49.047  44.896  1.00  0.00     0.125 A 
HETATM   24  F   UNL     1      18.355  50.335  44.548  1.00  0.00    -0.205 F 
HETATM   25  C   UNL     1      17.442  48.232  44.102  1.00  0.00     0.043 A 
HETATM   26  C   UNL     1      17.191  46.921  44.488  1.00  0.00     0.003 A 
HETATM   27  C   UNL     1      17.759  46.429  45.658  1.00  0.00     0.001 A 
HETATM   28  C   UNL     1      18.591  47.245  46.434  1.00  0.00     0.013 A 
ENDBRANCH   7  22
BRANCH  10  29
HETATM   29  C   UNL     1      17.809  49.307  48.908  1.00  0.00     0.294 C 
HETATM   30  O   UNL     1      18.184  48.454  49.702  1.00  0.00    -0.259 OA
BRANCH  29  31
HETATM   31  O   UNL     1      16.559  49.676  48.617  1.00  0.00    -0.313 OA
BRANCH  31  32
HETATM   32  C   UNL     1      15.686  48.648  48.125  1.00  0.00     0.217 C 
BRANCH  32  33
HETATM   33  C   UNL     1      15.066  49.193  46.873  1.00  0.00    -0.034 A 
HETATM   34  C   UNL     1      14.236  48.383  46.087  1.00  0.00     0.009 A 
HETATM   35  C   UNL     1      13.717  48.863  44.885  1.00  0.00     0.001 A 
HETATM   36  C   UNL     1      14.027  50.152  44.457  1.00  0.00     0.000 A 
HETATM   37  C   UNL     1      14.850  50.966  45.232  1.00  0.00     0.001 A 
HETATM   38  C   UNL     1      15.372  50.490  46.435  1.00  0.00     0.009 A 
ENDBRANCH  32  33
ENDBRANCH  31  32
ENDBRANCH  29  31
ENDBRANCH  10  29
TORSDOF 10
ENDMDL
MODEL 5
REMARK VINA RESULT:      -7.6     10.454     12.377
REMARK  10 active torsions:
REMARK  status: ('A' for Active; 'I' for Inactive)
REMARK    1  A    between atoms: C_6  and  C_7 
REMARK    2  A    between atoms: C_7  and  C_8 
REMARK       I    between atoms: C_8  and  N_9 
REMARK    3  A    between atoms: N_9  and  C_10 
REMARK    4  A    between atoms: C_10  and  C_11 
REMARK    5  A    between atoms: C_11  and  N_12 
REMARK    6  A    between atoms: C_17  and  C_18 
REMARK    7  A    between atoms: C_27  and  C_28 
REMARK    8  A    between atoms: C_28  and  O_29 
REMARK    9  A    between atoms: O_29  and  C_30 
REMARK   10  A    between atoms: C_30  and  C_31 
ROOT
HETATM    1  C   UNL     1      29.458  45.086  39.027  1.00  0.00     0.071 C 
HETATM    2  C   UNL     1      28.905  46.402  38.533  1.00  0.00     0.048 C 
HETATM    3  N   UNL     1      28.239  46.315  37.303  1.00  0.00    -0.229 NA
HETATM    4  C   UNL     1      27.264  47.149  37.119  1.00  0.00     0.170 C 
HETATM    5  N   UNL     1      26.991  48.342  38.093  1.00  0.00    -0.318 N 
HETATM    6  C   UNL     1      25.720  48.412  38.313  1.00  0.00     0.011 C 
HETATM    7  C   UNL     1      28.305  48.755  38.610  1.00  0.00     0.169 C 
HETATM    8  S   UNL     1      25.958  46.951  36.015  1.00  0.00    -0.086 SA
HETATM    9  C   UNL     1      24.858  47.808  37.208  1.00  0.00     0.135 C 
HETATM   10  C   UNL     1      28.867  47.540  39.273  1.00  0.00     0.069 C 
ENDROOT
BRANCH   6  11
HETATM   11  C   UNL     1      25.157  48.951  39.600  1.00  0.00     0.156 C 
BRANCH  11  12
HETATM   12  C   UNL     1      24.376  47.895  40.363  1.00  0.00     0.223 C 
HETATM   13  N   UNL     1      25.076  47.106  41.236  1.00  0.00    -0.359 N 
HETATM   14  H   UNL     1      26.083  47.252  41.341  1.00  0.00     0.162 HD
HETATM   15  O   UNL     1      23.175  47.719  40.165  1.00  0.00    -0.273 OA
BRANCH  13  16
HETATM   16  C   UNL     1      24.527  45.879  41.832  1.00  0.00     0.150 C 
BRANCH  16  17
HETATM   17  C   UNL     1      25.240  44.549  41.474  1.00  0.00     0.253 C 
BRANCH  17  18
HETATM   18  N   UNL     1      24.762  43.946  40.166  1.00  0.00    -0.077 N 
HETATM   19  H   UNL     1      24.886  42.918  40.250  1.00  0.00     0.279 HD
HETATM   20  C   UNL     1      23.302  44.163  39.884  1.00  0.00     0.269 C 
HETATM   21  C   UNL     1      25.604  44.381  38.998  1.00  0.00     0.269 C 
ENDBRANCH  17  18
ENDBRANCH  16  17
ENDBRANCH  13  16
ENDBRANCH  11  12
ENDBRANCH   6  11
BRANCH   7  22
HETATM   22  C   UNL     1      28.588  50.157  39.116  1.00  0.00     0.008 A 
HETATM   23  C   UNL     1      29.842  50.775  39.019  1.00  0.00     0.125 A 
HETATM   24  F   UNL     1      30.830  50.186  38.334  1.00  0.00    -0.205 F 
HETATM   25  C   UNL     1      30.140  51.965  39.681  1.00  0.00     0.043 A 
HETATM   26  C   UNL     1      29.193  52.551  40.511  1.00  0.00     0.003 A 
HETATM   27  C   UNL     1      27.947  51.951  40.662  1.00  0.00     0.001 A 
HETATM   28  C   UNL     1      27.645  50.772  39.969  1.00  0.00     0.013 A 
ENDBRANCH   7  22
BRANCH  10  29
HETATM   29  C   UNL     1      28.876  47.510  40.743  1.00  0.00     0.294 C 
HETATM   30  O   UNL     1      27.881  47.132  41.348  1.00  0.00    -0.259 OA
BRANCH  29  31
HETATM   31  O   UNL     1      30.065  47.859  41.242  1.00  0.00    -0.313 OA
BRANCH  31  32
HETATM   32  C   UNL     1      30.061  48.873  42.257  1.00  0.00     0.217 C 
BRANCH  32  33
HETATM   33  C   UNL     1      31.416  49.515  42.210  1.00  0.00    -0.034 A 
HETATM   34  C   UNL     1      32.415  48.990  41.379  1.00  0.00     0.009 A 
HETATM   35  C   UNL     1      33.697  49.540  41.387  1.00  0.00     0.001 A 
HETATM   36  C   UNL     1      33.992  50.611  42.228  1.00  0.00     0.000 A 
HETATM   37  C   UNL     1      33.005  51.140  43.057  1.00  0.00     0.001 A 
HETATM   38  C   UNL     1      31.721  50.594  43.052  1.00  0.00     0.009 A 
ENDBRANCH  32  33
ENDBRANCH  31  32
ENDBRANCH  29  31
ENDBRANCH  10  29
TORSDOF 10
ENDMDL
MODEL 6
REMARK VINA RESULT:      -7.6     10.902     13.878
REMARK  10 active torsions:
REMARK  status: ('A' for Active; 'I' for Inactive)
REMARK    1  A    between atoms: C_6  and  C_7 
REMARK    2  A    between atoms: C_7  and  C_8 
REMARK       I    between atoms: C_8  and  N_9 
REMARK    3  A    between atoms: N_9  and  C_10 
REMARK    4  A    between atoms: C_10  and  C_11 
REMARK    5  A    between atoms: C_11  and  N_12 
REMARK    6  A    between atoms: C_17  and  C_18 
REMARK    7  A    between atoms: C_27  and  C_28 
REMARK    8  A    between atoms: C_28  and  O_29 
REMARK    9  A    between atoms: O_29  and  C_30 
REMARK   10  A    between atoms: C_30  and  C_31 
ROOT
HETATM    1  C   UNL     1      24.239  47.529  40.429  1.00  0.00     0.071 C 
HETATM    2  C   UNL     1      25.658  47.092  40.713  1.00  0.00     0.048 C 
HETATM    3  N   UNL     1      25.752  45.868  41.390  1.00  0.00    -0.229 NA
HETATM    4  C   UNL     1      26.801  45.151  41.133  1.00  0.00     0.170 C 
HETATM    5  N   UNL     1      28.010  45.705  40.311  1.00  0.00    -0.318 N 
HETATM    6  C   UNL     1      28.384  44.802  39.467  1.00  0.00     0.011 C 
HETATM    7  C   UNL     1      28.084  47.143  40.614  1.00  0.00     0.169 C 
HETATM    8  S   UNL     1      26.941  43.450  41.355  1.00  0.00    -0.086 SA
HETATM    9  C   UNL     1      28.023  43.376  39.874  1.00  0.00     0.135 C 
HETATM   10  C   UNL     1      26.760  47.700  40.205  1.00  0.00     0.069 C 
ENDROOT
BRANCH   6  11
HETATM   11  C   UNL     1      29.026  45.149  38.152  1.00  0.00     0.156 C 
BRANCH  11  12
HETATM   12  C   UNL     1      28.809  44.064  37.111  1.00  0.00     0.223 C 
HETATM   13  N   UNL     1      29.858  43.222  36.855  1.00  0.00    -0.359 N 
HETATM   14  H   UNL     1      30.736  43.352  37.362  1.00  0.00     0.162 HD
HETATM   15  O   UNL     1      27.754  43.979  36.485  1.00  0.00    -0.273 OA
BRANCH  13  16
HETATM   16  C   UNL     1      29.899  42.313  35.699  1.00  0.00     0.150 C 
BRANCH  16  17
HETATM   17  C   UNL     1      29.794  40.795  36.000  1.00  0.00     0.253 C 
BRANCH  17  18
HETATM   18  N   UNL     1      30.102  40.447  37.444  1.00  0.00    -0.077 N 
HETATM   19  H   UNL     1      30.096  41.340  37.974  1.00  0.00     0.279 HD
HETATM   20  C   UNL     1      29.072  39.570  38.100  1.00  0.00     0.269 C 
HETATM   21  C   UNL     1      31.480  39.866  37.606  1.00  0.00     0.269 C 
ENDBRANCH  17  18
ENDBRANCH  16  17
ENDBRANCH  13  16
ENDBRANCH  11  12
ENDBRANCH   6  11
BRANCH   7  22
HETATM   22  C   UNL     1      29.368  47.944  40.504  1.00  0.00     0.008 A 
HETATM   23  C   UNL     1      29.914  48.680  41.564  1.00  0.00     0.125 A 
HETATM   24  F   UNL     1      29.380  48.590  42.788  1.00  0.00    -0.205 F 
HETATM   25  C   UNL     1      30.963  49.580  41.385  1.00  0.00     0.043 A 
HETATM   26  C   UNL     1      31.468  49.809  40.112  1.00  0.00     0.003 A 
HETATM   27  C   UNL     1      30.931  49.124  39.026  1.00  0.00     0.001 A 
HETATM   28  C   UNL     1      29.898  48.199  39.219  1.00  0.00     0.013 A 
ENDBRANCH   7  22
BRANCH  10  29
HETATM   29  C   UNL     1      26.708  48.493  38.967  1.00  0.00     0.294 C 
HETATM   30  O   UNL     1      26.769  47.927  37.883  1.00  0.00    -0.259 OA
BRANCH  29  31
HETATM   31  O   UNL     1      26.525  49.793  39.214  1.00  0.00    -0.313 OA
BRANCH  31  32
HETATM   32  C   UNL     1      27.203  50.711  38.345  1.00  0.00     0.217 C 
BRANCH  32  33
HETATM   33  C   UNL     1      28.034  51.589  39.233  1.00  0.00    -0.034 A 
HETATM   34  C   UNL     1      29.082  52.347  38.693  1.00  0.00     0.009 A 
HETATM   35  C   UNL     1      29.902  53.107  39.527  1.00  0.00     0.001 A 
HETATM   36  C   UNL     1      29.686  53.111  40.904  1.00  0.00     0.000 A 
HETATM   37  C   UNL     1      28.646  52.360  41.450  1.00  0.00     0.001 A 
HETATM   38  C   UNL     1      27.823  51.599  40.620  1.00  0.00     0.009 A 
ENDBRANCH  32  33
ENDBRANCH  31  32
ENDBRANCH  29  31
ENDBRANCH  10  29
TORSDOF 10
ENDMDL
MODEL 7
REMARK VINA RESULT:      -7.4     18.575     21.676
REMARK  10 active torsions:
REMARK  status: ('A' for Active; 'I' for Inactive)
REMARK    1  A    between atoms: C_6  and  C_7 
REMARK    2  A    between atoms: C_7  and  C_8 
REMARK       I    between atoms: C_8  and  N_9 
REMARK    3  A    between atoms: N_9  and  C_10 
REMARK    4  A    between atoms: C_10  and  C_11 
REMARK    5  A    between atoms: C_11  and  N_12 
REMARK    6  A    between atoms: C_17  and  C_18 
REMARK    7  A    between atoms: C_27  and  C_28 
REMARK    8  A    between atoms: C_28  and  O_29 
REMARK    9  A    between atoms: O_29  and  C_30 
REMARK   10  A    between atoms: C_30  and  C_31 
ROOT
HETATM    1  C   UNL     1      34.775  43.568  66.106  1.00  0.00     0.071 C 
HETATM    2  C   UNL     1      35.759  44.560  66.683  1.00  0.00     0.048 C 
HETATM    3  N   UNL     1      36.020  44.377  68.047  1.00  0.00    -0.229 NA
HETATM    4  C   UNL     1      37.206  44.707  68.453  1.00  0.00     0.170 C 
HETATM    5  N   UNL     1      38.212  45.486  67.545  1.00  0.00    -0.318 N 
HETATM    6  C   UNL     1      39.380  44.948  67.667  1.00  0.00     0.011 C 
HETATM    7  C   UNL     1      37.395  46.356  66.684  1.00  0.00     0.169 C 
HETATM    8  S   UNL     1      37.988  44.121  69.870  1.00  0.00    -0.086 SA
HETATM    9  C   UNL     1      39.593  44.203  68.981  1.00  0.00     0.135 C 
HETATM   10  C   UNL     1      36.488  45.432  65.939  1.00  0.00     0.069 C 
ENDROOT
BRANCH   6  11
HETATM   11  C   UNL     1      40.395  44.974  66.557  1.00  0.00     0.156 C 
BRANCH  11  12
HETATM   12  C   UNL     1      41.765  45.409  67.053  1.00  0.00     0.223 C 
HETATM   13  N   UNL     1      42.028  46.752  67.072  1.00  0.00    -0.359 N 
HETATM   14  H   UNL     1      41.306  47.405  66.756  1.00  0.00     0.162 HD
HETATM   15  O   UNL     1      42.622  44.586  67.371  1.00  0.00    -0.273 OA
BRANCH  13  16
HETATM   16  C   UNL     1      43.376  47.308  67.257  1.00  0.00     0.150 C 
BRANCH  16  17
HETATM   17  C   UNL     1      44.256  47.443  65.987  1.00  0.00     0.253 C 
BRANCH  17  18
HETATM   18  N   UNL     1      44.528  46.117  65.301  1.00  0.00    -0.077 N 
HETATM   19  H   UNL     1      44.169  45.375  65.933  1.00  0.00     0.279 HD
HETATM   20  C   UNL     1      43.799  45.935  63.998  1.00  0.00     0.269 C 
HETATM   21  C   UNL     1      45.999  45.855  65.131  1.00  0.00     0.269 C 
ENDBRANCH  17  18
ENDBRANCH  16  17
ENDBRANCH  13  16
ENDBRANCH  11  12
ENDBRANCH   6  11
BRANCH   7  22
HETATM   22  C   UNL     1      37.922  47.640  66.072  1.00  0.00     0.008 A 
HETATM   23  C   UNL     1      38.973  47.681  65.146  1.00  0.00     0.125 A 
HETATM   24  F   UNL     1      39.476  46.543  64.652  1.00  0.00    -0.205 F 
HETATM   25  C   UNL     1      39.586  48.873  64.766  1.00  0.00     0.043 A 
HETATM   26  C   UNL     1      39.189  50.071  65.348  1.00  0.00     0.003 A 
HETATM   27  C   UNL     1      38.171  50.070  66.296  1.00  0.00     0.001 A 
HETATM   28  C   UNL     1      37.541  48.872  66.650  1.00  0.00     0.013 A 
ENDBRANCH   7  22
BRANCH  10  29
HETATM   29  C   UNL     1      36.786  45.182  64.521  1.00  0.00     0.294 C 
HETATM   30  O   UNL     1      36.304  45.911  63.663  1.00  0.00    -0.259 OA
BRANCH  29  31
HETATM   31  O   UNL     1      37.644  44.171  64.361  1.00  0.00    -0.313 OA
BRANCH  31  32
HETATM   32  C   UNL     1      37.467  43.358  63.192  1.00  0.00     0.217 C 
BRANCH  32  33
HETATM   33  C   UNL     1      38.118  42.042  63.498  1.00  0.00    -0.034 A 
HETATM   34  C   UNL     1      38.923  41.415  62.538  1.00  0.00     0.009 A 
HETATM   35  C   UNL     1      39.470  40.157  62.792  1.00  0.00     0.001 A 
HETATM   36  C   UNL     1      39.212  39.515  64.002  1.00  0.00     0.000 A 
HETATM   37  C   UNL     1      38.413  40.131  64.962  1.00  0.00     0.001 A 
HETATM   38  C   UNL     1      37.864  41.389  64.713  1.00  0.00     0.009 A 
ENDBRANCH  32  33
ENDBRANCH  31  32
ENDBRANCH  29  31
ENDBRANCH  10  29
TORSDOF 10
ENDMDL
MODEL 8
REMARK VINA RESULT:      -7.3      5.246     10.631
REMARK  10 active torsions:
REMARK  status: ('A' for Active; 'I' for Inactive)
REMARK    1  A    between atoms: C_6  and  C_7 
REMARK    2  A    between atoms: C_7  and  C_8 
REMARK       I    between atoms: C_8  and  N_9 
REMARK    3  A    between atoms: N_9  and  C_10 
REMARK    4  A    between atoms: C_10  and  C_11 
REMARK    5  A    between atoms: C_11  and  N_12 
REMARK    6  A    between atoms: C_17  and  C_18 
REMARK    7  A    between atoms: C_27  and  C_28 
REMARK    8  A    between atoms: C_28  and  O_29 
REMARK    9  A    between atoms: O_29  and  C_30 
REMARK   10  A    between atoms: C_30  and  C_31 
ROOT
HETATM    1  C   UNL     1      15.063  47.982  43.325  1.00  0.00     0.071 C 
HETATM    2  C   UNL     1      15.866  47.233  44.363  1.00  0.00     0.048 C 
HETATM    3  N   UNL     1      15.735  45.839  44.287  1.00  0.00    -0.229 NA
HETATM    4  C   UNL     1      16.768  45.146  44.653  1.00  0.00     0.170 C 
HETATM    5  N   UNL     1      18.000  45.796  45.364  1.00  0.00    -0.318 N 
HETATM    6  C   UNL     1      19.079  45.314  44.842  1.00  0.00     0.011 C 
HETATM    7  C   UNL     1      17.468  46.913  46.160  1.00  0.00     0.169 C 
HETATM    8  S   UNL     1      17.117  43.528  44.182  1.00  0.00    -0.086 SA
HETATM    9  C   UNL     1      18.906  43.940  44.202  1.00  0.00     0.135 C 
HETATM   10  C   UNL     1      16.787  47.808  45.178  1.00  0.00     0.069 C 
ENDROOT
BRANCH   6  11
HETATM   11  C   UNL     1      20.362  46.097  44.786  1.00  0.00     0.156 C 
BRANCH  11  12
HETATM   12  C   UNL     1      21.513  45.345  45.433  1.00  0.00     0.223 C 
HETATM   13  N   UNL     1      21.294  44.809  46.674  1.00  0.00    -0.359 N 
HETATM   14  H   UNL     1      20.380  44.934  47.115  1.00  0.00     0.162 HD
HETATM   15  O   UNL     1      22.614  45.268  44.889  1.00  0.00    -0.273 OA
BRANCH  13  16
HETATM   16  C   UNL     1      22.372  44.302  47.535  1.00  0.00     0.150 C 
BRANCH  16  17
HETATM   17  C   UNL     1      22.252  44.599  49.053  1.00  0.00     0.253 C 
BRANCH  17  18
HETATM   18  N   UNL     1      23.249  45.632  49.543  1.00  0.00    -0.077 N 
HETATM   19  H   UNL     1      23.060  45.772  50.555  1.00  0.00     0.279 HD
HETATM   20  C   UNL     1      24.685  45.198  49.448  1.00  0.00     0.269 C 
HETATM   21  C   UNL     1      23.050  46.971  48.885  1.00  0.00     0.269 C 
ENDBRANCH  17  18
ENDBRANCH  16  17
ENDBRANCH  13  16
ENDBRANCH  11  12
ENDBRANCH   6  11
BRANCH   7  22
HETATM   22  C   UNL     1      18.166  47.451  47.395  1.00  0.00     0.008 A 
HETATM   23  C   UNL     1      17.549  47.553  48.650  1.00  0.00     0.125 A 
HETATM   24  F   UNL     1      16.329  47.038  48.840  1.00  0.00    -0.205 F 
HETATM   25  C   UNL     1      18.127  48.248  49.710  1.00  0.00     0.043 A 
HETATM   26  C   UNL     1      19.333  48.912  49.527  1.00  0.00     0.003 A 
HETATM   27  C   UNL     1      19.963  48.864  48.287  1.00  0.00     0.001 A 
HETATM   28  C   UNL     1      19.391  48.139  47.236  1.00  0.00     0.013 A 
ENDBRANCH   7  22
BRANCH  10  29
HETATM   29  C   UNL     1      17.462  49.065  44.820  1.00  0.00     0.294 C 
HETATM   30  O   UNL     1      18.394  49.048  44.025  1.00  0.00    -0.259 OA
BRANCH  29  31
HETATM   31  O   UNL     1      16.886  50.123  45.398  1.00  0.00    -0.313 OA
BRANCH  31  32
HETATM   32  C   UNL     1      17.727  51.262  45.631  1.00  0.00     0.217 C 
BRANCH  32  33
HETATM   33  C   UNL     1      17.590  51.589  47.088  1.00  0.00    -0.034 A 
HETATM   34  C   UNL     1      18.622  52.256  47.760  1.00  0.00     0.009 A 
HETATM   35  C   UNL     1      18.530  52.496  49.131  1.00  0.00     0.001 A 
HETATM   36  C   UNL     1      17.409  52.067  49.840  1.00  0.00     0.000 A 
HETATM   37  C   UNL     1      16.377  51.403  49.181  1.00  0.00     0.001 A 
HETATM   38  C   UNL     1      16.466  51.161  47.810  1.00  0.00     0.009 A 
ENDBRANCH  32  33
ENDBRANCH  31  32
ENDBRANCH  29  31
ENDBRANCH  10  29
TORSDOF 10
ENDMDL
MODEL 9
REMARK VINA RESULT:      -7.3      2.906      7.859
REMARK  10 active torsions:
REMARK  status: ('A' for Active; 'I' for Inactive)
REMARK    1  A    between atoms: C_6  and  C_7 
REMARK    2  A    between atoms: C_7  and  C_8 
REMARK       I    between atoms: C_8  and  N_9 
REMARK    3  A    between atoms: N_9  and  C_10 
REMARK    4  A    between atoms: C_10  and  C_11 
REMARK    5  A    between atoms: C_11  and  N_12 
REMARK    6  A    between atoms: C_17  and  C_18 
REMARK    7  A    between atoms: C_27  and  C_28 
REMARK    8  A    between atoms: C_28  and  O_29 
REMARK    9  A    between atoms: O_29  and  C_30 
REMARK   10  A    between atoms: C_30  and  C_31 
ROOT
HETATM    1  C   UNL     1      22.782  46.109  48.442  1.00  0.00     0.071 C 
HETATM    2  C   UNL     1      23.298  44.910  49.202  1.00  0.00     0.048 C 
HETATM    3  N   UNL     1      22.644  43.711  48.887  1.00  0.00    -0.229 NA
HETATM    4  C   UNL     1      23.355  42.631  48.972  1.00  0.00     0.170 C 
HETATM    5  N   UNL     1      24.781  42.618  49.614  1.00  0.00    -0.318 N 
HETATM    6  C   UNL     1      25.563  41.911  48.868  1.00  0.00     0.011 C 
HETATM    7  C   UNL     1      24.761  43.643  50.670  1.00  0.00     0.169 C 
HETATM    8  S   UNL     1      23.034  41.144  48.165  1.00  0.00    -0.086 SA
HETATM    9  C   UNL     1      24.843  40.871  48.014  1.00  0.00     0.135 C 
HETATM   10  C   UNL     1      24.415  44.918  49.974  1.00  0.00     0.069 C 
ENDROOT
BRANCH   6  11
HETATM   11  C   UNL     1      27.042  42.172  48.782  1.00  0.00     0.156 C 
BRANCH  11  12
HETATM   12  C   UNL     1      27.818  40.918  48.416  1.00  0.00     0.223 C 
HETATM   13  N   UNL     1      28.136  40.058  49.432  1.00  0.00    -0.359 N 
HETATM   14  H   UNL     1      27.846  40.287  50.386  1.00  0.00     0.162 HD
HETATM   15  O   UNL     1      28.194  40.711  47.263  1.00  0.00    -0.273 OA
BRANCH  13  16
HETATM   16  C   UNL     1      29.105  38.962  49.289  1.00  0.00     0.150 C 
BRANCH  16  17
HETATM   17  C   UNL     1      28.580  37.526  49.547  1.00  0.00     0.253 C 
BRANCH  17  18
HETATM   18  N   UNL     1      28.011  36.863  48.306  1.00  0.00    -0.077 N 
HETATM   19  H   UNL     1      28.182  35.843  48.408  1.00  0.00     0.279 HD
HETATM   20  C   UNL     1      26.524  37.017  48.151  1.00  0.00     0.269 C 
HETATM   21  C   UNL     1      28.727  37.291  47.054  1.00  0.00     0.269 C 
ENDBRANCH  17  18
ENDBRANCH  16  17
ENDBRANCH  13  16
ENDBRANCH  11  12
ENDBRANCH   6  11
BRANCH   7  22
HETATM   22  C   UNL     1      25.682  43.603  51.874  1.00  0.00     0.008 A 
HETATM   23  C   UNL     1      25.514  44.417  53.003  1.00  0.00     0.125 A 
HETATM   24  F   UNL     1      24.425  45.185  53.120  1.00  0.00    -0.205 F 
HETATM   25  C   UNL     1      26.487  44.525  53.996  1.00  0.00     0.043 A 
HETATM   26  C   UNL     1      27.693  43.849  53.859  1.00  0.00     0.003 A 
HETATM   27  C   UNL     1      27.913  43.056  52.737  1.00  0.00     0.001 A 
HETATM   28  C   UNL     1      26.919  42.929  51.759  1.00  0.00     0.013 A 
ENDBRANCH   7  22
BRANCH  10  29
HETATM   29  C   UNL     1      25.495  45.895  49.766  1.00  0.00     0.294 C 
HETATM   30  O   UNL     1      26.519  45.552  49.188  1.00  0.00    -0.259 OA
BRANCH  29  31
HETATM   31  O   UNL     1      25.160  47.111  50.206  1.00  0.00    -0.313 OA
BRANCH  31  32
HETATM   32  C   UNL     1      25.767  48.225  49.536  1.00  0.00     0.217 C 
BRANCH  32  33
HETATM   33  C   UNL     1      24.640  49.121  49.115  1.00  0.00    -0.034 A 
HETATM   34  C   UNL     1      23.402  49.050  49.767  1.00  0.00     0.009 A 
HETATM   35  C   UNL     1      22.331  49.829  49.331  1.00  0.00     0.001 A 
HETATM   36  C   UNL     1      22.487  50.680  48.239  1.00  0.00     0.000 A 
HETATM   37  C   UNL     1      23.715  50.759  47.584  1.00  0.00     0.001 A 
HETATM   38  C   UNL     1      24.789  49.981  48.017  1.00  0.00     0.009 A 
ENDBRANCH  32  33
ENDBRANCH  31  32
ENDBRANCH  29  31
ENDBRANCH  10  29
TORSDOF 10
ENDMDL
MODEL 10
REMARK VINA RESULT:      -7.3     11.243     13.678
REMARK  10 active torsions:
REMARK  status: ('A' for Active; 'I' for Inactive)
REMARK    1  A    between atoms: C_6  and  C_7 
REMARK    2  A    between atoms: C_7  and  C_8 
REMARK       I    between atoms: C_8  and  N_9 
REMARK    3  A    between atoms: N_9  and  C_10 
REMARK    4  A    between atoms: C_10  and  C_11 
REMARK    5  A    between atoms: C_11  and  N_12 
REMARK    6  A    between atoms: C_17  and  C_18 
REMARK    7  A    between atoms: C_27  and  C_28 
REMARK    8  A    between atoms: C_28  and  O_29 
REMARK    9  A    between atoms: O_29  and  C_30 
REMARK   10  A    between atoms: C_30  and  C_31 
ROOT
HETATM    1  C   UNL     1      24.145  49.845  38.753  1.00  0.00     0.071 C 
HETATM    2  C   UNL     1      25.101  48.898  39.441  1.00  0.00     0.048 C 
HETATM    3  N   UNL     1      24.471  47.924  40.226  1.00  0.00    -0.229 NA
HETATM    4  C   UNL     1      25.080  46.783  40.321  1.00  0.00     0.170 C 
HETATM    5  N   UNL     1      26.540  46.571  39.803  1.00  0.00    -0.318 N 
HETATM    6  C   UNL     1      26.594  45.444  39.173  1.00  0.00     0.011 C 
HETATM    7  C   UNL     1      27.228  47.859  39.984  1.00  0.00     0.169 C 
HETATM    8  S   UNL     1      24.350  45.278  40.725  1.00  0.00    -0.086 SA
HETATM    9  C   UNL     1      25.529  44.437  39.597  1.00  0.00     0.135 C 
HETATM   10  C   UNL     1      26.434  48.844  39.190  1.00  0.00     0.069 C 
ENDROOT
BRANCH   6  11
HETATM   11  C   UNL     1      27.564  45.199  38.049  1.00  0.00     0.156 C 
BRANCH  11  12
HETATM   12  C   UNL     1      28.566  44.110  38.393  1.00  0.00     0.223 C 
HETATM   13  N   UNL     1      28.766  43.126  37.463  1.00  0.00    -0.359 N 
HETATM   14  H   UNL     1      28.241  43.156  36.585  1.00  0.00     0.162 HD
HETATM   15  O   UNL     1      29.133  44.082  39.484  1.00  0.00    -0.273 OA
BRANCH  13  16
HETATM   16  C   UNL     1      29.481  41.874  37.754  1.00  0.00     0.150 C 
BRANCH  16  17
HETATM   17  C   UNL     1      28.641  40.711  38.344  1.00  0.00     0.253 C 
BRANCH  17  18
HETATM   18  N   UNL     1      29.126  40.254  39.708  1.00  0.00    -0.077 N 
HETATM   19  H   UNL     1      30.123  40.533  39.779  1.00  0.00     0.279 HD
HETATM   20  C   UNL     1      28.429  40.916  40.864  1.00  0.00     0.269 C 
HETATM   21  C   UNL     1      29.092  38.756  39.849  1.00  0.00     0.269 C 
ENDBRANCH  17  18
ENDBRANCH  16  17
ENDBRANCH  13  16
ENDBRANCH  11  12
ENDBRANCH   6  11
BRANCH   7  22
HETATM   22  C   UNL     1      28.732  47.974  40.145  1.00  0.00     0.008 A 
HETATM   23  C   UNL     1      29.346  48.597  41.240  1.00  0.00     0.125 A 
HETATM   24  F   UNL     1      28.610  49.004  42.281  1.00  0.00    -0.205 F 
HETATM   25  C   UNL     1      30.709  48.888  41.265  1.00  0.00     0.043 A 
HETATM   26  C   UNL     1      31.497  48.604  40.156  1.00  0.00     0.003 A 
HETATM   27  C   UNL     1      30.919  48.017  39.035  1.00  0.00     0.001 A 
HETATM   28  C   UNL     1      29.556  47.700  39.030  1.00  0.00     0.013 A 
ENDBRANCH   7  22
BRANCH  10  29
HETATM   29  C   UNL     1      27.004  49.309  37.916  1.00  0.00     0.294 C 
HETATM   30  O   UNL     1      26.535  48.904  36.859  1.00  0.00    -0.259 OA
BRANCH  29  31
HETATM   31  O   UNL     1      27.970  50.212  38.102  1.00  0.00    -0.313 OA
BRANCH  31  32
HETATM   32  C   UNL     1      27.565  51.486  38.622  1.00  0.00     0.217 C 
BRANCH  32  33
HETATM   33  C   UNL     1      28.652  51.917  39.562  1.00  0.00    -0.034 A 
HETATM   34  C   UNL     1      29.975  52.012  39.112  1.00  0.00     0.009 A 
HETATM   35  C   UNL     1      30.999  52.340  40.000  1.00  0.00     0.001 A 
HETATM   36  C   UNL     1      30.709  52.570  41.344  1.00  0.00     0.000 A 
HETATM   37  C   UNL     1      29.396  52.479  41.801  1.00  0.00     0.001 A 
HETATM   38  C   UNL     1      28.369  52.151  40.916  1.00  0.00     0.009 A 
ENDBRANCH  32  33
ENDBRANCH  31  32
ENDBRANCH  29  31
ENDBRANCH  10  29
TORSDOF 10
ENDMDL
