MODEL 1
REMARK VINA RESULT:      -9.3      0.000      0.000
REMARK  5 active torsions:
REMARK  status: ('A' for Active; 'I' for Inactive)
REMARK    1  A    between atoms: C_2  and  O_3 
REMARK    2  A    between atoms: O_3  and  C_4 
REMARK    3  A    between atoms: C_5  and  N_6 
REMARK       I    between atoms: N_6  and  C_7 
REMARK    4  A    between atoms: C_7  and  C_8 
REMARK    5  A    between atoms: C_9  and  C_10 
ROOT
HETATM    1  N   UNL     1      25.989  45.316  50.967  1.00  0.00    -0.321 N 
HETATM    2  C   UNL     1      26.968  44.411  50.630  1.00  0.00     0.245 C 
HETATM    3  O   UNL     1      27.113  43.839  49.559  1.00  0.00    -0.268 OA
HETATM    4  H   UNL     1      26.072  45.814  51.846  1.00  0.00     0.169 HD
ENDROOT
BRANCH   1   5
HETATM    5  C   UNL     1      24.867  45.695  50.196  1.00  0.00     0.071 A 
HETATM    6  C   UNL     1      24.740  47.069  49.876  1.00  0.00     0.096 A 
HETATM    7  C   UNL     1      23.618  47.571  49.211  1.00  0.00     0.049 A 
HETATM    8  C   UNL     1      22.655  46.666  48.814  1.00  0.00    -0.020 A 
HETATM    9  C   UNL     1      22.792  45.314  49.088  1.00  0.00     0.078 A 
HETATM   10  C   UNL     1      21.350  46.903  48.153  1.00  0.00     0.073 C 
HETATM   11  C   UNL     1      23.878  44.803  49.779  1.00  0.00     0.069 A 
HETATM   12  O   UNL     1      21.737  44.557  48.647  1.00  0.00    -0.345 OA
HETATM   13  C   UNL     1      21.004  45.456  47.773  1.00  0.00     0.129 C 
HETATM   14  C   UNL     1      19.518  45.162  47.894  1.00  0.00     0.040 C 
BRANCH   6  15
HETATM   15  O   UNL     1      25.719  47.961  50.251  1.00  0.00    -0.349 OA
BRANCH  15  16
HETATM   16  C   UNL     1      26.119  48.776  49.137  1.00  0.00     0.171 C 
HETATM   17  C   UNL     1      27.623  48.980  49.155  1.00  0.00     0.034 C 
ENDBRANCH  15  16
ENDBRANCH   6  15
ENDBRANCH   1   5
BRANCH   2  18
HETATM   18  C   UNL     1      27.934  44.219  51.742  1.00  0.00     0.077 C 
HETATM   19  C   UNL     1      27.644  44.699  52.959  1.00  0.00     0.043 C 
BRANCH  19  20
HETATM   20  C   UNL     1      28.558  44.542  54.034  1.00  0.00     0.077 A 
HETATM   21  O   UNL     1      28.671  45.429  55.084  1.00  0.00    -0.310 OA
HETATM   22  C   UNL     1      29.619  44.967  55.939  1.00  0.00     0.086 A 
HETATM   23  C   UNL     1      30.161  43.785  55.462  1.00  0.00     0.000 A 
HETATM   24  C   UNL     1      30.003  45.579  57.130  1.00  0.00     0.038 A 
HETATM   25  C   UNL     1      29.476  43.519  54.249  1.00  0.00     0.051 A 
HETATM   26  C   UNL     1      31.173  43.157  56.208  1.00  0.00     0.014 A 
HETATM   27  C   UNL     1      31.584  43.749  57.412  1.00  0.00     0.001 A 
HETATM   28  C   UNL     1      31.005  44.937  57.865  1.00  0.00     0.003 A 
ENDBRANCH  19  20
ENDBRANCH   2  18
TORSDOF 5
ENDMDL
MODEL 2
REMARK VINA RESULT:      -9.1      3.029      4.540
REMARK  5 active torsions:
REMARK  status: ('A' for Active; 'I' for Inactive)
REMARK    1  A    between atoms: C_2  and  O_3 
REMARK    2  A    between atoms: O_3  and  C_4 
REMARK    3  A    between atoms: C_5  and  N_6 
REMARK       I    between atoms: N_6  and  C_7 
REMARK    4  A    between atoms: C_7  and  C_8 
REMARK    5  A    between atoms: C_9  and  C_10 
ROOT
HETATM    1  N   UNL     1      23.127  47.949  49.750  1.00  0.00    -0.321 N 
HETATM    2  C   UNL     1      23.376  46.715  49.198  1.00  0.00     0.245 C 
HETATM    3  O   UNL     1      22.918  46.261  48.159  1.00  0.00    -0.268 OA
HETATM    4  H   UNL     1      23.683  48.246  50.544  1.00  0.00     0.169 HD
ENDROOT
BRANCH   1   5
HETATM    5  C   UNL     1      22.197  48.916  49.308  1.00  0.00     0.071 A 
HETATM    6  C   UNL     1      22.697  50.214  49.033  1.00  0.00     0.096 A 
HETATM    7  C   UNL     1      21.852  51.273  48.693  1.00  0.00     0.049 A 
HETATM    8  C   UNL     1      20.505  51.000  48.568  1.00  0.00    -0.020 A 
HETATM    9  C   UNL     1      20.014  49.724  48.795  1.00  0.00     0.078 A 
HETATM   10  C   UNL     1      19.378  51.917  48.281  1.00  0.00     0.073 C 
HETATM   11  C   UNL     1      20.829  48.670  49.170  1.00  0.00     0.069 A 
HETATM   12  O   UNL     1      18.653  49.629  48.653  1.00  0.00    -0.345 OA
HETATM   13  C   UNL     1      18.282  50.875  48.007  1.00  0.00     0.129 C 
HETATM   14  C   UNL     1      16.921  51.314  48.522  1.00  0.00     0.040 C 
BRANCH   6  15
HETATM   15  O   UNL     1      24.045  50.470  49.133  1.00  0.00    -0.349 OA
BRANCH  15  16
HETATM   16  C   UNL     1      24.704  50.228  47.878  1.00  0.00     0.171 C 
HETATM   17  C   UNL     1      26.158  49.865  48.115  1.00  0.00     0.034 C 
ENDBRANCH  15  16
ENDBRANCH   6  15
ENDBRANCH   1   5
BRANCH   2  18
HETATM   18  C   UNL     1      24.365  45.952  50.001  1.00  0.00     0.077 C 
HETATM   19  C   UNL     1      24.965  46.542  51.043  1.00  0.00     0.043 C 
BRANCH  19  20
HETATM   20  C   UNL     1      25.926  45.838  51.818  1.00  0.00     0.077 A 
HETATM   21  O   UNL     1      26.723  44.828  51.322  1.00  0.00    -0.310 OA
HETATM   22  C   UNL     1      27.536  44.393  52.319  1.00  0.00     0.086 A 
HETATM   23  C   UNL     1      27.278  45.088  53.488  1.00  0.00     0.000 A 
HETATM   24  C   UNL     1      28.499  43.393  52.199  1.00  0.00     0.038 A 
HETATM   25  C   UNL     1      26.252  46.011  53.159  1.00  0.00     0.051 A 
HETATM   26  C   UNL     1      28.016  44.768  54.641  1.00  0.00     0.014 A 
HETATM   27  C   UNL     1      28.992  43.763  54.555  1.00  0.00     0.001 A 
HETATM   28  C   UNL     1      29.230  43.092  53.353  1.00  0.00     0.003 A 
ENDBRANCH  19  20
ENDBRANCH   2  18
TORSDOF 5
ENDMDL
MODEL 3
REMARK VINA RESULT:      -9.0      5.052      6.853
REMARK  5 active torsions:
REMARK  status: ('A' for Active; 'I' for Inactive)
REMARK    1  A    between atoms: C_2  and  O_3 
REMARK    2  A    between atoms: O_3  and  C_4 
REMARK    3  A    between atoms: C_5  and  N_6 
REMARK       I    between atoms: N_6  and  C_7 
REMARK    4  A    between atoms: C_7  and  C_8 
REMARK    5  A    between atoms: C_9  and  C_10 
ROOT
HETATM    1  N   UNL     1      28.426  40.877  50.710  1.00  0.00    -0.321 N 
HETATM    2  C   UNL     1      27.566  41.750  51.333  1.00  0.00     0.245 C 
HETATM    3  O   UNL     1      26.474  42.130  50.931  1.00  0.00    -0.268 OA
HETATM    4  H   UNL     1      29.234  40.545  51.223  1.00  0.00     0.169 HD
ENDROOT
BRANCH   1   5
HETATM    5  C   UNL     1      28.298  40.319  49.418  1.00  0.00     0.071 A 
HETATM    6  C   UNL     1      28.377  38.908  49.314  1.00  0.00     0.096 A 
HETATM    7  C   UNL     1      28.371  38.258  48.078  1.00  0.00     0.049 A 
HETATM    8  C   UNL     1      28.217  39.037  46.948  1.00  0.00    -0.020 A 
HETATM    9  C   UNL     1      28.098  40.415  47.046  1.00  0.00     0.078 A 
HETATM   10  C   UNL     1      28.231  38.644  45.521  1.00  0.00     0.073 C 
HETATM   11  C   UNL     1      28.141  41.081  48.259  1.00  0.00     0.069 A 
HETATM   12  O   UNL     1      27.978  41.039  45.830  1.00  0.00    -0.345 OA
HETATM   13  C   UNL     1      27.714  39.953  44.904  1.00  0.00     0.129 C 
HETATM   14  C   UNL     1      28.373  40.268  43.571  1.00  0.00     0.040 C 
BRANCH   6  15
HETATM   15  O   UNL     1      28.501  38.137  50.447  1.00  0.00    -0.349 OA
BRANCH  15  16
HETATM   16  C   UNL     1      29.855  37.681  50.608  1.00  0.00     0.171 C 
HETATM   17  C   UNL     1      29.899  36.508  51.570  1.00  0.00     0.034 C 
ENDBRANCH  15  16
ENDBRANCH   6  15
ENDBRANCH   1   5
BRANCH   2  18
HETATM   18  C   UNL     1      28.090  42.177  52.655  1.00  0.00     0.077 C 
HETATM   19  C   UNL     1      28.959  43.195  52.723  1.00  0.00     0.043 C 
BRANCH  19  20
HETATM   20  C   UNL     1      29.487  43.612  53.974  1.00  0.00     0.077 A 
HETATM   21  O   UNL     1      29.089  44.755  54.635  1.00  0.00    -0.310 OA
HETATM   22  C   UNL     1      29.776  44.839  55.803  1.00  0.00     0.086 A 
HETATM   23  C   UNL     1      30.650  43.771  55.924  1.00  0.00     0.000 A 
HETATM   24  C   UNL     1      29.633  45.845  56.755  1.00  0.00     0.038 A 
HETATM   25  C   UNL     1      30.456  42.991  54.756  1.00  0.00     0.051 A 
HETATM   26  C   UNL     1      31.462  43.691  57.069  1.00  0.00     0.014 A 
HETATM   27  C   UNL     1      31.344  44.691  58.047  1.00  0.00     0.001 A 
HETATM   28  C   UNL     1      30.442  45.747  57.892  1.00  0.00     0.003 A 
ENDBRANCH  19  20
ENDBRANCH   2  18
TORSDOF 5
ENDMDL
MODEL 4
REMARK VINA RESULT:      -8.8      2.983     10.117
REMARK  5 active torsions:
REMARK  status: ('A' for Active; 'I' for Inactive)
REMARK    1  A    between atoms: C_2  and  O_3 
REMARK    2  A    between atoms: O_3  and  C_4 
REMARK    3  A    between atoms: C_5  and  N_6 
REMARK       I    between atoms: N_6  and  C_7 
REMARK    4  A    between atoms: C_7  and  C_8 
REMARK    5  A    between atoms: C_9  and  C_10 
ROOT
HETATM    1  N   UNL     1      24.782  47.063  51.316  1.00  0.00    -0.321 N 
HETATM    2  C   UNL     1      24.975  47.647  50.086  1.00  0.00     0.245 C 
HETATM    3  O   UNL     1      26.016  47.707  49.448  1.00  0.00    -0.268 OA
HETATM    4  H   UNL     1      23.835  46.968  51.663  1.00  0.00     0.169 HD
ENDROOT
BRANCH   1   5
HETATM    5  C   UNL     1      25.765  46.512  52.168  1.00  0.00     0.071 A 
HETATM    6  C   UNL     1      26.165  45.176  51.911  1.00  0.00     0.096 A 
HETATM    7  C   UNL     1      27.049  44.497  52.753  1.00  0.00     0.049 A 
HETATM    8  C   UNL     1      27.578  45.194  53.820  1.00  0.00    -0.020 A 
HETATM    9  C   UNL     1      27.223  46.514  54.053  1.00  0.00     0.078 A 
HETATM   10  C   UNL     1      28.479  44.730  54.899  1.00  0.00     0.073 C 
HETATM   11  C   UNL     1      26.319  47.193  53.253  1.00  0.00     0.069 A 
HETATM   12  O   UNL     1      27.818  47.051  55.166  1.00  0.00    -0.345 OA
HETATM   13  C   UNL     1      28.853  46.091  55.506  1.00  0.00     0.129 C 
HETATM   14  C   UNL     1      28.998  46.033  57.017  1.00  0.00     0.040 C 
BRANCH   6  15
HETATM   15  O   UNL     1      25.654  44.498  50.829  1.00  0.00    -0.349 OA
BRANCH  15  16
HETATM   16  C   UNL     1      26.684  44.231  49.862  1.00  0.00     0.171 C 
HETATM   17  C   UNL     1      26.704  42.753  49.517  1.00  0.00     0.034 C 
ENDBRANCH  15  16
ENDBRANCH   6  15
ENDBRANCH   1   5
BRANCH   2  18
HETATM   18  C   UNL     1      23.704  48.186  49.537  1.00  0.00     0.077 C 
HETATM   19  C   UNL     1      23.536  49.512  49.441  1.00  0.00     0.043 C 
BRANCH  19  20
HETATM   20  C   UNL     1      22.325  50.052  48.934  1.00  0.00     0.077 A 
HETATM   21  O   UNL     1      21.619  49.506  47.882  1.00  0.00    -0.310 OA
HETATM   22  C   UNL     1      20.507  50.257  47.674  1.00  0.00     0.086 A 
HETATM   23  C   UNL     1      20.469  51.317  48.564  1.00  0.00     0.000 A 
HETATM   24  C   UNL     1      19.533  50.010  46.710  1.00  0.00     0.038 A 
HETATM   25  C   UNL     1      21.630  51.176  49.367  1.00  0.00     0.051 A 
HETATM   26  C   UNL     1      19.392  52.218  48.495  1.00  0.00     0.014 A 
HETATM   27  C   UNL     1      18.394  51.999  47.533  1.00  0.00     0.001 A 
HETATM   28  C   UNL     1      18.464  50.910  46.659  1.00  0.00     0.003 A 
ENDBRANCH  19  20
ENDBRANCH   2  18
TORSDOF 5
ENDMDL
MODEL 5
REMARK VINA RESULT:      -8.8      2.042      9.622
REMARK  5 active torsions:
REMARK  status: ('A' for Active; 'I' for Inactive)
REMARK    1  A    between atoms: C_2  and  O_3 
REMARK    2  A    between atoms: O_3  and  C_4 
REMARK    3  A    between atoms: C_5  and  N_6 
REMARK       I    between atoms: N_6  and  C_7 
REMARK    4  A    between atoms: C_7  and  C_8 
REMARK    5  A    between atoms: C_9  and  C_10 
ROOT
HETATM    1  N   UNL     1      26.263  45.185  52.242  1.00  0.00    -0.321 N 
HETATM    2  C   UNL     1      26.280  45.516  50.907  1.00  0.00     0.245 C 
HETATM    3  O   UNL     1      27.161  45.275  50.094  1.00  0.00    -0.268 OA
HETATM    4  H   UNL     1      25.406  45.327  52.764  1.00  0.00     0.169 HD
ENDROOT
BRANCH   1   5
HETATM    5  C   UNL     1      27.306  44.603  52.996  1.00  0.00     0.071 A 
HETATM    6  C   UNL     1      27.532  43.215  52.820  1.00  0.00     0.096 A 
HETATM    7  C   UNL     1      28.464  42.516  53.590  1.00  0.00     0.049 A 
HETATM    8  C   UNL     1      29.214  43.239  54.496  1.00  0.00    -0.020 A 
HETATM    9  C   UNL     1      29.026  44.605  54.645  1.00  0.00     0.078 A 
HETATM   10  C   UNL     1      30.220  42.772  55.477  1.00  0.00     0.073 C 
HETATM   11  C   UNL     1      28.081  45.309  53.918  1.00  0.00     0.069 A 
HETATM   12  O   UNL     1      29.833  45.166  55.602  1.00  0.00    -0.345 OA
HETATM   13  C   UNL     1      30.810  44.130  55.886  1.00  0.00     0.129 C 
HETATM   14  C   UNL     1      31.176  44.185  57.359  1.00  0.00     0.040 C 
BRANCH   6  15
HETATM   15  O   UNL     1      26.800  42.507  51.894  1.00  0.00    -0.349 OA
BRANCH  15  16
HETATM   16  C   UNL     1      27.661  41.705  51.069  1.00  0.00     0.171 C 
HETATM   17  C   UNL     1      26.944  40.435  50.648  1.00  0.00     0.034 C 
ENDBRANCH  15  16
ENDBRANCH   6  15
ENDBRANCH   1   5
BRANCH   2  18
HETATM   18  C   UNL     1      25.020  46.189  50.499  1.00  0.00     0.077 C 
HETATM   19  C   UNL     1      25.074  47.397  49.922  1.00  0.00     0.043 C 
BRANCH  19  20
HETATM   20  C   UNL     1      23.882  48.068  49.537  1.00  0.00     0.077 A 
HETATM   21  O   UNL     1      23.680  49.423  49.688  1.00  0.00    -0.310 OA
HETATM   22  C   UNL     1      22.451  49.732  49.200  1.00  0.00     0.086 A 
HETATM   23  C   UNL     1      21.815  48.590  48.741  1.00  0.00     0.000 A 
HETATM   24  C   UNL     1      21.894  51.008  49.157  1.00  0.00     0.038 A 
HETATM   25  C   UNL     1      22.737  47.534  48.956  1.00  0.00     0.051 A 
HETATM   26  C   UNL     1      20.520  48.707  48.208  1.00  0.00     0.014 A 
HETATM   27  C   UNL     1      19.929  49.979  48.152  1.00  0.00     0.001 A 
HETATM   28  C   UNL     1      20.608  51.109  48.616  1.00  0.00     0.003 A 
ENDBRANCH  19  20
ENDBRANCH   2  18
TORSDOF 5
ENDMDL
MODEL 6
REMARK VINA RESULT:      -8.7      3.195      4.318
REMARK  5 active torsions:
REMARK  status: ('A' for Active; 'I' for Inactive)
REMARK    1  A    between atoms: C_2  and  O_3 
REMARK    2  A    between atoms: O_3  and  C_4 
REMARK    3  A    between atoms: C_5  and  N_6 
REMARK       I    between atoms: N_6  and  C_7 
REMARK    4  A    between atoms: C_7  and  C_8 
REMARK    5  A    between atoms: C_9  and  C_10 
ROOT
HETATM    1  N   UNL     1      26.262  42.717  50.708  1.00  0.00    -0.321 N 
HETATM    2  C   UNL     1      27.011  43.869  50.657  1.00  0.00     0.245 C 
HETATM    3  O   UNL     1      27.155  44.619  49.702  1.00  0.00    -0.268 OA
HETATM    4  H   UNL     1      26.123  42.269  51.606  1.00  0.00     0.169 HD
ENDROOT
BRANCH   1   5
HETATM    5  C   UNL     1      25.592  42.080  49.639  1.00  0.00     0.071 A 
HETATM    6  C   UNL     1      26.396  41.557  48.595  1.00  0.00     0.096 A 
HETATM    7  C   UNL     1      25.836  41.003  47.441  1.00  0.00     0.049 A 
HETATM    8  C   UNL     1      24.460  40.921  47.375  1.00  0.00    -0.020 A 
HETATM    9  C   UNL     1      23.669  41.394  48.411  1.00  0.00     0.078 A 
HETATM   10  C   UNL     1      23.594  40.445  46.273  1.00  0.00     0.073 C 
HETATM   11  C   UNL     1      24.203  41.981  49.545  1.00  0.00     0.069 A 
HETATM   12  O   UNL     1      22.324  41.259  48.176  1.00  0.00    -0.345 OA
HETATM   13  C   UNL     1      22.258  40.373  47.028  1.00  0.00     0.129 C 
HETATM   14  C   UNL     1      21.077  40.775  46.160  1.00  0.00     0.040 C 
BRANCH   6  15
HETATM   15  O   UNL     1      27.768  41.617  48.683  1.00  0.00    -0.349 OA
BRANCH  15  16
HETATM   16  C   UNL     1      28.336  40.296  48.679  1.00  0.00     0.171 C 
HETATM   17  C   UNL     1      28.452  39.775  50.099  1.00  0.00     0.034 C 
ENDBRANCH  15  16
ENDBRANCH   6  15
ENDBRANCH   1   5
BRANCH   2  18
HETATM   18  C   UNL     1      27.627  44.173  51.974  1.00  0.00     0.077 C 
HETATM   19  C   UNL     1      28.681  43.459  52.391  1.00  0.00     0.043 C 
BRANCH  19  20
HETATM   20  C   UNL     1      29.278  43.720  53.653  1.00  0.00     0.077 A 
HETATM   21  O   UNL     1      29.000  44.831  54.420  1.00  0.00    -0.310 OA
HETATM   22  C   UNL     1      29.724  44.755  55.567  1.00  0.00     0.086 A 
HETATM   23  C   UNL     1      30.504  43.611  55.567  1.00  0.00     0.000 A 
HETATM   24  C   UNL     1      29.697  45.684  56.604  1.00  0.00     0.038 A 
HETATM   25  C   UNL     1      30.211  42.954  54.345  1.00  0.00     0.051 A 
HETATM   26  C   UNL     1      31.338  43.363  56.672  1.00  0.00     0.014 A 
HETATM   27  C   UNL     1      31.336  44.280  57.733  1.00  0.00     0.001 A 
HETATM   28  C   UNL     1      30.525  45.419  57.699  1.00  0.00     0.003 A 
ENDBRANCH  19  20
ENDBRANCH   2  18
TORSDOF 5
ENDMDL
MODEL 7
REMARK VINA RESULT:      -8.6      2.940      3.777
REMARK  5 active torsions:
REMARK  status: ('A' for Active; 'I' for Inactive)
REMARK    1  A    between atoms: C_2  and  O_3 
REMARK    2  A    between atoms: O_3  and  C_4 
REMARK    3  A    between atoms: C_5  and  N_6 
REMARK       I    between atoms: N_6  and  C_7 
REMARK    4  A    between atoms: C_7  and  C_8 
REMARK    5  A    between atoms: C_9  and  C_10 
ROOT
HETATM    1  N   UNL     1      25.950  42.988  50.936  1.00  0.00    -0.321 N 
HETATM    2  C   UNL     1      26.975  43.891  50.783  1.00  0.00     0.245 C 
HETATM    3  O   UNL     1      27.331  44.442  49.750  1.00  0.00    -0.268 OA
HETATM    4  H   UNL     1      25.679  42.718  51.874  1.00  0.00     0.169 HD
ENDROOT
BRANCH   1   5
HETATM    5  C   UNL     1      25.161  42.403  49.920  1.00  0.00     0.071 A 
HETATM    6  C   UNL     1      23.895  42.989  49.670  1.00  0.00     0.096 A 
HETATM    7  C   UNL     1      22.990  42.431  48.764  1.00  0.00     0.049 A 
HETATM    8  C   UNL     1      23.395  41.313  48.064  1.00  0.00    -0.020 A 
HETATM    9  C   UNL     1      24.649  40.758  48.274  1.00  0.00     0.078 A 
HETATM   10  C   UNL     1      22.646  40.480  47.096  1.00  0.00     0.073 C 
HETATM   11  C   UNL     1      25.545  41.274  49.194  1.00  0.00     0.069 A 
HETATM   12  O   UNL     1      24.885  39.639  47.517  1.00  0.00    -0.345 OA
HETATM   13  C   UNL     1      23.810  39.645  46.541  1.00  0.00     0.129 C 
HETATM   14  C   UNL     1      23.406  38.211  46.240  1.00  0.00     0.040 C 
BRANCH   6  15
HETATM   15  O   UNL     1      23.509  44.121  50.352  1.00  0.00    -0.349 OA
BRANCH  15  16
HETATM   16  C   UNL     1      23.590  45.279  49.504  1.00  0.00     0.171 C 
HETATM   17  C   UNL     1      24.375  46.378  50.197  1.00  0.00     0.034 C 
ENDBRANCH  15  16
ENDBRANCH   6  15
ENDBRANCH   1   5
BRANCH   2  18
HETATM   18  C   UNL     1      27.619  44.205  52.083  1.00  0.00     0.077 C 
HETATM   19  C   UNL     1      28.637  43.449  52.515  1.00  0.00     0.043 C 
BRANCH  19  20
HETATM   20  C   UNL     1      29.260  43.719  53.763  1.00  0.00     0.077 A 
HETATM   21  O   UNL     1      28.977  44.821  54.542  1.00  0.00    -0.310 OA
HETATM   22  C   UNL     1      29.731  44.756  55.669  1.00  0.00     0.086 A 
HETATM   23  C   UNL     1      30.537  43.630  55.645  1.00  0.00     0.000 A 
HETATM   24  C   UNL     1      29.709  45.681  56.711  1.00  0.00     0.038 A 
HETATM   25  C   UNL     1      30.227  42.972  54.428  1.00  0.00     0.051 A 
HETATM   26  C   UNL     1      31.404  43.398  56.727  1.00  0.00     0.014 A 
HETATM   27  C   UNL     1      31.408  44.311  57.792  1.00  0.00     0.001 A 
HETATM   28  C   UNL     1      30.571  45.431  57.784  1.00  0.00     0.003 A 
ENDBRANCH  19  20
ENDBRANCH   2  18
TORSDOF 5
ENDMDL
MODEL 8
REMARK VINA RESULT:      -8.5      1.635      2.267
REMARK  5 active torsions:
REMARK  status: ('A' for Active; 'I' for Inactive)
REMARK    1  A    between atoms: C_2  and  O_3 
REMARK    2  A    between atoms: O_3  and  C_4 
REMARK    3  A    between atoms: C_5  and  N_6 
REMARK       I    between atoms: N_6  and  C_7 
REMARK    4  A    between atoms: C_7  and  C_8 
REMARK    5  A    between atoms: C_9  and  C_10 
ROOT
HETATM    1  N   UNL     1      24.498  46.332  50.190  1.00  0.00    -0.321 N 
HETATM    2  C   UNL     1      24.519  45.317  51.118  1.00  0.00     0.245 C 
HETATM    3  O   UNL     1      23.741  44.377  51.207  1.00  0.00    -0.268 OA
HETATM    4  H   UNL     1      25.286  46.969  50.151  1.00  0.00     0.169 HD
ENDROOT
BRANCH   1   5
HETATM    5  C   UNL     1      23.510  46.582  49.212  1.00  0.00     0.071 A 
HETATM    6  C   UNL     1      23.138  47.934  49.002  1.00  0.00     0.096 A 
HETATM    7  C   UNL     1      22.098  48.287  48.139  1.00  0.00     0.049 A 
HETATM    8  C   UNL     1      21.478  47.273  47.438  1.00  0.00    -0.020 A 
HETATM    9  C   UNL     1      21.865  45.952  47.608  1.00  0.00     0.078 A 
HETATM   10  C   UNL     1      20.326  47.332  46.510  1.00  0.00     0.073 C 
HETATM   11  C   UNL     1      22.866  45.578  48.487  1.00  0.00     0.069 A 
HETATM   12  O   UNL     1      21.132  45.068  46.857  1.00  0.00    -0.345 OA
HETATM   13  C   UNL     1      20.414  45.915  45.922  1.00  0.00     0.129 C 
HETATM   14  C   UNL     1      19.046  45.310  45.656  1.00  0.00     0.040 C 
BRANCH   6  15
HETATM   15  O   UNL     1      23.781  48.942  49.684  1.00  0.00    -0.349 OA
BRANCH  15  16
HETATM   16  C   UNL     1      24.212  49.973  48.780  1.00  0.00     0.171 C 
HETATM   17  C   UNL     1      25.652  49.733  48.364  1.00  0.00     0.034 C 
ENDBRANCH  15  16
ENDBRANCH   6  15
ENDBRANCH   1   5
BRANCH   2  18
HETATM   18  C   UNL     1      25.684  45.441  52.030  1.00  0.00     0.077 C 
HETATM   19  C   UNL     1      26.152  44.352  52.654  1.00  0.00     0.043 C 
BRANCH  19  20
HETATM   20  C   UNL     1      27.255  44.446  53.544  1.00  0.00     0.077 A 
HETATM   21  O   UNL     1      28.189  43.447  53.721  1.00  0.00    -0.310 OA
HETATM   22  C   UNL     1      29.111  43.874  54.621  1.00  0.00     0.086 A 
HETATM   23  C   UNL     1      28.794  45.146  55.069  1.00  0.00     0.000 A 
HETATM   24  C   UNL     1      30.224  43.151  55.044  1.00  0.00     0.038 A 
HETATM   25  C   UNL     1      27.611  45.505  54.373  1.00  0.00     0.051 A 
HETATM   26  C   UNL     1      29.630  45.755  56.020  1.00  0.00     0.014 A 
HETATM   27  C   UNL     1      30.759  45.052  56.469  1.00  0.00     0.001 A 
HETATM   28  C   UNL     1      31.051  43.774  55.985  1.00  0.00     0.003 A 
ENDBRANCH  19  20
ENDBRANCH   2  18
TORSDOF 5
ENDMDL
MODEL 9
REMARK VINA RESULT:      -8.2      2.328      9.824
REMARK  5 active torsions:
REMARK  status: ('A' for Active; 'I' for Inactive)
REMARK    1  A    between atoms: C_2  and  O_3 
REMARK    2  A    between atoms: O_3  and  C_4 
REMARK    3  A    between atoms: C_5  and  N_6 
REMARK       I    between atoms: N_6  and  C_7 
REMARK    4  A    between atoms: C_7  and  C_8 
REMARK    5  A    between atoms: C_9  and  C_10 
ROOT
HETATM    1  N   UNL     1      26.726  44.730  52.398  1.00  0.00    -0.321 N 
HETATM    2  C   UNL     1      25.397  44.477  52.646  1.00  0.00     0.245 C 
HETATM    3  O   UNL     1      24.904  44.042  53.677  1.00  0.00    -0.268 OA
HETATM    4  H   UNL     1      26.974  45.219  51.546  1.00  0.00     0.169 HD
ENDROOT
BRANCH   1   5
HETATM    5  C   UNL     1      27.827  44.431  53.231  1.00  0.00     0.071 A 
HETATM    6  C   UNL     1      28.611  43.302  52.883  1.00  0.00     0.096 A 
HETATM    7  C   UNL     1      29.657  42.852  53.692  1.00  0.00     0.049 A 
HETATM    8  C   UNL     1      29.949  43.587  54.824  1.00  0.00    -0.020 A 
HETATM    9  C   UNL     1      29.212  44.716  55.148  1.00  0.00     0.078 A 
HETATM   10  C   UNL     1      30.946  43.329  55.887  1.00  0.00     0.073 C 
HETATM   11  C   UNL     1      28.148  45.156  54.380  1.00  0.00     0.069 A 
HETATM   12  O   UNL     1      29.616  45.315  56.314  1.00  0.00    -0.345 OA
HETATM   13  C   UNL     1      30.891  44.685  56.607  1.00  0.00     0.129 C 
HETATM   14  C   UNL     1      31.044  44.551  58.113  1.00  0.00     0.040 C 
BRANCH   6  15
HETATM   15  O   UNL     1      28.330  42.592  51.738  1.00  0.00    -0.349 OA
BRANCH  15  16
HETATM   16  C   UNL     1      27.895  41.260  52.059  1.00  0.00     0.171 C 
HETATM   17  C   UNL     1      27.742  40.442  50.789  1.00  0.00     0.034 C 
ENDBRANCH  15  16
ENDBRANCH   6  15
ENDBRANCH   1   5
BRANCH   2  18
HETATM   18  C   UNL     1      24.548  44.860  51.490  1.00  0.00     0.077 C 
HETATM   19  C   UNL     1      24.080  43.909  50.670  1.00  0.00     0.043 C 
BRANCH  19  20
HETATM   20  C   UNL     1      23.278  44.251  49.549  1.00  0.00     0.077 A 
HETATM   21  O   UNL     1      21.907  44.388  49.596  1.00  0.00    -0.310 OA
HETATM   22  C   UNL     1      21.466  44.739  48.361  1.00  0.00     0.086 A 
HETATM   23  C   UNL     1      22.529  44.818  47.476  1.00  0.00     0.000 A 
HETATM   24  C   UNL     1      20.140  44.989  48.016  1.00  0.00     0.038 A 
HETATM   25  C   UNL     1      23.681  44.510  48.243  1.00  0.00     0.051 A 
HETATM   26  C   UNL     1      22.268  45.159  46.137  1.00  0.00     0.014 A 
HETATM   27  C   UNL     1      20.942  45.415  45.756  1.00  0.00     0.001 A 
HETATM   28  C   UNL     1      19.898  45.335  46.682  1.00  0.00     0.003 A 
ENDBRANCH  19  20
ENDBRANCH   2  18
TORSDOF 5
ENDMDL
MODEL 10
REMARK VINA RESULT:      -8.2      3.737      6.056
REMARK  5 active torsions:
REMARK  status: ('A' for Active; 'I' for Inactive)
REMARK    1  A    between atoms: C_2  and  O_3 
REMARK    2  A    between atoms: O_3  and  C_4 
REMARK    3  A    between atoms: C_5  and  N_6 
REMARK       I    between atoms: N_6  and  C_7 
REMARK    4  A    between atoms: C_7  and  C_8 
REMARK    5  A    between atoms: C_9  and  C_10 
ROOT
HETATM    1  N   UNL     1      21.815  47.959  49.346  1.00  0.00    -0.321 N 
HETATM    2  C   UNL     1      22.320  47.185  48.328  1.00  0.00     0.245 C 
HETATM    3  O   UNL     1      22.189  47.364  47.125  1.00  0.00    -0.268 OA
HETATM    4  H   UNL     1      22.118  47.768  50.294  1.00  0.00     0.169 HD
ENDROOT
BRANCH   1   5
HETATM    5  C   UNL     1      20.936  49.059  49.234  1.00  0.00     0.071 A 
HETATM    6  C   UNL     1      21.506  50.352  49.336  1.00  0.00     0.096 A 
HETATM    7  C   UNL     1      20.718  51.506  49.346  1.00  0.00     0.049 A 
HETATM    8  C   UNL     1      19.356  51.351  49.187  1.00  0.00    -0.020 A 
HETATM    9  C   UNL     1      18.796  50.090  49.046  1.00  0.00     0.078 A 
HETATM   10  C   UNL     1      18.279  52.367  49.215  1.00  0.00     0.073 C 
HETATM   11  C   UNL     1      19.555  48.933  49.071  1.00  0.00     0.069 A 
HETATM   12  O   UNL     1      17.430  50.111  48.922  1.00  0.00    -0.345 OA
HETATM   13  C   UNL     1      17.122  51.509  48.681  1.00  0.00     0.129 C 
HETATM   14  C   UNL     1      15.796  51.845  49.342  1.00  0.00     0.040 C 
BRANCH   6  15
HETATM   15  O   UNL     1      22.868  50.500  49.466  1.00  0.00    -0.349 OA
BRANCH  15  16
HETATM   16  C   UNL     1      23.473  50.781  48.192  1.00  0.00     0.171 C 
HETATM   17  C   UNL     1      24.752  49.980  48.035  1.00  0.00     0.034 C 
ENDBRANCH  15  16
ENDBRANCH   6  15
ENDBRANCH   1   5
BRANCH   2  18
HETATM   18  C   UNL     1      23.143  46.066  48.854  1.00  0.00     0.077 C 
HETATM   19  C   UNL     1      24.192  46.333  49.644  1.00  0.00     0.043 C 
BRANCH  19  20
HETATM   20  C   UNL     1      25.004  45.283  50.148  1.00  0.00     0.077 A 
HETATM   21  O   UNL     1      25.545  44.286  49.364  1.00  0.00    -0.310 OA
HETATM   22  C   UNL     1      26.279  43.465  50.158  1.00  0.00     0.086 A 
HETATM   23  C   UNL     1      26.219  43.889  51.475  1.00  0.00     0.000 A 
HETATM   24  C   UNL     1      26.998  42.352  49.727  1.00  0.00     0.038 A 
HETATM   25  C   UNL     1      25.407  45.052  51.459  1.00  0.00     0.051 A 
HETATM   26  C   UNL     1      26.911  43.154  52.453  1.00  0.00     0.014 A 
HETATM   27  C   UNL     1      27.643  42.026  52.052  1.00  0.00     0.001 A 
HETATM   28  C   UNL     1      27.687  41.636  50.711  1.00  0.00     0.003 A 
ENDBRANCH  19  20
ENDBRANCH   2  18
TORSDOF 5
ENDMDL
