MODEL 1
REMARK VINA RESULT:      -8.3      0.000      0.000
REMARK  3 active torsions:
REMARK  status: ('A' for Active; 'I' for Inactive)
REMARK    1  A    between atoms: C_2  and  N_3 
REMARK       I    between atoms: N_3  and  C_4 
REMARK    2  A    between atoms: C_4  and  C_5 
REMARK    3  A    between atoms: C_5  and  C_6 
ROOT
HETATM    1  C   UNL     1      26.291  47.663  50.028  1.00  0.00     0.286 C 
HETATM    2  N   UNL     1      24.760  47.647  50.116  1.00  0.00    -0.056 N 
HETATM    3  H   UNL     1      24.439  46.660  50.142  1.00  0.00     0.278 HD
HETATM    4  H   UNL     1      24.470  48.070  51.007  1.00  0.00     0.278 HD
HETATM    5  C   UNL     1      24.051  48.318  48.967  1.00  0.00     0.209 C 
HETATM    6  C   UNL     1      24.648  49.720  48.747  1.00  0.00     0.115 C 
HETATM    7  N   UNL     1      26.082  49.650  48.527  1.00  0.00    -0.353 N 
HETATM    8  C   UNL     1      26.910  48.848  49.266  1.00  0.00     0.249 C 
HETATM    9  O   UNL     1      28.118  49.064  49.283  1.00  0.00    -0.271 OA
HETATM   10  C   UNL     1      22.556  48.390  49.261  1.00  0.00     0.035 C 
HETATM   11  C   UNL     1      21.826  49.097  48.118  1.00  0.00     0.002 C 
HETATM   12  C   UNL     1      22.426  50.471  47.814  1.00  0.00     0.002 C 
HETATM   13  C   UNL     1      23.936  50.409  47.581  1.00  0.00     0.027 C 
HETATM   14  H   UNL     1      26.560  50.453  48.121  1.00  0.00     0.163 HD
ENDROOT
BRANCH   1  15
HETATM   15  C   UNL     1      26.875  46.325  49.562  1.00  0.00     0.146 C 
BRANCH  15  16
HETATM   16  C   UNL     1      26.006  45.172  49.959  1.00  0.00     0.224 C 
HETATM   17  N   UNL     1      26.183  44.366  51.027  1.00  0.00    -0.327 N 
HETATM   18  H   UNL     1      25.432  43.679  51.064  1.00  0.00     0.169 HD
HETATM   19  O   UNL     1      25.099  44.873  49.163  1.00  0.00    -0.273 OA
BRANCH  17  20
HETATM   20  C   UNL     1      27.119  44.237  52.070  1.00  0.00     0.034 A 
HETATM   21  C   UNL     1      27.051  44.829  53.328  1.00  0.00     0.031 A 
HETATM   22  C   UNL     1      28.077  44.640  54.269  1.00  0.00     0.026 A 
HETATM   23  C   UNL     1      29.178  43.851  53.960  1.00  0.00     0.034 A 
HETATM   24  C   UNL     1      29.263  43.243  52.715  1.00  0.00     0.026 A 
HETATM   25 CL   UNL     1      30.430  43.632  55.114  1.00  0.00    -0.084 Cl
HETATM   26  C   UNL     1      28.239  43.435  51.780  1.00  0.00     0.031 A 
ENDBRANCH  17  20
ENDBRANCH  15  16
ENDBRANCH   1  15
TORSDOF 3
ENDMDL
MODEL 2
REMARK VINA RESULT:      -8.3      3.381      7.558
REMARK  3 active torsions:
REMARK  status: ('A' for Active; 'I' for Inactive)
REMARK    1  A    between atoms: C_2  and  N_3 
REMARK       I    between atoms: N_3  and  C_4 
REMARK    2  A    between atoms: C_4  and  C_5 
REMARK    3  A    between atoms: C_5  and  C_6 
ROOT
HETATM    1  C   UNL     1      26.348  42.277  51.345  1.00  0.00     0.286 C 
HETATM    2  N   UNL     1      26.473  42.963  52.711  1.00  0.00    -0.056 N 
HETATM    3  H   UNL     1      25.868  43.807  52.717  1.00  0.00     0.278 HD
HETATM    4  H   UNL     1      26.101  42.336  53.436  1.00  0.00     0.278 HD
HETATM    5  C   UNL     1      27.866  43.408  53.074  1.00  0.00     0.209 C 
HETATM    6  C   UNL     1      28.846  42.237  52.872  1.00  0.00     0.115 C 
HETATM    7  N   UNL     1      28.780  41.728  51.513  1.00  0.00    -0.353 N 
HETATM    8  C   UNL     1      27.598  41.532  50.848  1.00  0.00     0.249 C 
HETATM    9  O   UNL     1      27.564  40.802  49.863  1.00  0.00    -0.271 OA
HETATM   10  C   UNL     1      27.885  43.907  54.515  1.00  0.00     0.035 C 
HETATM   11  C   UNL     1      29.300  44.333  54.908  1.00  0.00     0.002 C 
HETATM   12  C   UNL     1      30.325  43.225  54.663  1.00  0.00     0.002 C 
HETATM   13  C   UNL     1      30.264  42.679  53.235  1.00  0.00     0.027 C 
HETATM   14  H   UNL     1      29.536  41.137  51.170  1.00  0.00     0.163 HD
ENDROOT
BRANCH   1  15
HETATM   15  C   UNL     1      25.776  43.203  50.265  1.00  0.00     0.146 C 
BRANCH  15  16
HETATM   16  C   UNL     1      24.551  43.920  50.741  1.00  0.00     0.224 C 
HETATM   17  N   UNL     1      24.300  45.241  50.625  1.00  0.00    -0.327 N 
HETATM   18  H   UNL     1      23.384  45.450  51.018  1.00  0.00     0.169 HD
HETATM   19  O   UNL     1      23.743  43.242  51.400  1.00  0.00    -0.273 OA
BRANCH  17  20
HETATM   20  C   UNL     1      24.967  46.370  50.114  1.00  0.00     0.034 A 
HETATM   21  C   UNL     1      26.344  46.556  50.031  1.00  0.00     0.031 A 
HETATM   22  C   UNL     1      26.879  47.752  49.525  1.00  0.00     0.026 A 
HETATM   23  C   UNL     1      26.039  48.771  49.092  1.00  0.00     0.034 A 
HETATM   24  C   UNL     1      24.663  48.604  49.157  1.00  0.00     0.026 A 
HETATM   25 CL   UNL     1      26.703  50.232  48.482  1.00  0.00    -0.084 Cl
HETATM   26  C   UNL     1      24.134  47.411  49.663  1.00  0.00     0.031 A 
ENDBRANCH  17  20
ENDBRANCH  15  16
ENDBRANCH   1  15
TORSDOF 3
ENDMDL
MODEL 3
REMARK VINA RESULT:      -8.3      2.672      4.199
REMARK  3 active torsions:
REMARK  status: ('A' for Active; 'I' for Inactive)
REMARK    1  A    between atoms: C_2  and  N_3 
REMARK       I    between atoms: N_3  and  C_4 
REMARK    2  A    between atoms: C_4  and  C_5 
REMARK    3  A    between atoms: C_5  and  C_6 
ROOT
HETATM    1  C   UNL     1      26.150  43.840  51.080  1.00  0.00     0.286 C 
HETATM    2  N   UNL     1      26.938  44.936  50.352  1.00  0.00    -0.056 N 
HETATM    3  H   UNL     1      27.873  45.023  50.794  1.00  0.00     0.278 HD
HETATM    4  H   UNL     1      27.103  44.642  49.381  1.00  0.00     0.278 HD
HETATM    5  C   UNL     1      26.301  46.302  50.381  1.00  0.00     0.209 C 
HETATM    6  C   UNL     1      24.831  46.190  49.935  1.00  0.00     0.115 C 
HETATM    7  N   UNL     1      24.105  45.240  50.760  1.00  0.00    -0.353 N 
HETATM    8  C   UNL     1      24.625  44.029  51.132  1.00  0.00     0.249 C 
HETATM    9  O   UNL     1      23.878  43.138  51.526  1.00  0.00    -0.271 OA
HETATM   10  C   UNL     1      27.085  47.251  49.480  1.00  0.00     0.035 C 
HETATM   11  C   UNL     1      26.432  48.633  49.474  1.00  0.00     0.002 C 
HETATM   12  C   UNL     1      24.950  48.570  49.102  1.00  0.00     0.002 C 
HETATM   13  C   UNL     1      24.175  47.571  49.963  1.00  0.00     0.027 C 
HETATM   14  H   UNL     1      23.087  45.253  50.747  1.00  0.00     0.163 HD
ENDROOT
BRANCH   1  15
HETATM   15  C   UNL     1      26.726  43.511  52.462  1.00  0.00     0.146 C 
BRANCH  15  16
HETATM   16  C   UNL     1      28.071  42.862  52.362  1.00  0.00     0.224 C 
HETATM   17  N   UNL     1      29.115  43.047  53.198  1.00  0.00    -0.327 N 
HETATM   18  H   UNL     1      29.896  42.465  52.902  1.00  0.00     0.169 HD
HETATM   19  O   UNL     1      28.270  42.170  51.348  1.00  0.00    -0.273 OA
BRANCH  17  20
HETATM   20  C   UNL     1      29.388  43.823  54.340  1.00  0.00     0.034 A 
HETATM   21  C   UNL     1      28.710  44.967  54.750  1.00  0.00     0.031 A 
HETATM   22  C   UNL     1      29.110  45.667  55.901  1.00  0.00     0.026 A 
HETATM   23  C   UNL     1      30.189  45.222  56.656  1.00  0.00     0.034 A 
HETATM   24  C   UNL     1      30.873  44.078  56.270  1.00  0.00     0.026 A 
HETATM   25 CL   UNL     1      30.674  46.087  58.057  1.00  0.00    -0.084 Cl
HETATM   26  C   UNL     1      30.472  43.385  55.122  1.00  0.00     0.031 A 
ENDBRANCH  17  20
ENDBRANCH  15  16
ENDBRANCH   1  15
TORSDOF 3
ENDMDL
MODEL 4
REMARK VINA RESULT:      -8.2      3.984      6.457
REMARK  3 active torsions:
REMARK  status: ('A' for Active; 'I' for Inactive)
REMARK    1  A    between atoms: C_2  and  N_3 
REMARK       I    between atoms: N_3  and  C_4 
REMARK    2  A    between atoms: C_4  and  C_5 
REMARK    3  A    between atoms: C_5  and  C_6 
ROOT
HETATM    1  C   UNL     1      26.003  45.792  53.536  1.00  0.00     0.286 C 
HETATM    2  N   UNL     1      26.564  44.488  54.118  1.00  0.00    -0.056 N 
HETATM    3  H   UNL     1      27.284  44.723  54.827  1.00  0.00     0.278 HD
HETATM    4  H   UNL     1      25.814  43.994  54.618  1.00  0.00     0.278 HD
HETATM    5  C   UNL     1      27.210  43.570  53.112  1.00  0.00     0.209 C 
HETATM    6  C   UNL     1      26.254  43.362  51.922  1.00  0.00     0.115 C 
HETATM    7  N   UNL     1      25.876  44.632  51.327  1.00  0.00    -0.353 N 
HETATM    8  C   UNL     1      25.541  45.732  52.070  1.00  0.00     0.249 C 
HETATM    9  O   UNL     1      24.916  46.653  51.554  1.00  0.00    -0.271 OA
HETATM   10  C   UNL     1      27.561  42.245  53.781  1.00  0.00     0.035 C 
HETATM   11  C   UNL     1      28.189  41.291  52.764  1.00  0.00     0.002 C 
HETATM   12  C   UNL     1      27.308  41.102  51.529  1.00  0.00     0.002 C 
HETATM   13  C   UNL     1      26.902  42.433  50.894  1.00  0.00     0.027 C 
HETATM   14  H   UNL     1      25.464  44.637  50.395  1.00  0.00     0.163 HD
ENDROOT
BRANCH   1  15
HETATM   15  C   UNL     1      26.914  46.998  53.792  1.00  0.00     0.146 C 
BRANCH  15  16
HETATM   16  C   UNL     1      26.834  47.462  55.214  1.00  0.00     0.224 C 
HETATM   17  N   UNL     1      27.642  47.085  56.227  1.00  0.00    -0.327 N 
HETATM   18  H   UNL     1      27.370  47.571  57.079  1.00  0.00     0.169 HD
HETATM   19  O   UNL     1      25.860  48.180  55.499  1.00  0.00    -0.273 OA
BRANCH  17  20
HETATM   20  C   UNL     1      28.732  46.211  56.397  1.00  0.00     0.034 A 
HETATM   21  C   UNL     1      29.338  45.433  55.414  1.00  0.00     0.031 A 
HETATM   22  C   UNL     1      30.404  44.575  55.730  1.00  0.00     0.026 A 
HETATM   23  C   UNL     1      30.878  44.493  57.034  1.00  0.00     0.034 A 
HETATM   24  C   UNL     1      30.296  45.266  58.029  1.00  0.00     0.026 A 
HETATM   25 CL   UNL     1      32.177  43.436  57.411  1.00  0.00    -0.084 Cl
HETATM   26  C   UNL     1      29.233  46.118  57.709  1.00  0.00     0.031 A 
ENDBRANCH  17  20
ENDBRANCH  15  16
ENDBRANCH   1  15
TORSDOF 3
ENDMDL
MODEL 5
REMARK VINA RESULT:      -8.1      3.790      8.175
REMARK  3 active torsions:
REMARK  status: ('A' for Active; 'I' for Inactive)
REMARK    1  A    between atoms: C_2  and  N_3 
REMARK       I    between atoms: N_3  and  C_4 
REMARK    2  A    between atoms: C_4  and  C_5 
REMARK    3  A    between atoms: C_5  and  C_6 
ROOT
HETATM    1  C   UNL     1      27.776  45.825  54.197  1.00  0.00     0.286 C 
HETATM    2  N   UNL     1      28.945  44.832  54.203  1.00  0.00    -0.056 N 
HETATM    3  H   UNL     1      28.648  43.966  53.715  1.00  0.00     0.278 HD
HETATM    4  H   UNL     1      29.720  45.224  53.654  1.00  0.00     0.278 HD
HETATM    5  C   UNL     1      29.430  44.431  55.573  1.00  0.00     0.209 C 
HETATM    6  C   UNL     1      29.680  45.694  56.417  1.00  0.00     0.115 C 
HETATM    7  N   UNL     1      28.487  46.520  56.489  1.00  0.00    -0.353 N 
HETATM    8  C   UNL     1      27.692  46.775  55.404  1.00  0.00     0.249 C 
HETATM    9  O   UNL     1      26.914  47.723  55.424  1.00  0.00    -0.271 OA
HETATM   10  C   UNL     1      30.696  43.591  55.441  1.00  0.00     0.035 C 
HETATM   11  C   UNL     1      31.218  43.202  56.825  1.00  0.00     0.002 C 
HETATM   12  C   UNL     1      31.420  44.419  57.728  1.00  0.00     0.002 C 
HETATM   13  C   UNL     1      30.171  45.298  57.811  1.00  0.00     0.027 C 
HETATM   14  H   UNL     1      28.428  47.240  57.208  1.00  0.00     0.163 HD
ENDROOT
BRANCH   1  15
HETATM   15  C   UNL     1      26.427  45.155  53.911  1.00  0.00     0.146 C 
BRANCH  15  16
HETATM   16  C   UNL     1      26.493  44.269  52.705  1.00  0.00     0.224 C 
HETATM   17  N   UNL     1      26.145  44.605  51.445  1.00  0.00    -0.327 N 
HETATM   18  H   UNL     1      26.309  43.814  50.824  1.00  0.00     0.169 HD
HETATM   19  O   UNL     1      26.797  43.083  52.916  1.00  0.00    -0.273 OA
BRANCH  17  20
HETATM   20  C   UNL     1      25.623  45.737  50.793  1.00  0.00     0.034 A 
HETATM   21  C   UNL     1      24.323  45.904  50.326  1.00  0.00     0.031 A 
HETATM   22  C   UNL     1      23.942  47.082  49.660  1.00  0.00     0.026 A 
HETATM   23  C   UNL     1      24.861  48.106  49.462  1.00  0.00     0.034 A 
HETATM   24  C   UNL     1      26.161  47.965  49.928  1.00  0.00     0.026 A 
HETATM   25 CL   UNL     1      24.388  49.538  48.642  1.00  0.00    -0.084 Cl
HETATM   26  C   UNL     1      26.535  46.790  50.589  1.00  0.00     0.031 A 
ENDBRANCH  17  20
ENDBRANCH  15  16
ENDBRANCH   1  15
TORSDOF 3
ENDMDL
MODEL 6
REMARK VINA RESULT:      -7.9      4.661      6.674
REMARK  3 active torsions:
REMARK  status: ('A' for Active; 'I' for Inactive)
REMARK    1  A    between atoms: C_2  and  N_3 
REMARK       I    between atoms: N_3  and  C_4 
REMARK    2  A    between atoms: C_4  and  C_5 
REMARK    3  A    between atoms: C_5  and  C_6 
ROOT
HETATM    1  C   UNL     1      26.675  43.051  50.925  1.00  0.00     0.286 C 
HETATM    2  N   UNL     1      27.325  41.681  51.156  1.00  0.00    -0.056 N 
HETATM    3  H   UNL     1      28.049  41.777  51.893  1.00  0.00     0.278 HD
HETATM    4  H   UNL     1      26.618  41.033  51.526  1.00  0.00     0.278 HD
HETATM    5  C   UNL     1      27.995  41.084  49.945  1.00  0.00     0.209 C 
HETATM    6  C   UNL     1      27.021  41.118  48.753  1.00  0.00     0.115 C 
HETATM    7  N   UNL     1      26.555  42.470  48.497  1.00  0.00    -0.353 N 
HETATM    8  C   UNL     1      26.177  43.328  49.496  1.00  0.00     0.249 C 
HETATM    9  O   UNL     1      25.486  44.307  49.233  1.00  0.00    -0.271 OA
HETATM   10  C   UNL     1      28.440  39.659  50.258  1.00  0.00     0.035 C 
HETATM   11  C   UNL     1      29.094  39.027  49.029  1.00  0.00     0.002 C 
HETATM   12  C   UNL     1      28.192  39.097  47.796  1.00  0.00     0.002 C 
HETATM   13  C   UNL     1      27.693  40.516  47.518  1.00  0.00     0.027 C 
HETATM   14  H   UNL     1      26.117  42.681  47.602  1.00  0.00     0.163 HD
ENDROOT
BRANCH   1  15
HETATM   15  C   UNL     1      27.521  44.210  51.463  1.00  0.00     0.146 C 
BRANCH  15  16
HETATM   16  C   UNL     1      26.870  44.875  52.636  1.00  0.00     0.224 C 
HETATM   17  N   UNL     1      27.371  44.963  53.886  1.00  0.00    -0.327 N 
HETATM   18  H   UNL     1      26.725  45.485  54.475  1.00  0.00     0.169 HD
HETATM   19  O   UNL     1      25.712  45.288  52.455  1.00  0.00    -0.273 OA
BRANCH  17  20
HETATM   20  C   UNL     1      28.525  44.525  54.561  1.00  0.00     0.034 A 
HETATM   21  C   UNL     1      29.173  43.304  54.397  1.00  0.00     0.031 A 
HETATM   22  C   UNL     1      30.305  42.981  55.163  1.00  0.00     0.026 A 
HETATM   23  C   UNL     1      30.803  43.882  56.098  1.00  0.00     0.034 A 
HETATM   24  C   UNL     1      30.178  45.109  56.272  1.00  0.00     0.026 A 
HETATM   25 CL   UNL     1      32.183  43.475  57.034  1.00  0.00    -0.084 Cl
HETATM   26  C   UNL     1      29.050  45.426  55.507  1.00  0.00     0.031 A 
ENDBRANCH  17  20
ENDBRANCH  15  16
ENDBRANCH   1  15
TORSDOF 3
ENDMDL
MODEL 7
REMARK VINA RESULT:      -7.8      1.939      2.379
REMARK  3 active torsions:
REMARK  status: ('A' for Active; 'I' for Inactive)
REMARK    1  A    between atoms: C_2  and  N_3 
REMARK       I    between atoms: N_3  and  C_4 
REMARK    2  A    between atoms: C_4  and  C_5 
REMARK    3  A    between atoms: C_5  and  C_6 
ROOT
HETATM    1  C   UNL     1      24.889  45.564  51.142  1.00  0.00     0.286 C 
HETATM    2  N   UNL     1      23.643  45.187  50.331  1.00  0.00    -0.056 N 
HETATM    3  H   UNL     1      23.749  44.211  49.993  1.00  0.00     0.278 HD
HETATM    4  H   UNL     1      22.824  45.191  50.952  1.00  0.00     0.278 HD
HETATM    5  C   UNL     1      23.384  46.052  49.124  1.00  0.00     0.209 C 
HETATM    6  C   UNL     1      23.432  47.534  49.538  1.00  0.00     0.115 C 
HETATM    7  N   UNL     1      24.699  47.859  50.171  1.00  0.00    -0.353 N 
HETATM    8  C   UNL     1      25.299  47.046  51.096  1.00  0.00     0.249 C 
HETATM    9  O   UNL     1      26.163  47.499  51.840  1.00  0.00    -0.271 OA
HETATM   10  C   UNL     1      22.034  45.688  48.515  1.00  0.00     0.035 C 
HETATM   11  C   UNL     1      21.742  46.580  47.308  1.00  0.00     0.002 C 
HETATM   12  C   UNL     1      21.844  48.067  47.650  1.00  0.00     0.002 C 
HETATM   13  C   UNL     1      23.173  48.421  48.319  1.00  0.00     0.027 C 
HETATM   14  H   UNL     1      24.968  48.838  50.263  1.00  0.00     0.163 HD
ENDROOT
BRANCH   1  15
HETATM   15  C   UNL     1      26.081  44.641  50.867  1.00  0.00     0.146 C 
BRANCH  15  16
HETATM   16  C   UNL     1      25.902  43.300  51.509  1.00  0.00     0.224 C 
HETATM   17  N   UNL     1      26.565  42.834  52.589  1.00  0.00    -0.327 N 
HETATM   18  H   UNL     1      26.229  41.900  52.818  1.00  0.00     0.169 HD
HETATM   19  O   UNL     1      25.147  42.508  50.919  1.00  0.00    -0.273 OA
BRANCH  17  20
HETATM   20  C   UNL     1      27.576  43.299  53.450  1.00  0.00     0.034 A 
HETATM   21  C   UNL     1      27.574  44.491  54.169  1.00  0.00     0.031 A 
HETATM   22  C   UNL     1      28.670  44.849  54.972  1.00  0.00     0.026 A 
HETATM   23  C   UNL     1      29.776  44.012  55.067  1.00  0.00     0.034 A 
HETATM   24  C   UNL     1      29.795  42.814  54.366  1.00  0.00     0.026 A 
HETATM   25 CL   UNL     1      31.113  44.462  56.045  1.00  0.00    -0.084 Cl
HETATM   26  C   UNL     1      28.702  42.463  53.567  1.00  0.00     0.031 A 
ENDBRANCH  17  20
ENDBRANCH  15  16
ENDBRANCH   1  15
TORSDOF 3
ENDMDL
MODEL 8
REMARK VINA RESULT:      -7.8     18.273     19.581
REMARK  3 active torsions:
REMARK  status: ('A' for Active; 'I' for Inactive)
REMARK    1  A    between atoms: C_2  and  N_3 
REMARK       I    between atoms: N_3  and  C_4 
REMARK    2  A    between atoms: C_4  and  C_5 
REMARK    3  A    between atoms: C_5  and  C_6 
ROOT
HETATM    1  C   UNL     1      39.820  45.151  64.393  1.00  0.00     0.286 C 
HETATM    2  N   UNL     1      38.653  45.766  65.176  1.00  0.00    -0.056 N 
HETATM    3  H   UNL     1      37.769  45.327  64.855  1.00  0.00     0.278 HD
HETATM    4  H   UNL     1      38.753  45.526  66.170  1.00  0.00     0.278 HD
HETATM    5  C   UNL     1      38.497  47.256  65.015  1.00  0.00     0.209 C 
HETATM    6  C   UNL     1      39.851  47.944  65.271  1.00  0.00     0.115 C 
HETATM    7  N   UNL     1      40.880  47.414  64.394  1.00  0.00    -0.353 N 
HETATM    8  C   UNL     1      41.022  46.076  64.137  1.00  0.00     0.249 C 
HETATM    9  O   UNL     1      42.079  45.648  63.683  1.00  0.00    -0.271 OA
HETATM   10  C   UNL     1      37.425  47.764  65.974  1.00  0.00     0.035 C 
HETATM   11  C   UNL     1      37.276  49.281  65.845  1.00  0.00     0.002 C 
HETATM   12  C   UNL     1      38.609  50.009  66.024  1.00  0.00     0.002 C 
HETATM   13  C   UNL     1      39.702  49.457  65.107  1.00  0.00     0.027 C 
HETATM   14  H   UNL     1      41.745  47.938  64.274  1.00  0.00     0.163 HD
ENDROOT
BRANCH   1  15
HETATM   15  C   UNL     1      39.369  44.443  63.110  1.00  0.00     0.146 C 
BRANCH  15  16
HETATM   16  C   UNL     1      38.042  43.773  63.284  1.00  0.00     0.224 C 
HETATM   17  N   UNL     1      37.831  42.457  63.504  1.00  0.00    -0.327 N 
HETATM   18  H   UNL     1      36.832  42.284  63.602  1.00  0.00     0.169 HD
HETATM   19  O   UNL     1      37.041  44.487  63.101  1.00  0.00    -0.273 OA
BRANCH  17  20
HETATM   20  C   UNL     1      38.621  41.299  63.624  1.00  0.00     0.034 A 
HETATM   21  C   UNL     1      39.132  40.528  62.584  1.00  0.00     0.031 A 
HETATM   22  C   UNL     1      39.884  39.371  62.849  1.00  0.00     0.026 A 
HETATM   23  C   UNL     1      40.137  38.980  64.158  1.00  0.00     0.034 A 
HETATM   24  C   UNL     1      39.646  39.740  65.211  1.00  0.00     0.026 A 
HETATM   25 CL   UNL     1      41.052  37.561  64.470  1.00  0.00    -0.084 Cl
HETATM   26  C   UNL     1      38.896  40.890  64.943  1.00  0.00     0.031 A 
ENDBRANCH  17  20
ENDBRANCH  15  16
ENDBRANCH   1  15
TORSDOF 3
ENDMDL
MODEL 9
REMARK VINA RESULT:      -7.6     10.602     12.152
REMARK  3 active torsions:
REMARK  status: ('A' for Active; 'I' for Inactive)
REMARK    1  A    between atoms: C_2  and  N_3 
REMARK       I    between atoms: N_3  and  C_4 
REMARK    2  A    between atoms: C_4  and  C_5 
REMARK    3  A    between atoms: C_5  and  C_6 
ROOT
HETATM    1  C   UNL     1      28.430  51.398  38.655  1.00  0.00     0.286 C 
HETATM    2  N   UNL     1      27.424  50.414  39.264  1.00  0.00    -0.056 N 
HETATM    3  H   UNL     1      26.841  50.920  39.958  1.00  0.00     0.278 HD
HETATM    4  H   UNL     1      26.784  50.091  38.528  1.00  0.00     0.278 HD
HETATM    5  C   UNL     1      28.039  49.234  39.972  1.00  0.00     0.209 C 
HETATM    6  C   UNL     1      29.081  48.571  39.052  1.00  0.00     0.115 C 
HETATM    7  N   UNL     1      30.088  49.528  38.628  1.00  0.00    -0.353 N 
HETATM    8  C   UNL     1      29.782  50.802  38.227  1.00  0.00     0.249 C 
HETATM    9  O   UNL     1      30.592  51.448  37.569  1.00  0.00    -0.271 OA
HETATM   10  C   UNL     1      26.944  48.250  40.371  1.00  0.00     0.035 C 
HETATM   11  C   UNL     1      27.556  47.031  41.063  1.00  0.00     0.002 C 
HETATM   12  C   UNL     1      28.647  46.375  40.217  1.00  0.00     0.002 C 
HETATM   13  C   UNL     1      29.713  47.373  39.763  1.00  0.00     0.027 C 
HETATM   14  H   UNL     1      30.962  49.184  38.234  1.00  0.00     0.163 HD
ENDROOT
BRANCH   1  15
HETATM   15  C   UNL     1      28.615  52.662  39.504  1.00  0.00     0.146 C 
BRANCH  15  16
HETATM   16  C   UNL     1      28.435  52.380  40.963  1.00  0.00     0.224 C 
HETATM   17  N   UNL     1      29.367  51.883  41.804  1.00  0.00    -0.327 N 
HETATM   18  H   UNL     1      28.977  51.813  42.742  1.00  0.00     0.169 HD
HETATM   19  O   UNL     1      27.283  52.521  41.409  1.00  0.00    -0.273 OA
BRANCH  17  20
HETATM   20  C   UNL     1      30.702  51.448  41.713  1.00  0.00     0.034 A 
HETATM   21  C   UNL     1      31.785  52.179  41.233  1.00  0.00     0.031 A 
HETATM   22  C   UNL     1      33.067  51.607  41.167  1.00  0.00     0.026 A 
HETATM   23  C   UNL     1      33.276  50.299  41.588  1.00  0.00     0.034 A 
HETATM   24  C   UNL     1      32.212  49.555  42.078  1.00  0.00     0.026 A 
HETATM   25 CL   UNL     1      34.844  49.607  41.497  1.00  0.00    -0.084 Cl
HETATM   26  C   UNL     1      30.937  50.128  42.141  1.00  0.00     0.031 A 
ENDBRANCH  17  20
ENDBRANCH  15  16
ENDBRANCH   1  15
TORSDOF 3
ENDMDL
MODEL 10
REMARK VINA RESULT:      -7.6     10.455     12.696
REMARK  3 active torsions:
REMARK  status: ('A' for Active; 'I' for Inactive)
REMARK    1  A    between atoms: C_2  and  N_3 
REMARK       I    between atoms: N_3  and  C_4 
REMARK    2  A    between atoms: C_4  and  C_5 
REMARK    3  A    between atoms: C_5  and  C_6 
ROOT
HETATM    1  C   UNL     1      27.855  47.441  39.245  1.00  0.00     0.286 C 
HETATM    2  N   UNL     1      28.176  47.908  40.670  1.00  0.00    -0.056 N 
HETATM    3  H   UNL     1      27.535  48.686  40.917  1.00  0.00     0.278 HD
HETATM    4  H   UNL     1      27.973  47.145  41.327  1.00  0.00     0.278 HD
HETATM    5  C   UNL     1      29.584  48.407  40.872  1.00  0.00     0.209 C 
HETATM    6  C   UNL     1      30.579  47.371  40.317  1.00  0.00     0.115 C 
HETATM    7  N   UNL     1      30.306  47.082  38.920  1.00  0.00    -0.353 N 
HETATM    8  C   UNL     1      29.040  46.894  38.432  1.00  0.00     0.249 C 
HETATM    9  O   UNL     1      28.877  46.329  37.354  1.00  0.00    -0.271 OA
HETATM   10  C   UNL     1      29.825  48.670  42.355  1.00  0.00     0.035 C 
HETATM   11  C   UNL     1      31.260  49.147  42.581  1.00  0.00     0.002 C 
HETATM   12  C   UNL     1      32.289  48.184  41.986  1.00  0.00     0.002 C 
HETATM   13  C   UNL     1      32.011  47.869  40.515  1.00  0.00     0.027 C 
HETATM   14  H   UNL     1      31.023  46.619  38.362  1.00  0.00     0.163 HD
ENDROOT
BRANCH   1  15
HETATM   15  C   UNL     1      27.052  48.474  38.446  1.00  0.00     0.146 C 
BRANCH  15  16
HETATM   16  C   UNL     1      26.116  49.247  39.323  1.00  0.00     0.224 C 
HETATM   17  N   UNL     1      26.368  50.432  39.917  1.00  0.00    -0.327 N 
HETATM   18  H   UNL     1      25.547  50.734  40.438  1.00  0.00     0.169 HD
HETATM   19  O   UNL     1      25.046  48.682  39.610  1.00  0.00    -0.273 OA
BRANCH  17  20
HETATM   20  C   UNL     1      27.451  51.328  39.998  1.00  0.00     0.034 A 
HETATM   21  C   UNL     1      28.156  51.881  38.933  1.00  0.00     0.031 A 
HETATM   22  C   UNL     1      29.243  52.742  39.159  1.00  0.00     0.026 A 
HETATM   23  C   UNL     1      29.630  53.061  40.455  1.00  0.00     0.034 A 
HETATM   24  C   UNL     1      28.936  52.528  41.532  1.00  0.00     0.026 A 
HETATM   25 CL   UNL     1      30.964  54.108  40.720  1.00  0.00    -0.084 Cl
HETATM   26  C   UNL     1      27.855  51.670  41.302  1.00  0.00     0.031 A 
ENDBRANCH  17  20
ENDBRANCH  15  16
ENDBRANCH   1  15
TORSDOF 3
ENDMDL
