MODEL 1
REMARK VINA RESULT:      -8.6      0.000      0.000
REMARK  7 active torsions:
REMARK  status: ('A' for Active; 'I' for Inactive)
REMARK    1  A    between atoms: C_3  and  N_4 
REMARK       I    between atoms: N_4  and  C_5 
REMARK    2  A    between atoms: C_5  and  C_6 
REMARK    3  A    between atoms: C_7  and  C_8 
REMARK    4  A    between atoms: C_19  and  C_20 
REMARK    5  A    between atoms: C_20  and  C_21 
REMARK    6  A    between atoms: C_21  and  C_22 
REMARK    7  A    between atoms: C_22  and  O_23 
ROOT
HETATM    1  C   UNL     1      26.732  42.532  52.328  1.00  0.00     0.062 C 
HETATM    2  C   UNL     1      25.502  43.300  51.829  1.00  0.00     0.202 C 
HETATM    3  N   UNL     1      24.886  42.613  50.686  1.00  0.00    -0.083 N 
HETATM    4  C   UNL     1      25.503  41.626  49.970  1.00  0.00     0.726 A 
HETATM    5  N   UNL     1      26.690  41.152  50.390  1.00  0.00    -0.192 N 
HETATM    6  N   UNL     1      23.696  42.947  50.143  1.00  0.00    -0.140 NA
HETATM    7  C   UNL     1      23.688  42.161  49.058  1.00  0.00     0.166 A 
HETATM    8  N   UNL     1      24.779  41.328  48.922  1.00  0.00    -0.046 NA
HETATM    9  C   UNL     1      27.299  41.553  51.574  1.00  0.00     0.037 C 
HETATM   10  C   UNL     1      28.606  40.865  51.886  1.00  0.00     0.070 C 
HETATM   11  H   UNL     1      27.137  40.414  49.851  1.00  0.00     0.184 HD
ENDROOT
BRANCH   1  12
HETATM   12  C   UNL     1      27.236  42.973  53.666  1.00  0.00     0.256 C 
HETATM   13  N   UNL     1      28.492  43.534  53.635  1.00  0.00    -0.323 N 
HETATM   14  H   UNL     1      29.051  43.321  52.820  1.00  0.00     0.169 HD
HETATM   15  O   UNL     1      26.604  42.693  54.675  1.00  0.00    -0.267 OA
BRANCH  13  16
HETATM   16  C   UNL     1      29.164  44.237  54.663  1.00  0.00     0.041 A 
HETATM   17  C   UNL     1      28.829  45.512  55.160  1.00  0.00    -0.035 A 
HETATM   18  C   UNL     1      27.714  46.379  54.640  1.00  0.00     0.050 C 
HETATM   19  C   UNL     1      29.608  46.062  56.200  1.00  0.00     0.009 A 
HETATM   20  C   UNL     1      30.728  45.400  56.700  1.00  0.00     0.001 A 
HETATM   21  C   UNL     1      31.091  44.172  56.168  1.00  0.00     0.002 A 
HETATM   22  C   UNL     1      30.318  43.600  55.157  1.00  0.00     0.030 A 
ENDBRANCH  13  16
ENDBRANCH   1  12
BRANCH   2  23
HETATM   23  C   UNL     1      25.806  44.743  51.420  1.00  0.00    -0.025 A 
HETATM   24  C   UNL     1      26.717  45.042  50.392  1.00  0.00     0.052 A 
HETATM   25  C   UNL     1      26.962  46.366  50.038  1.00  0.00     0.117 A 
HETATM   26  F   UNL     1      27.833  46.632  49.056  1.00  0.00    -0.206 F 
HETATM   27  C   UNL     1      26.319  47.413  50.685  1.00  0.00     0.042 A 
HETATM   28  C   UNL     1      25.411  47.133  51.703  1.00  0.00     0.004 A 
HETATM   29  C   UNL     1      25.154  45.809  52.068  1.00  0.00     0.010 A 
ENDBRANCH   2  23
BRANCH   7  30
HETATM   30  C   UNL     1      22.655  42.254  47.997  1.00  0.00     0.085 C 
BRANCH  30  31
HETATM   31  C   UNL     1      22.523  43.668  47.422  1.00  0.00     0.034 C 
BRANCH  31  32
HETATM   32  C   UNL     1      21.275  44.428  47.867  1.00  0.00     0.164 C 
BRANCH  32  33
HETATM   33  O   UNL     1      21.220  44.552  49.280  1.00  0.00    -0.401 OA
HETATM   34  H   UNL     1      20.929  43.683  49.623  1.00  0.00     0.209 HD
ENDBRANCH  32  33
ENDBRANCH  31  32
ENDBRANCH  30  31
ENDBRANCH   7  30
TORSDOF 7
ENDMDL
MODEL 2
REMARK VINA RESULT:      -8.5      2.457      4.172
REMARK  7 active torsions:
REMARK  status: ('A' for Active; 'I' for Inactive)
REMARK    1  A    between atoms: C_3  and  N_4 
REMARK       I    between atoms: N_4  and  C_5 
REMARK    2  A    between atoms: C_5  and  C_6 
REMARK    3  A    between atoms: C_7  and  C_8 
REMARK    4  A    between atoms: C_19  and  C_20 
REMARK    5  A    between atoms: C_20  and  C_21 
REMARK    6  A    between atoms: C_21  and  C_22 
REMARK    7  A    between atoms: C_22  and  O_23 
ROOT
HETATM    1  C   UNL     1      27.705  42.664  52.937  1.00  0.00     0.062 C 
HETATM    2  C   UNL     1      26.590  42.269  51.960  1.00  0.00     0.202 C 
HETATM    3  N   UNL     1      26.989  41.107  51.155  1.00  0.00    -0.083 N 
HETATM    4  C   UNL     1      28.276  40.656  51.057  1.00  0.00     0.726 A 
HETATM    5  N   UNL     1      29.228  41.211  51.828  1.00  0.00    -0.192 N 
HETATM    6  N   UNL     1      26.162  40.422  50.337  1.00  0.00    -0.140 NA
HETATM    7  C   UNL     1      27.035  39.609  49.725  1.00  0.00     0.166 A 
HETATM    8  N   UNL     1      28.343  39.719  50.147  1.00  0.00    -0.046 NA
HETATM    9  C   UNL     1      28.966  42.176  52.794  1.00  0.00     0.037 C 
HETATM   10  C   UNL     1      30.168  42.635  53.583  1.00  0.00     0.070 C 
HETATM   11  H   UNL     1      30.181  40.864  51.749  1.00  0.00     0.184 HD
ENDROOT
BRANCH   1  12
HETATM   12  C   UNL     1      27.281  43.622  54.004  1.00  0.00     0.256 C 
HETATM   13  N   UNL     1      27.670  44.922  53.779  1.00  0.00    -0.323 N 
HETATM   14  H   UNL     1      28.428  45.048  53.121  1.00  0.00     0.169 HD
HETATM   15  O   UNL     1      26.769  43.198  55.032  1.00  0.00    -0.267 OA
BRANCH  13  16
HETATM   16  C   UNL     1      27.261  46.092  54.461  1.00  0.00     0.041 A 
HETATM   17  C   UNL     1      26.309  47.029  54.015  1.00  0.00    -0.035 A 
HETATM   18  C   UNL     1      25.592  46.974  52.693  1.00  0.00     0.050 C 
HETATM   19  C   UNL     1      26.014  48.140  54.833  1.00  0.00     0.009 A 
HETATM   20  C   UNL     1      26.684  48.358  56.036  1.00  0.00     0.001 A 
HETATM   21  C   UNL     1      27.663  47.465  56.445  1.00  0.00     0.002 A 
HETATM   22  C   UNL     1      27.950  46.346  55.662  1.00  0.00     0.030 A 
ENDBRANCH  13  16
ENDBRANCH   1  12
BRANCH   2  23
HETATM   23  C   UNL     1      26.180  43.398  51.011  1.00  0.00    -0.025 A 
HETATM   24  C   UNL     1      27.123  44.301  50.489  1.00  0.00     0.052 A 
HETATM   25  C   UNL     1      26.716  45.309  49.620  1.00  0.00     0.117 A 
HETATM   26  F   UNL     1      27.627  46.161  49.132  1.00  0.00    -0.206 F 
HETATM   27  C   UNL     1      25.385  45.446  49.251  1.00  0.00     0.042 A 
HETATM   28  C   UNL     1      24.440  44.557  49.756  1.00  0.00     0.004 A 
HETATM   29  C   UNL     1      24.833  43.539  50.629  1.00  0.00     0.010 A 
ENDBRANCH   2  23
BRANCH   7  30
HETATM   30  C   UNL     1      26.666  38.739  48.581  1.00  0.00     0.085 C 
BRANCH  30  31
HETATM   31  C   UNL     1      27.426  37.409  48.580  1.00  0.00     0.034 C 
BRANCH  31  32
HETATM   32  C   UNL     1      27.092  36.478  49.744  1.00  0.00     0.164 C 
BRANCH  32  33
HETATM   33  O   UNL     1      28.161  36.413  50.677  1.00  0.00    -0.401 OA
HETATM   34  H   UNL     1      28.630  35.571  50.502  1.00  0.00     0.209 HD
ENDBRANCH  32  33
ENDBRANCH  31  32
ENDBRANCH  30  31
ENDBRANCH   7  30
TORSDOF 7
ENDMDL
MODEL 3
REMARK VINA RESULT:      -8.2      3.345      8.121
REMARK  7 active torsions:
REMARK  status: ('A' for Active; 'I' for Inactive)
REMARK    1  A    between atoms: C_3  and  N_4 
REMARK       I    between atoms: N_4  and  C_5 
REMARK    2  A    between atoms: C_5  and  C_6 
REMARK    3  A    between atoms: C_7  and  C_8 
REMARK    4  A    between atoms: C_19  and  C_20 
REMARK    5  A    between atoms: C_20  and  C_21 
REMARK    6  A    between atoms: C_21  and  C_22 
REMARK    7  A    between atoms: C_22  and  O_23 
ROOT
HETATM    1  C   UNL     1      24.352  46.586  50.046  1.00  0.00     0.062 C 
HETATM    2  C   UNL     1      24.079  45.306  50.846  1.00  0.00     0.202 C 
HETATM    3  N   UNL     1      25.028  45.174  51.959  1.00  0.00    -0.083 N 
HETATM    4  C   UNL     1      26.181  45.901  52.064  1.00  0.00     0.726 A 
HETATM    5  N   UNL     1      26.421  46.886  51.180  1.00  0.00    -0.192 N 
HETATM    6  N   UNL     1      24.935  44.252  52.940  1.00  0.00    -0.140 NA
HETATM    7  C   UNL     1      26.104  44.437  53.568  1.00  0.00     0.166 A 
HETATM    8  N   UNL     1      26.894  45.448  53.063  1.00  0.00    -0.046 NA
HETATM    9  C   UNL     1      25.516  47.272  50.199  1.00  0.00     0.037 C 
HETATM   10  C   UNL     1      25.958  48.430  49.339  1.00  0.00     0.070 C 
HETATM   11  H   UNL     1      27.281  47.422  51.272  1.00  0.00     0.184 HD
ENDROOT
BRANCH   1  12
HETATM   12  C   UNL     1      23.258  46.968  49.099  1.00  0.00     0.256 C 
HETATM   13  N   UNL     1      22.460  47.994  49.549  1.00  0.00    -0.323 N 
HETATM   14  H   UNL     1      22.484  48.169  50.545  1.00  0.00     0.169 HD
HETATM   15  O   UNL     1      23.054  46.289  48.103  1.00  0.00    -0.267 OA
BRANCH  13  16
HETATM   16  C   UNL     1      21.490  48.732  48.830  1.00  0.00     0.041 A 
HETATM   17  C   UNL     1      21.719  49.900  48.077  1.00  0.00    -0.035 A 
HETATM   18  C   UNL     1      23.043  50.603  47.949  1.00  0.00     0.050 C 
HETATM   19  C   UNL     1      20.630  50.504  47.412  1.00  0.00     0.009 A 
HETATM   20  C   UNL     1      19.335  50.005  47.533  1.00  0.00     0.001 A 
HETATM   21  C   UNL     1      19.102  48.889  48.323  1.00  0.00     0.002 A 
HETATM   22  C   UNL     1      20.170  48.263  48.967  1.00  0.00     0.030 A 
ENDBRANCH  13  16
ENDBRANCH   1  12
BRANCH   2  23
HETATM   23  C   UNL     1      24.140  44.031  50.002  1.00  0.00    -0.025 A 
HETATM   24  C   UNL     1      25.348  43.572  49.447  1.00  0.00     0.052 A 
HETATM   25  C   UNL     1      25.370  42.402  48.693  1.00  0.00     0.117 A 
HETATM   26  F   UNL     1      26.529  41.980  48.172  1.00  0.00    -0.206 F 
HETATM   27  C   UNL     1      24.213  41.667  48.474  1.00  0.00     0.042 A 
HETATM   28  C   UNL     1      23.009  42.106  49.020  1.00  0.00     0.004 A 
HETATM   29  C   UNL     1      22.972  43.279  49.780  1.00  0.00     0.010 A 
ENDBRANCH   2  23
BRANCH   7  30
HETATM   30  C   UNL     1      26.593  43.545  54.649  1.00  0.00     0.085 C 
BRANCH  30  31
HETATM   31  C   UNL     1      27.968  42.942  54.342  1.00  0.00     0.034 C 
BRANCH  31  32
HETATM   32  C   UNL     1      27.994  41.970  53.164  1.00  0.00     0.164 C 
BRANCH  32  33
HETATM   33  O   UNL     1      27.390  40.730  53.503  1.00  0.00    -0.401 OA
HETATM   34  H   UNL     1      27.955  40.326  54.193  1.00  0.00     0.209 HD
ENDBRANCH  32  33
ENDBRANCH  31  32
ENDBRANCH  30  31
ENDBRANCH   7  30
TORSDOF 7
ENDMDL
MODEL 4
REMARK VINA RESULT:      -8.2      1.730      2.362
REMARK  7 active torsions:
REMARK  status: ('A' for Active; 'I' for Inactive)
REMARK    1  A    between atoms: C_3  and  N_4 
REMARK       I    between atoms: N_4  and  C_5 
REMARK    2  A    between atoms: C_5  and  C_6 
REMARK    3  A    between atoms: C_7  and  C_8 
REMARK    4  A    between atoms: C_19  and  C_20 
REMARK    5  A    between atoms: C_20  and  C_21 
REMARK    6  A    between atoms: C_21  and  C_22 
REMARK    7  A    between atoms: C_22  and  O_23 
ROOT
HETATM    1  C   UNL     1      25.074  43.679  51.432  1.00  0.00     0.062 C 
HETATM    2  C   UNL     1      24.113  44.649  50.733  1.00  0.00     0.202 C 
HETATM    3  N   UNL     1      23.466  44.004  49.582  1.00  0.00    -0.083 N 
HETATM    4  C   UNL     1      23.900  42.834  49.023  1.00  0.00     0.726 A 
HETATM    5  N   UNL     1      24.897  42.152  49.616  1.00  0.00    -0.192 N 
HETATM    6  N   UNL     1      22.446  44.539  48.878  1.00  0.00    -0.140 NA
HETATM    7  C   UNL     1      22.359  43.667  47.864  1.00  0.00     0.166 A 
HETATM    8  N   UNL     1      23.232  42.601  47.923  1.00  0.00    -0.046 NA
HETATM    9  C   UNL     1      25.466  42.525  50.828  1.00  0.00     0.037 C 
HETATM   10  C   UNL     1      26.537  41.597  51.345  1.00  0.00     0.070 C 
HETATM   11  H   UNL     1      25.208  41.281  49.192  1.00  0.00     0.184 HD
ENDROOT
BRANCH   1  12
HETATM   12  C   UNL     1      25.536  44.131  52.781  1.00  0.00     0.256 C 
HETATM   13  N   UNL     1      26.881  44.409  52.850  1.00  0.00    -0.323 N 
HETATM   14  H   UNL     1      27.454  44.005  52.121  1.00  0.00     0.169 HD
HETATM   15  O   UNL     1      24.765  44.089  53.731  1.00  0.00    -0.267 OA
BRANCH  13  16
HETATM   16  C   UNL     1      27.592  45.050  53.891  1.00  0.00     0.041 A 
HETATM   17  C   UNL     1      27.367  46.353  54.377  1.00  0.00    -0.035 A 
HETATM   18  C   UNL     1      26.352  47.319  53.829  1.00  0.00     0.050 C 
HETATM   19  C   UNL     1      28.171  46.832  55.434  1.00  0.00     0.009 A 
HETATM   20  C   UNL     1      29.211  46.070  55.962  1.00  0.00     0.001 A 
HETATM   21  C   UNL     1      29.469  44.811  55.442  1.00  0.00     0.002 A 
HETATM   22  C   UNL     1      28.669  44.309  54.414  1.00  0.00     0.030 A 
ENDBRANCH  13  16
ENDBRANCH   1  12
BRANCH   2  23
HETATM   23  C   UNL     1      24.785  45.936  50.252  1.00  0.00    -0.025 A 
HETATM   24  C   UNL     1      24.050  47.115  50.033  1.00  0.00     0.052 A 
HETATM   25  C   UNL     1      24.695  48.271  49.606  1.00  0.00     0.117 A 
HETATM   26  F   UNL     1      23.979  49.385  49.403  1.00  0.00    -0.206 F 
HETATM   27  C   UNL     1      26.066  48.290  49.388  1.00  0.00     0.042 A 
HETATM   28  C   UNL     1      26.810  47.132  49.603  1.00  0.00     0.004 A 
HETATM   29  C   UNL     1      26.175  45.963  50.033  1.00  0.00     0.010 A 
ENDBRANCH   2  23
BRANCH   7  30
HETATM   30  C   UNL     1      21.484  43.880  46.685  1.00  0.00     0.085 C 
BRANCH  30  31
HETATM   31  C   UNL     1      20.580  45.108  46.833  1.00  0.00     0.034 C 
BRANCH  31  32
HETATM   32  C   UNL     1      19.171  44.811  47.341  1.00  0.00     0.164 C 
BRANCH  32  33
HETATM   33  O   UNL     1      19.141  44.709  48.757  1.00  0.00    -0.401 OA
HETATM   34  H   UNL     1      19.776  45.373  49.095  1.00  0.00     0.209 HD
ENDBRANCH  32  33
ENDBRANCH  31  32
ENDBRANCH  30  31
ENDBRANCH   7  30
TORSDOF 7
ENDMDL
MODEL 5
REMARK VINA RESULT:      -8.1     12.284     13.144
REMARK  7 active torsions:
REMARK  status: ('A' for Active; 'I' for Inactive)
REMARK    1  A    between atoms: C_3  and  N_4 
REMARK       I    between atoms: N_4  and  C_5 
REMARK    2  A    between atoms: C_5  and  C_6 
REMARK    3  A    between atoms: C_7  and  C_8 
REMARK    4  A    between atoms: C_19  and  C_20 
REMARK    5  A    between atoms: C_20  and  C_21 
REMARK    6  A    between atoms: C_21  and  C_22 
REMARK    7  A    between atoms: C_22  and  O_23 
ROOT
HETATM    1  C   UNL     1      29.813  48.529  41.002  1.00  0.00     0.062 C 
HETATM    2  C   UNL     1      28.510  49.337  40.994  1.00  0.00     0.202 C 
HETATM    3  N   UNL     1      27.496  48.685  40.155  1.00  0.00    -0.083 N 
HETATM    4  C   UNL     1      27.777  47.693  39.257  1.00  0.00     0.726 A 
HETATM    5  N   UNL     1      29.020  47.181  39.208  1.00  0.00    -0.192 N 
HETATM    6  N   UNL     1      26.201  49.058  40.088  1.00  0.00    -0.140 NA
HETATM    7  C   UNL     1      25.771  48.289  39.078  1.00  0.00     0.166 A 
HETATM    8  N   UNL     1      26.710  47.431  38.546  1.00  0.00    -0.046 NA
HETATM    9  C   UNL     1      30.033  47.547  40.087  1.00  0.00     0.037 C 
HETATM   10  C   UNL     1      31.342  46.820  39.894  1.00  0.00     0.070 C 
HETATM   11  H   UNL     1      29.215  46.441  38.539  1.00  0.00     0.184 HD
ENDROOT
BRANCH   1  12
HETATM   12  C   UNL     1      30.786  48.935  42.063  1.00  0.00     0.256 C 
HETATM   13  N   UNL     1      31.718  49.857  41.646  1.00  0.00    -0.323 N 
HETATM   14  H   UNL     1      31.850  49.930  40.646  1.00  0.00     0.169 HD
HETATM   15  O   UNL     1      30.791  48.350  43.137  1.00  0.00    -0.267 OA
BRANCH  13  16
HETATM   16  C   UNL     1      32.629  50.601  42.432  1.00  0.00     0.041 A 
HETATM   17  C   UNL     1      34.017  50.714  42.220  1.00  0.00    -0.035 A 
HETATM   18  C   UNL     1      34.788  50.010  41.136  1.00  0.00     0.050 C 
HETATM   19  C   UNL     1      34.777  51.511  43.103  1.00  0.00     0.009 A 
HETATM   20  C   UNL     1      34.195  52.134  44.205  1.00  0.00     0.001 A 
HETATM   21  C   UNL     1      32.839  51.973  44.446  1.00  0.00     0.002 A 
HETATM   22  C   UNL     1      32.067  51.211  43.570  1.00  0.00     0.030 A 
ENDBRANCH  13  16
ENDBRANCH   1  12
BRANCH   2  23
HETATM   23  C   UNL     1      28.686  50.778  40.509  1.00  0.00    -0.025 A 
HETATM   24  C   UNL     1      28.932  51.076  39.158  1.00  0.00     0.052 A 
HETATM   25  C   UNL     1      29.077  52.399  38.750  1.00  0.00     0.117 A 
HETATM   26  F   UNL     1      29.311  52.665  37.458  1.00  0.00    -0.206 F 
HETATM   27  C   UNL     1      28.981  53.445  39.657  1.00  0.00     0.042 A 
HETATM   28  C   UNL     1      28.733  53.167  40.999  1.00  0.00     0.004 A 
HETATM   29  C   UNL     1      28.585  51.843  41.423  1.00  0.00     0.010 A 
ENDBRANCH   2  23
BRANCH   7  30
HETATM   30  C   UNL     1      24.423  48.427  38.472  1.00  0.00     0.085 C 
BRANCH  30  31
HETATM   31  C   UNL     1      23.407  49.063  39.426  1.00  0.00     0.034 C 
BRANCH  31  32
HETATM   32  C   UNL     1      22.682  50.287  38.869  1.00  0.00     0.164 C 
BRANCH  32  33
HETATM   33  O   UNL     1      23.555  51.097  38.095  1.00  0.00    -0.401 OA
HETATM   34  H   UNL     1      23.859  50.540  37.348  1.00  0.00     0.209 HD
ENDBRANCH  32  33
ENDBRANCH  31  32
ENDBRANCH  30  31
ENDBRANCH   7  30
TORSDOF 7
ENDMDL
MODEL 6
REMARK VINA RESULT:      -8.0      1.499      2.300
REMARK  7 active torsions:
REMARK  status: ('A' for Active; 'I' for Inactive)
REMARK    1  A    between atoms: C_3  and  N_4 
REMARK       I    between atoms: N_4  and  C_5 
REMARK    2  A    between atoms: C_5  and  C_6 
REMARK    3  A    between atoms: C_7  and  C_8 
REMARK    4  A    between atoms: C_19  and  C_20 
REMARK    5  A    between atoms: C_20  and  C_21 
REMARK    6  A    between atoms: C_21  and  C_22 
REMARK    7  A    between atoms: C_22  and  O_23 
ROOT
HETATM    1  C   UNL     1      25.354  43.575  51.348  1.00  0.00     0.062 C 
HETATM    2  C   UNL     1      24.458  44.607  50.653  1.00  0.00     0.202 C 
HETATM    3  N   UNL     1      23.808  44.023  49.472  1.00  0.00    -0.083 N 
HETATM    4  C   UNL     1      24.199  42.848  48.893  1.00  0.00     0.726 A 
HETATM    5  N   UNL     1      25.147  42.104  49.490  1.00  0.00    -0.192 N 
HETATM    6  N   UNL     1      22.832  44.624  48.760  1.00  0.00    -0.140 NA
HETATM    7  C   UNL     1      22.727  43.783  47.722  1.00  0.00     0.166 A 
HETATM    8  N   UNL     1      23.546  42.675  47.773  1.00  0.00    -0.046 NA
HETATM    9  C   UNL     1      25.704  42.419  50.724  1.00  0.00     0.037 C 
HETATM   10  C   UNL     1      26.718  41.427  51.241  1.00  0.00     0.070 C 
HETATM   11  H   UNL     1      25.426  41.229  49.051  1.00  0.00     0.184 HD
ENDROOT
BRANCH   1  12
HETATM   12  C   UNL     1      25.805  43.971  52.719  1.00  0.00     0.256 C 
HETATM   13  N   UNL     1      27.153  44.231  52.813  1.00  0.00    -0.323 N 
HETATM   14  H   UNL     1      27.729  43.850  52.075  1.00  0.00     0.169 HD
HETATM   15  O   UNL     1      25.024  43.900  53.658  1.00  0.00    -0.267 OA
BRANCH  13  16
HETATM   16  C   UNL     1      27.859  44.825  53.886  1.00  0.00     0.041 A 
HETATM   17  C   UNL     1      28.914  44.243  54.615  1.00  0.00    -0.035 A 
HETATM   18  C   UNL     1      29.444  42.850  54.409  1.00  0.00     0.050 C 
HETATM   19  C   UNL     1      29.513  44.988  55.653  1.00  0.00     0.009 A 
HETATM   20  C   UNL     1      29.046  46.252  56.007  1.00  0.00     0.001 A 
HETATM   21  C   UNL     1      27.969  46.798  55.327  1.00  0.00     0.002 A 
HETATM   22  C   UNL     1      27.380  46.089  54.280  1.00  0.00     0.030 A 
ENDBRANCH  13  16
ENDBRANCH   1  12
BRANCH   2  23
HETATM   23  C   UNL     1      25.203  45.872  50.220  1.00  0.00    -0.025 A 
HETATM   24  C   UNL     1      26.522  45.822  49.738  1.00  0.00     0.052 A 
HETATM   25  C   UNL     1      27.166  46.991  49.343  1.00  0.00     0.117 A 
HETATM   26  F   UNL     1      28.423  46.925  48.886  1.00  0.00    -0.206 F 
HETATM   27  C   UNL     1      26.528  48.222  49.414  1.00  0.00     0.042 A 
HETATM   28  C   UNL     1      25.219  48.288  49.886  1.00  0.00     0.004 A 
HETATM   29  C   UNL     1      24.560  47.122  50.285  1.00  0.00     0.010 A 
ENDBRANCH   2  23
BRANCH   7  30
HETATM   30  C   UNL     1      21.892  44.068  46.529  1.00  0.00     0.085 C 
BRANCH  30  31
HETATM   31  C   UNL     1      20.750  45.046  46.826  1.00  0.00     0.034 C 
BRANCH  31  32
HETATM   32  C   UNL     1      20.956  46.458  46.280  1.00  0.00     0.164 C 
BRANCH  32  33
HETATM   33  O   UNL     1      22.025  47.118  46.942  1.00  0.00    -0.401 OA
HETATM   34  H   UNL     1      22.510  46.428  47.440  1.00  0.00     0.209 HD
ENDBRANCH  32  33
ENDBRANCH  31  32
ENDBRANCH  30  31
ENDBRANCH   7  30
TORSDOF 7
ENDMDL
MODEL 7
REMARK VINA RESULT:      -7.8      4.614      8.910
REMARK  7 active torsions:
REMARK  status: ('A' for Active; 'I' for Inactive)
REMARK    1  A    between atoms: C_3  and  N_4 
REMARK       I    between atoms: N_4  and  C_5 
REMARK    2  A    between atoms: C_5  and  C_6 
REMARK    3  A    between atoms: C_7  and  C_8 
REMARK    4  A    between atoms: C_19  and  C_20 
REMARK    5  A    between atoms: C_20  and  C_21 
REMARK    6  A    between atoms: C_21  and  C_22 
REMARK    7  A    between atoms: C_22  and  O_23 
ROOT
HETATM    1  C   UNL     1      23.485  48.239  49.052  1.00  0.00     0.062 C 
HETATM    2  C   UNL     1      23.305  46.883  49.747  1.00  0.00     0.202 C 
HETATM    3  N   UNL     1      24.543  46.476  50.425  1.00  0.00    -0.083 N 
HETATM    4  C   UNL     1      25.761  47.052  50.193  1.00  0.00     0.726 A 
HETATM    5  N   UNL     1      25.836  48.135  49.398  1.00  0.00    -0.192 N 
HETATM    6  N   UNL     1      24.647  45.424  51.263  1.00  0.00    -0.140 NA
HETATM    7  C   UNL     1      25.974  45.383  51.449  1.00  0.00     0.166 A 
HETATM    8  N   UNL     1      26.692  46.373  50.812  1.00  0.00    -0.046 NA
HETATM    9  C   UNL     1      24.722  48.766  48.856  1.00  0.00     0.037 C 
HETATM   10  C   UNL     1      25.021  49.994  48.031  1.00  0.00     0.070 C 
HETATM   11  H   UNL     1      26.748  48.557  49.237  1.00  0.00     0.184 HD
ENDROOT
BRANCH   1  12
HETATM   12  C   UNL     1      22.208  48.880  48.609  1.00  0.00     0.256 C 
HETATM   13  N   UNL     1      21.463  49.414  49.635  1.00  0.00    -0.323 N 
HETATM   14  H   UNL     1      21.674  49.069  50.561  1.00  0.00     0.169 HD
HETATM   15  O   UNL     1      21.846  48.770  47.446  1.00  0.00    -0.267 OA
BRANCH  13  16
HETATM   16  C   UNL     1      20.334  50.263  49.549  1.00  0.00     0.041 A 
HETATM   17  C   UNL     1      19.073  50.039  50.137  1.00  0.00    -0.035 A 
HETATM   18  C   UNL     1      18.690  48.815  50.925  1.00  0.00     0.050 C 
HETATM   19  C   UNL     1      18.058  51.002  49.956  1.00  0.00     0.009 A 
HETATM   20  C   UNL     1      18.258  52.131  49.164  1.00  0.00     0.001 A 
HETATM   21  C   UNL     1      19.480  52.320  48.538  1.00  0.00     0.002 A 
HETATM   22  C   UNL     1      20.505  51.392  48.726  1.00  0.00     0.030 A 
ENDBRANCH  13  16
ENDBRANCH   1  12
BRANCH   2  23
HETATM   23  C   UNL     1      22.880  45.761  48.799  1.00  0.00    -0.025 A 
HETATM   24  C   UNL     1      21.529  45.537  48.479  1.00  0.00     0.052 A 
HETATM   25  C   UNL     1      21.178  44.514  47.604  1.00  0.00     0.117 A 
HETATM   26  F   UNL     1      19.887  44.315  47.312  1.00  0.00    -0.206 F 
HETATM   27  C   UNL     1      22.143  43.697  47.031  1.00  0.00     0.042 A 
HETATM   28  C   UNL     1      23.486  43.907  47.334  1.00  0.00     0.004 A 
HETATM   29  C   UNL     1      23.853  44.933  48.210  1.00  0.00     0.010 A 
ENDBRANCH   2  23
BRANCH   7  30
HETATM   30  C   UNL     1      26.656  44.284  52.175  1.00  0.00     0.085 C 
BRANCH  30  31
HETATM   31  C   UNL     1      26.962  44.639  53.634  1.00  0.00     0.034 C 
BRANCH  31  32
HETATM   32  C   UNL     1      26.017  44.012  54.659  1.00  0.00     0.164 C 
BRANCH  32  33
HETATM   33  O   UNL     1      24.721  43.812  54.114  1.00  0.00    -0.401 OA
HETATM   34  H   UNL     1      24.303  43.105  54.647  1.00  0.00     0.209 HD
ENDBRANCH  32  33
ENDBRANCH  31  32
ENDBRANCH  30  31
ENDBRANCH   7  30
TORSDOF 7
ENDMDL
MODEL 8
REMARK VINA RESULT:      -7.6      1.788      2.164
REMARK  7 active torsions:
REMARK  status: ('A' for Active; 'I' for Inactive)
REMARK    1  A    between atoms: C_3  and  N_4 
REMARK       I    between atoms: N_4  and  C_5 
REMARK    2  A    between atoms: C_5  and  C_6 
REMARK    3  A    between atoms: C_7  and  C_8 
REMARK    4  A    between atoms: C_19  and  C_20 
REMARK    5  A    between atoms: C_20  and  C_21 
REMARK    6  A    between atoms: C_21  and  C_22 
REMARK    7  A    between atoms: C_22  and  O_23 
ROOT
HETATM    1  C   UNL     1      26.984  42.264  52.231  1.00  0.00     0.062 C 
HETATM    2  C   UNL     1      25.748  42.864  51.549  1.00  0.00     0.202 C 
HETATM    3  N   UNL     1      25.305  42.018  50.433  1.00  0.00    -0.083 N 
HETATM    4  C   UNL     1      26.070  41.029  49.879  1.00  0.00     0.726 A 
HETATM    5  N   UNL     1      27.246  40.710  50.448  1.00  0.00    -0.192 N 
HETATM    6  N   UNL     1      24.150  42.187  49.756  1.00  0.00    -0.140 NA
HETATM    7  C   UNL     1      24.314  41.305  48.760  1.00  0.00     0.166 A 
HETATM    8  N   UNL     1      25.479  40.568  48.807  1.00  0.00    -0.046 NA
HETATM    9  C   UNL     1      27.702  41.275  51.634  1.00  0.00     0.037 C 
HETATM   10  C   UNL     1      29.025  40.744  52.129  1.00  0.00     0.070 C 
HETATM   11  H   UNL     1      27.804  39.970  50.029  1.00  0.00     0.184 HD
ENDROOT
BRANCH   1  12
HETATM   12  C   UNL     1      27.317  42.874  53.556  1.00  0.00     0.256 C 
HETATM   13  N   UNL     1      28.583  43.408  53.626  1.00  0.00    -0.323 N 
HETATM   14  H   UNL     1      29.240  43.079  52.931  1.00  0.00     0.169 HD
HETATM   15  O   UNL     1      26.545  42.741  54.495  1.00  0.00    -0.267 OA
BRANCH  13  16
HETATM   16  C   UNL     1      29.133  44.233  54.635  1.00  0.00     0.041 A 
HETATM   17  C   UNL     1      28.650  45.494  55.037  1.00  0.00    -0.035 A 
HETATM   18  C   UNL     1      27.482  46.212  54.419  1.00  0.00     0.050 C 
HETATM   19  C   UNL     1      29.321  46.179  56.073  1.00  0.00     0.009 A 
HETATM   20  C   UNL     1      30.476  45.663  56.659  1.00  0.00     0.001 A 
HETATM   21  C   UNL     1      30.983  44.450  56.220  1.00  0.00     0.002 A 
HETATM   22  C   UNL     1      30.319  43.745  55.215  1.00  0.00     0.030 A 
ENDBRANCH  13  16
ENDBRANCH   1  12
BRANCH   2  23
HETATM   23  C   UNL     1      25.968  44.284  51.023  1.00  0.00    -0.025 A 
HETATM   24  C   UNL     1      25.113  45.343  51.378  1.00  0.00     0.052 A 
HETATM   25  C   UNL     1      25.349  46.624  50.890  1.00  0.00     0.117 A 
HETATM   26  F   UNL     1      24.524  47.620  51.239  1.00  0.00    -0.206 F 
HETATM   27  C   UNL     1      26.423  46.887  50.051  1.00  0.00     0.042 A 
HETATM   28  C   UNL     1      27.282  45.850  49.693  1.00  0.00     0.004 A 
HETATM   29  C   UNL     1      27.058  44.558  50.176  1.00  0.00     0.010 A 
ENDBRANCH   2  23
BRANCH   7  30
HETATM   30  C   UNL     1      23.384  41.201  47.608  1.00  0.00     0.085 C 
BRANCH  30  31
HETATM   31  C   UNL     1      23.804  40.123  46.604  1.00  0.00     0.034 C 
BRANCH  31  32
HETATM   32  C   UNL     1      24.394  40.656  45.299  1.00  0.00     0.164 C 
BRANCH  32  33
HETATM   33  O   UNL     1      23.541  40.386  44.197  1.00  0.00    -0.401 OA
HETATM   34  H   UNL     1      23.074  39.550  44.406  1.00  0.00     0.209 HD
ENDBRANCH  32  33
ENDBRANCH  31  32
ENDBRANCH  30  31
ENDBRANCH   7  30
TORSDOF 7
ENDMDL
MODEL 9
REMARK VINA RESULT:      -7.5      6.151     11.148
REMARK  7 active torsions:
REMARK  status: ('A' for Active; 'I' for Inactive)
REMARK    1  A    between atoms: C_3  and  N_4 
REMARK       I    between atoms: N_4  and  C_5 
REMARK    2  A    between atoms: C_5  and  C_6 
REMARK    3  A    between atoms: C_7  and  C_8 
REMARK    4  A    between atoms: C_19  and  C_20 
REMARK    5  A    between atoms: C_20  and  C_21 
REMARK    6  A    between atoms: C_21  and  C_22 
REMARK    7  A    between atoms: C_22  and  O_23 
ROOT
HETATM    1  C   UNL     1      20.323  47.095  47.208  1.00  0.00     0.062 C 
HETATM    2  C   UNL     1      21.235  48.282  47.542  1.00  0.00     0.202 C 
HETATM    3  N   UNL     1      22.458  47.826  48.217  1.00  0.00    -0.083 N 
HETATM    4  C   UNL     1      22.607  46.580  48.760  1.00  0.00     0.726 A 
HETATM    5  N   UNL     1      21.643  45.661  48.571  1.00  0.00    -0.192 N 
HETATM    6  N   UNL     1      23.526  48.609  48.477  1.00  0.00    -0.140 NA
HETATM    7  C   UNL     1      24.258  47.786  49.241  1.00  0.00     0.166 A 
HETATM    8  N   UNL     1      23.729  46.527  49.430  1.00  0.00    -0.046 NA
HETATM    9  C   UNL     1      20.525  45.876  47.774  1.00  0.00     0.037 C 
HETATM   10  C   UNL     1      19.587  44.699  47.655  1.00  0.00     0.070 C 
HETATM   11  H   UNL     1      21.768  44.736  48.977  1.00  0.00     0.184 HD
ENDROOT
BRANCH   1  12
HETATM   12  C   UNL     1      19.217  47.416  46.252  1.00  0.00     0.256 C 
HETATM   13  N   UNL     1      17.991  47.589  46.850  1.00  0.00    -0.323 N 
HETATM   14  H   UNL     1      17.892  47.198  47.777  1.00  0.00     0.169 HD
HETATM   15  O   UNL     1      19.423  47.363  45.047  1.00  0.00    -0.267 OA
BRANCH  13  16
HETATM   16  C   UNL     1      16.801  48.102  46.281  1.00  0.00     0.041 A 
HETATM   17  C   UNL     1      16.229  49.363  46.537  1.00  0.00    -0.035 A 
HETATM   18  C   UNL     1      16.763  50.375  47.513  1.00  0.00     0.050 C 
HETATM   19  C   UNL     1      15.036  49.716  45.869  1.00  0.00     0.009 A 
HETATM   20  C   UNL     1      14.389  48.825  45.015  1.00  0.00     0.001 A 
HETATM   21  C   UNL     1      14.923  47.562  44.810  1.00  0.00     0.002 A 
HETATM   22  C   UNL     1      16.115  47.204  45.441  1.00  0.00     0.030 A 
ENDBRANCH  13  16
ENDBRANCH   1  12
BRANCH   2  23
HETATM   23  C   UNL     1      20.565  49.342  48.418  1.00  0.00    -0.025 A 
HETATM   24  C   UNL     1      19.893  49.000  49.605  1.00  0.00     0.052 A 
HETATM   25  C   UNL     1      19.303  49.991  50.384  1.00  0.00     0.117 A 
HETATM   26  F   UNL     1      18.667  49.648  51.511  1.00  0.00    -0.206 F 
HETATM   27  C   UNL     1      19.365  51.328  50.013  1.00  0.00     0.042 A 
HETATM   28  C   UNL     1      20.030  51.683  48.842  1.00  0.00     0.004 A 
HETATM   29  C   UNL     1      20.628  50.699  48.051  1.00  0.00     0.010 A 
ENDBRANCH   2  23
BRANCH   7  30
HETATM   30  C   UNL     1      25.488  48.218  49.949  1.00  0.00     0.085 C 
BRANCH  30  31
HETATM   31  C   UNL     1      26.660  48.475  48.997  1.00  0.00     0.034 C 
BRANCH  31  32
HETATM   32  C   UNL     1      26.802  49.922  48.529  1.00  0.00     0.164 C 
BRANCH  32  33
HETATM   33  O   UNL     1      25.971  50.187  47.408  1.00  0.00    -0.401 OA
HETATM   34  H   UNL     1      26.015  51.153  47.253  1.00  0.00     0.209 HD
ENDBRANCH  32  33
ENDBRANCH  31  32
ENDBRANCH  30  31
ENDBRANCH   7  30
TORSDOF 7
ENDMDL
MODEL 10
REMARK VINA RESULT:      -7.5     13.244     16.002
REMARK  7 active torsions:
REMARK  status: ('A' for Active; 'I' for Inactive)
REMARK    1  A    between atoms: C_3  and  N_4 
REMARK       I    between atoms: N_4  and  C_5 
REMARK    2  A    between atoms: C_5  and  C_6 
REMARK    3  A    between atoms: C_7  and  C_8 
REMARK    4  A    between atoms: C_19  and  C_20 
REMARK    5  A    between atoms: C_20  and  C_21 
REMARK    6  A    between atoms: C_21  and  C_22 
REMARK    7  A    between atoms: C_22  and  O_23 
ROOT
HETATM    1  C   UNL     1      31.874  49.439  40.098  1.00  0.00     0.062 C 
HETATM    2  C   UNL     1      32.112  50.703  39.262  1.00  0.00     0.202 C 
HETATM    3  N   UNL     1      33.438  51.270  39.540  1.00  0.00    -0.083 N 
HETATM    4  C   UNL     1      34.204  50.920  40.617  1.00  0.00     0.726 A 
HETATM    5  N   UNL     1      33.800  49.913  41.412  1.00  0.00    -0.192 N 
HETATM    6  N   UNL     1      34.004  52.274  38.838  1.00  0.00    -0.140 NA
HETATM    7  C   UNL     1      35.086  52.525  39.589  1.00  0.00     0.166 A 
HETATM    8  N   UNL     1      35.247  51.707  40.687  1.00  0.00    -0.046 NA
HETATM    9  C   UNL     1      32.675  49.138  41.155  1.00  0.00     0.037 C 
HETATM   10  C   UNL     1      32.423  48.027  42.145  1.00  0.00     0.070 C 
HETATM   11  H   UNL     1      34.381  49.659  42.207  1.00  0.00     0.184 HD
ENDROOT
BRANCH   1  12
HETATM   12  C   UNL     1      30.700  48.621  39.661  1.00  0.00     0.256 C 
HETATM   13  N   UNL     1      29.650  48.629  40.548  1.00  0.00    -0.323 N 
HETATM   14  H   UNL     1      29.872  48.907  41.495  1.00  0.00     0.169 HD
HETATM   15  O   UNL     1      30.792  47.912  38.668  1.00  0.00    -0.267 OA
BRANCH  13  16
HETATM   16  C   UNL     1      28.333  48.148  40.353  1.00  0.00     0.041 A 
HETATM   17  C   UNL     1      27.190  48.928  40.086  1.00  0.00    -0.035 A 
HETATM   18  C   UNL     1      27.165  50.430  40.012  1.00  0.00     0.050 C 
HETATM   19  C   UNL     1      25.951  48.277  39.909  1.00  0.00     0.009 A 
HETATM   20  C   UNL     1      25.825  46.897  40.051  1.00  0.00     0.001 A 
HETATM   21  C   UNL     1      26.940  46.138  40.373  1.00  0.00     0.002 A 
HETATM   22  C   UNL     1      28.180  46.760  40.526  1.00  0.00     0.030 A 
ENDBRANCH  13  16
ENDBRANCH   1  12
BRANCH   2  23
HETATM   23  C   UNL     1      31.062  51.792  39.486  1.00  0.00    -0.025 A 
HETATM   24  C   UNL     1      30.119  52.123  38.497  1.00  0.00     0.052 A 
HETATM   25  C   UNL     1      29.170  53.112  38.739  1.00  0.00     0.117 A 
HETATM   26  F   UNL     1      28.280  53.414  37.785  1.00  0.00    -0.206 F 
HETATM   27  C   UNL     1      29.131  53.789  39.950  1.00  0.00     0.042 A 
HETATM   28  C   UNL     1      30.056  53.471  40.942  1.00  0.00     0.004 A 
HETATM   29  C   UNL     1      31.014  52.479  40.714  1.00  0.00     0.010 A 
ENDBRANCH   2  23
BRANCH   7  30
HETATM   30  C   UNL     1      35.988  53.678  39.349  1.00  0.00     0.085 C 
BRANCH  30  31
HETATM   31  C   UNL     1      35.227  54.982  39.088  1.00  0.00     0.034 C 
BRANCH  31  32
HETATM   32  C   UNL     1      35.886  56.236  39.658  1.00  0.00     0.164 C 
BRANCH  32  33
HETATM   33  O   UNL     1      36.505  55.973  40.909  1.00  0.00    -0.401 OA
HETATM   34  H   UNL     1      37.424  55.699  40.711  1.00  0.00     0.209 HD
ENDBRANCH  32  33
ENDBRANCH  31  32
ENDBRANCH  30  31
ENDBRANCH   7  30
TORSDOF 7
ENDMDL
