MODEL 1
REMARK VINA RESULT:      -9.0      0.000      0.000
REMARK  2 active torsions:
REMARK  status: ('A' for Active; 'I' for Inactive)
REMARK    1  A    between atoms: C_5  and  C_6 
REMARK    2  A    between atoms: C_9  and  C_10 
ROOT
HETATM    1  C   UNL     1      27.021  43.154  53.105  1.00  0.00     0.220 C 
HETATM    2  N   UNL     1      26.439  44.322  52.465  1.00  0.00    -0.126 NA
HETATM    3  N   UNL     1      26.807  44.273  51.085  1.00  0.00    -0.126 NA
HETATM    4  C   UNL     1      25.749  44.929  50.334  1.00  0.00     0.220 C 
HETATM    5  N   UNL     1      24.683  45.058  51.292  1.00  0.00    -0.324 N 
HETATM    6  C   UNL     1      25.080  44.602  52.539  1.00  0.00     0.315 C 
HETATM    7  O   UNL     1      24.331  44.422  53.483  1.00  0.00    -0.252 OA
HETATM    8  C   UNL     1      27.237  42.983  50.796  1.00  0.00     0.315 C 
HETATM    9  O   UNL     1      27.325  42.457  49.701  1.00  0.00    -0.252 OA
HETATM   10  N   UNL     1      27.475  42.347  52.003  1.00  0.00    -0.324 N 
HETATM   11  H   UNL     1      23.720  45.261  51.076  1.00  0.00     0.165 HD
HETATM   12  H   UNL     1      27.715  41.370  52.055  1.00  0.00     0.165 HD
ENDROOT
BRANCH   1  13
HETATM   13  C   UNL     1      28.183  43.477  54.025  1.00  0.00    -0.020 A 
HETATM   14  C   UNL     1      28.253  44.680  54.748  1.00  0.00     0.011 A 
HETATM   15  C   UNL     1      29.366  44.984  55.535  1.00  0.00     0.007 A 
HETATM   16  C   UNL     1      30.443  44.098  55.610  1.00  0.00    -0.062 A 
HETATM   17  C   UNL     1      31.653  44.425  56.432  1.00  0.00     0.048 C 
HETATM   18  C   UNL     1      30.381  42.893  54.901  1.00  0.00     0.007 A 
HETATM   19  C   UNL     1      29.265  42.587  54.115  1.00  0.00     0.011 A 
ENDBRANCH   1  13
BRANCH   4  20
HETATM   20  C   UNL     1      26.132  46.299  49.804  1.00  0.00    -0.020 A 
HETATM   21  C   UNL     1      27.450  46.628  49.448  1.00  0.00     0.011 A 
HETATM   22  C   UNL     1      27.786  47.922  49.040  1.00  0.00     0.007 A 
HETATM   23  C   UNL     1      26.811  48.921  48.982  1.00  0.00    -0.062 A 
HETATM   24  C   UNL     1      27.169  50.322  48.583  1.00  0.00     0.048 C 
HETATM   25  C   UNL     1      25.491  48.601  49.318  1.00  0.00     0.007 A 
HETATM   26  C   UNL     1      25.156  47.306  49.724  1.00  0.00     0.011 A 
ENDBRANCH   4  20
TORSDOF 2
ENDMDL
MODEL 2
REMARK VINA RESULT:      -8.6      2.494      5.573
REMARK  2 active torsions:
REMARK  status: ('A' for Active; 'I' for Inactive)
REMARK    1  A    between atoms: C_5  and  C_6 
REMARK    2  A    between atoms: C_9  and  C_10 
ROOT
HETATM    1  C   UNL     1      26.186  42.985  49.652  1.00  0.00     0.220 C 
HETATM    2  N   UNL     1      26.077  43.458  51.021  1.00  0.00    -0.126 NA
HETATM    3  N   UNL     1      26.763  44.709  51.090  1.00  0.00    -0.126 NA
HETATM    4  C   UNL     1      26.116  45.499  52.125  1.00  0.00     0.220 C 
HETATM    5  N   UNL     1      24.901  44.776  52.393  1.00  0.00    -0.324 N 
HETATM    6  C   UNL     1      24.848  43.606  51.654  1.00  0.00     0.315 C 
HETATM    7  O   UNL     1      23.863  42.897  51.543  1.00  0.00    -0.252 OA
HETATM    8  C   UNL     1      26.939  45.180  49.794  1.00  0.00     0.315 C 
HETATM    9  O   UNL     1      27.179  46.322  49.444  1.00  0.00    -0.252 OA
HETATM   10  N   UNL     1      26.705  44.120  48.934  1.00  0.00    -0.324 N 
HETATM   11  H   UNL     1      24.101  45.134  52.889  1.00  0.00     0.165 HD
HETATM   12  H   UNL     1      26.689  44.235  47.933  1.00  0.00     0.165 HD
ENDROOT
BRANCH   1  13
HETATM   13  C   UNL     1      27.117  41.798  49.489  1.00  0.00    -0.020 A 
HETATM   14  C   UNL     1      27.485  41.303  48.226  1.00  0.00     0.011 A 
HETATM   15  C   UNL     1      28.288  40.167  48.103  1.00  0.00     0.007 A 
HETATM   16  C   UNL     1      28.734  39.490  49.240  1.00  0.00    -0.062 A 
HETATM   17  C   UNL     1      29.576  38.255  49.120  1.00  0.00     0.048 C 
HETATM   18  C   UNL     1      28.381  39.978  50.503  1.00  0.00     0.007 A 
HETATM   19  C   UNL     1      27.579  41.117  50.627  1.00  0.00     0.011 A 
ENDBRANCH   1  13
BRANCH   4  20
HETATM   20  C   UNL     1      26.930  45.626  53.400  1.00  0.00    -0.020 A 
HETATM   21  C   UNL     1      26.905  46.780  54.199  1.00  0.00     0.011 A 
HETATM   22  C   UNL     1      27.727  46.899  55.323  1.00  0.00     0.007 A 
HETATM   23  C   UNL     1      28.601  45.865  55.673  1.00  0.00    -0.062 A 
HETATM   24  C   UNL     1      29.515  45.999  56.853  1.00  0.00     0.048 C 
HETATM   25  C   UNL     1      28.623  44.704  54.893  1.00  0.00     0.007 A 
HETATM   26  C   UNL     1      27.798  44.585  53.771  1.00  0.00     0.011 A 
ENDBRANCH   4  20
TORSDOF 2
ENDMDL
MODEL 3
REMARK VINA RESULT:      -7.8      7.771     10.718
REMARK  2 active torsions:
REMARK  status: ('A' for Active; 'I' for Inactive)
REMARK    1  A    between atoms: C_5  and  C_6 
REMARK    2  A    between atoms: C_9  and  C_10 
ROOT
HETATM    1  C   UNL     1      20.355  49.687  49.178  1.00  0.00     0.220 C 
HETATM    2  N   UNL     1      19.572  50.611  48.375  1.00  0.00    -0.126 NA
HETATM    3  N   UNL     1      18.889  49.837  47.387  1.00  0.00    -0.126 NA
HETATM    4  C   UNL     1      17.650  50.532  47.076  1.00  0.00     0.220 C 
HETATM    5  N   UNL     1      17.543  51.518  48.120  1.00  0.00    -0.324 N 
HETATM    6  C   UNL     1      18.655  51.488  48.945  1.00  0.00     0.315 C 
HETATM    7  O   UNL     1      18.749  52.078  50.006  1.00  0.00    -0.252 OA
HETATM    8  C   UNL     1      18.917  48.505  47.784  1.00  0.00     0.315 C 
HETATM    9  O   UNL     1      18.195  47.601  47.403  1.00  0.00    -0.252 OA
HETATM   10  N   UNL     1      19.875  48.391  48.778  1.00  0.00    -0.324 N 
HETATM   11  H   UNL     1      16.711  52.032  48.358  1.00  0.00     0.165 HD
HETATM   12  H   UNL     1      20.020  47.532  49.286  1.00  0.00     0.165 HD
ENDROOT
BRANCH   1  13
HETATM   13  C   UNL     1      21.849  49.785  48.937  1.00  0.00    -0.020 A 
HETATM   14  C   UNL     1      22.438  50.907  48.329  1.00  0.00     0.011 A 
HETATM   15  C   UNL     1      23.808  50.943  48.056  1.00  0.00     0.007 A 
HETATM   16  C   UNL     1      24.621  49.853  48.374  1.00  0.00    -0.062 A 
HETATM   17  C   UNL     1      26.088  49.872  48.062  1.00  0.00     0.048 C 
HETATM   18  C   UNL     1      24.048  48.734  48.986  1.00  0.00     0.007 A 
HETATM   19  C   UNL     1      22.677  48.698  49.262  1.00  0.00     0.011 A 
ENDBRANCH   1  13
BRANCH   4  20
HETATM   20  C   UNL     1      17.655  51.216  45.721  1.00  0.00    -0.020 A 
HETATM   21  C   UNL     1      17.026  52.452  45.499  1.00  0.00     0.011 A 
HETATM   22  C   UNL     1      16.977  53.018  44.221  1.00  0.00     0.007 A 
HETATM   23  C   UNL     1      17.554  52.358  43.133  1.00  0.00    -0.062 A 
HETATM   24  C   UNL     1      17.473  52.938  41.753  1.00  0.00     0.048 C 
HETATM   25  C   UNL     1      18.198  51.135  43.346  1.00  0.00     0.007 A 
HETATM   26  C   UNL     1      18.248  50.571  44.623  1.00  0.00     0.011 A 
ENDBRANCH   4  20
TORSDOF 2
ENDMDL
MODEL 4
REMARK VINA RESULT:      -7.8      7.812     12.361
REMARK  2 active torsions:
REMARK  status: ('A' for Active; 'I' for Inactive)
REMARK    1  A    between atoms: C_5  and  C_6 
REMARK    2  A    between atoms: C_9  and  C_10 
ROOT
HETATM    1  C   UNL     1      17.646  50.585  47.017  1.00  0.00     0.220 C 
HETATM    2  N   UNL     1      18.883  49.900  47.350  1.00  0.00    -0.126 NA
HETATM    3  N   UNL     1      19.536  50.674  48.358  1.00  0.00    -0.126 NA
HETATM    4  C   UNL     1      20.311  49.754  49.174  1.00  0.00     0.220 C 
HETATM    5  N   UNL     1      19.828  48.458  48.775  1.00  0.00    -0.324 N 
HETATM    6  C   UNL     1      18.904  48.568  47.749  1.00  0.00     0.315 C 
HETATM    7  O   UNL     1      18.201  47.658  47.346  1.00  0.00    -0.252 OA
HETATM    8  C   UNL     1      18.604  51.550  48.903  1.00  0.00     0.315 C 
HETATM    9  O   UNL     1      18.668  52.132  49.971  1.00  0.00    -0.252 OA
HETATM   10  N   UNL     1      17.518  51.585  48.044  1.00  0.00    -0.324 N 
HETATM   11  H   UNL     1      19.972  47.597  49.278  1.00  0.00     0.165 HD
HETATM   12  H   UNL     1      16.674  52.087  48.268  1.00  0.00     0.165 HD
ENDROOT
BRANCH   1  13
HETATM   13  C   UNL     1      17.661  51.243  45.650  1.00  0.00    -0.020 A 
HETATM   14  C   UNL     1      17.039  52.479  45.408  1.00  0.00     0.011 A 
HETATM   15  C   UNL     1      17.009  53.031  44.125  1.00  0.00     0.007 A 
HETATM   16  C   UNL     1      17.590  52.355  43.050  1.00  0.00    -0.062 A 
HETATM   17  C   UNL     1      17.541  52.927  41.665  1.00  0.00     0.048 C 
HETATM   18  C   UNL     1      18.219  51.127  43.281  1.00  0.00     0.007 A 
HETATM   19  C   UNL     1      18.253  50.575  44.566  1.00  0.00     0.011 A 
ENDBRANCH   1  13
BRANCH   4  20
HETATM   20  C   UNL     1      21.809  49.838  48.939  1.00  0.00    -0.020 A 
HETATM   21  C   UNL     1      22.419  50.966  48.366  1.00  0.00     0.011 A 
HETATM   22  C   UNL     1      23.789  50.982  48.088  1.00  0.00     0.007 A 
HETATM   23  C   UNL     1      24.582  49.868  48.371  1.00  0.00    -0.062 A 
HETATM   24  C   UNL     1      26.044  49.861  48.041  1.00  0.00     0.048 C 
HETATM   25  C   UNL     1      23.988  48.745  48.957  1.00  0.00     0.007 A 
HETATM   26  C   UNL     1      22.619  48.730  49.237  1.00  0.00     0.011 A 
ENDBRANCH   4  20
TORSDOF 2
ENDMDL
MODEL 5
REMARK VINA RESULT:      -7.6     12.056     13.996
REMARK  2 active torsions:
REMARK  status: ('A' for Active; 'I' for Inactive)
REMARK    1  A    between atoms: C_5  and  C_6 
REMARK    2  A    between atoms: C_9  and  C_10 
ROOT
HETATM    1  C   UNL     1      30.774  52.408  39.940  1.00  0.00     0.220 C 
HETATM    2  N   UNL     1      29.939  51.299  39.510  1.00  0.00    -0.126 NA
HETATM    3  N   UNL     1      28.800  51.271  40.371  1.00  0.00    -0.126 NA
HETATM    4  C   UNL     1      27.693  50.723  39.603  1.00  0.00     0.220 C 
HETATM    5  N   UNL     1      28.179  50.741  38.249  1.00  0.00    -0.324 N 
HETATM    6  C   UNL     1      29.492  51.179  38.200  1.00  0.00     0.315 C 
HETATM    7  O   UNL     1      30.091  51.467  37.178  1.00  0.00    -0.252 OA
HETATM    8  C   UNL     1      28.719  52.496  41.024  1.00  0.00     0.315 C 
HETATM    9  O   UNL     1      27.748  52.981  41.577  1.00  0.00    -0.252 OA
HETATM   10  N   UNL     1      29.940  53.130  40.864  1.00  0.00    -0.324 N 
HETATM   11  H   UNL     1      27.613  50.644  37.421  1.00  0.00     0.165 HD
HETATM   12  H   UNL     1      30.098  54.075  41.178  1.00  0.00     0.165 HD
ENDROOT
BRANCH   1  13
HETATM   13  C   UNL     1      32.056  51.976  40.627  1.00  0.00    -0.020 A 
HETATM   14  C   UNL     1      32.116  51.721  42.007  1.00  0.00     0.011 A 
HETATM   15  C   UNL     1      33.324  51.391  42.627  1.00  0.00     0.007 A 
HETATM   16  C   UNL     1      34.505  51.320  41.884  1.00  0.00    -0.062 A 
HETATM   17  C   UNL     1      35.810  50.991  42.543  1.00  0.00     0.048 C 
HETATM   18  C   UNL     1      34.455  51.565  40.507  1.00  0.00     0.007 A 
HETATM   19  C   UNL     1      33.246  51.892  39.885  1.00  0.00     0.011 A 
ENDBRANCH   1  13
BRANCH   4  20
HETATM   20  C   UNL     1      27.318  49.305  39.996  1.00  0.00    -0.020 A 
HETATM   21  C   UNL     1      26.020  48.796  39.830  1.00  0.00     0.011 A 
HETATM   22  C   UNL     1      25.684  47.514  40.276  1.00  0.00     0.007 A 
HETATM   23  C   UNL     1      26.640  46.711  40.903  1.00  0.00    -0.062 A 
HETATM   24  C   UNL     1      26.280  45.350  41.420  1.00  0.00     0.048 C 
HETATM   25  C   UNL     1      27.940  47.201  41.059  1.00  0.00     0.007 A 
HETATM   26  C   UNL     1      28.276  48.482  40.611  1.00  0.00     0.011 A 
ENDBRANCH   4  20
TORSDOF 2
ENDMDL
MODEL 6
REMARK VINA RESULT:      -7.6     12.238     13.905
REMARK  2 active torsions:
REMARK  status: ('A' for Active; 'I' for Inactive)
REMARK    1  A    between atoms: C_5  and  C_6 
REMARK    2  A    between atoms: C_9  and  C_10 
ROOT
HETATM    1  C   UNL     1      30.528  51.597  40.415  1.00  0.00     0.220 C 
HETATM    2  N   UNL     1      30.120  50.457  39.611  1.00  0.00    -0.126 NA
HETATM    3  N   UNL     1      29.178  49.711  40.385  1.00  0.00    -0.126 NA
HETATM    4  C   UNL     1      28.274  49.060  39.451  1.00  0.00     0.220 C 
HETATM    5  N   UNL     1      28.559  49.705  38.196  1.00  0.00    -0.324 N 
HETATM    6  C   UNL     1      29.602  50.607  38.330  1.00  0.00     0.315 C 
HETATM    7  O   UNL     1      29.930  51.420  37.483  1.00  0.00    -0.252 OA
HETATM    8  C   UNL     1      28.725  50.524  41.418  1.00  0.00     0.315 C 
HETATM    9  O   UNL     1      27.713  50.386  42.082  1.00  0.00    -0.252 OA
HETATM   10  N   UNL     1      29.597  51.596  41.512  1.00  0.00    -0.324 N 
HETATM   11  H   UNL     1      27.979  49.671  37.374  1.00  0.00     0.165 HD
HETATM   12  H   UNL     1      29.428  52.370  42.136  1.00  0.00     0.165 HD
ENDROOT
BRANCH   1  13
HETATM   13  C   UNL     1      31.948  51.498  40.938  1.00  0.00    -0.020 A 
HETATM   14  C   UNL     1      33.050  51.326  40.084  1.00  0.00     0.011 A 
HETATM   15  C   UNL     1      34.341  51.169  40.596  1.00  0.00     0.007 A 
HETATM   16  C   UNL     1      34.560  51.167  41.975  1.00  0.00    -0.062 A 
HETATM   17  C   UNL     1      35.937  50.974  42.535  1.00  0.00     0.048 C 
HETATM   18  C   UNL     1      33.470  51.345  42.835  1.00  0.00     0.007 A 
HETATM   19  C   UNL     1      32.179  51.506  42.324  1.00  0.00     0.011 A 
ENDBRANCH   1  13
BRANCH   4  20
HETATM   20  C   UNL     1      28.498  47.564  39.323  1.00  0.00    -0.020 A 
HETATM   21  C   UNL     1      29.196  46.996  38.245  1.00  0.00     0.011 A 
HETATM   22  C   UNL     1      29.316  45.609  38.113  1.00  0.00     0.007 A 
HETATM   23  C   UNL     1      28.736  44.756  39.055  1.00  0.00    -0.062 A 
HETATM   24  C   UNL     1      28.826  43.267  38.901  1.00  0.00     0.048 C 
HETATM   25  C   UNL     1      28.052  45.311  40.142  1.00  0.00     0.007 A 
HETATM   26  C   UNL     1      27.935  46.697  40.275  1.00  0.00     0.011 A 
ENDBRANCH   4  20
TORSDOF 2
ENDMDL
MODEL 7
REMARK VINA RESULT:      -7.6     15.786     18.294
REMARK  2 active torsions:
REMARK  status: ('A' for Active; 'I' for Inactive)
REMARK    1  A    between atoms: C_5  and  C_6 
REMARK    2  A    between atoms: C_9  and  C_10 
ROOT
HETATM    1  C   UNL     1      36.911  43.401  64.912  1.00  0.00     0.220 C 
HETATM    2  N   UNL     1      37.739  44.238  65.763  1.00  0.00    -0.126 NA
HETATM    3  N   UNL     1      38.016  45.435  65.035  1.00  0.00    -0.126 NA
HETATM    4  C   UNL     1      38.186  46.502  66.008  1.00  0.00     0.220 C 
HETATM    5  N   UNL     1      37.703  45.923  67.234  1.00  0.00    -0.324 N 
HETATM    6  C   UNL     1      37.349  44.596  67.048  1.00  0.00     0.315 C 
HETATM    7  O   UNL     1      36.743  43.919  67.859  1.00  0.00    -0.252 OA
HETATM    8  C   UNL     1      37.111  45.523  63.983  1.00  0.00     0.315 C 
HETATM    9  O   UNL     1      36.808  46.515  63.344  1.00  0.00    -0.252 OA
HETATM   10  N   UNL     1      36.530  44.274  63.834  1.00  0.00    -0.324 N 
HETATM   11  H   UNL     1      37.461  46.431  68.068  1.00  0.00     0.165 HD
HETATM   12  H   UNL     1      35.775  44.109  63.187  1.00  0.00     0.165 HD
ENDROOT
BRANCH   1  13
HETATM   13  C   UNL     1      37.632  42.184  64.364  1.00  0.00    -0.020 A 
HETATM   14  C   UNL     1      37.797  41.009  65.117  1.00  0.00     0.011 A 
HETATM   15  C   UNL     1      38.525  39.927  64.615  1.00  0.00     0.007 A 
HETATM   16  C   UNL     1      39.116  39.998  63.352  1.00  0.00    -0.062 A 
HETATM   17  C   UNL     1      39.920  38.853  62.814  1.00  0.00     0.048 C 
HETATM   18  C   UNL     1      38.952  41.160  62.590  1.00  0.00     0.007 A 
HETATM   19  C   UNL     1      38.221  42.242  63.091  1.00  0.00     0.011 A 
ENDBRANCH   1  13
BRANCH   4  20
HETATM   20  C   UNL     1      39.627  46.948  66.184  1.00  0.00    -0.020 A 
HETATM   21  C   UNL     1      40.583  46.826  65.163  1.00  0.00     0.011 A 
HETATM   22  C   UNL     1      41.920  47.170  65.381  1.00  0.00     0.007 A 
HETATM   23  C   UNL     1      42.334  47.642  66.629  1.00  0.00    -0.062 A 
HETATM   24  C   UNL     1      43.773  47.978  66.885  1.00  0.00     0.048 C 
HETATM   25  C   UNL     1      41.387  47.784  67.649  1.00  0.00     0.007 A 
HETATM   26  C   UNL     1      40.050  47.442  67.429  1.00  0.00     0.011 A 
ENDBRANCH   4  20
TORSDOF 2
ENDMDL
MODEL 8
REMARK VINA RESULT:      -7.5      7.401     11.768
REMARK  2 active torsions:
REMARK  status: ('A' for Active; 'I' for Inactive)
REMARK    1  A    between atoms: C_5  and  C_6 
REMARK    2  A    between atoms: C_9  and  C_10 
ROOT
HETATM    1  C   UNL     1      17.440  49.267  48.014  1.00  0.00     0.220 C 
HETATM    2  N   UNL     1      18.825  48.859  47.850  1.00  0.00    -0.126 NA
HETATM    3  N   UNL     1      19.520  49.238  49.039  1.00  0.00    -0.126 NA
HETATM    4  C   UNL     1      20.607  48.290  49.223  1.00  0.00     0.220 C 
HETATM    5  N   UNL     1      20.299  47.236  48.292  1.00  0.00    -0.324 N 
HETATM    6  C   UNL     1      19.175  47.548  47.545  1.00  0.00     0.315 C 
HETATM    7  O   UNL     1      18.585  46.768  46.819  1.00  0.00    -0.252 OA
HETATM    8  C   UNL     1      18.578  49.494  50.029  1.00  0.00     0.315 C 
HETATM    9  O   UNL     1      18.757  49.527  51.234  1.00  0.00    -0.252 OA
HETATM   10  N   UNL     1      17.348  49.624  49.405  1.00  0.00    -0.324 N 
HETATM   11  H   UNL     1      20.703  46.314  48.295  1.00  0.00     0.165 HD
HETATM   12  H   UNL     1      16.492  49.729  49.927  1.00  0.00     0.165 HD
ENDROOT
BRANCH   1  13
HETATM   13  C   UNL     1      17.044  50.447  47.148  1.00  0.00    -0.020 A 
HETATM   14  C   UNL     1      15.712  50.880  47.036  1.00  0.00     0.011 A 
HETATM   15  C   UNL     1      15.365  51.927  46.178  1.00  0.00     0.007 A 
HETATM   16  C   UNL     1      16.339  52.559  45.402  1.00  0.00    -0.062 A 
HETATM   17  C   UNL     1      15.973  53.666  44.459  1.00  0.00     0.048 C 
HETATM   18  C   UNL     1      17.670  52.141  45.511  1.00  0.00     0.007 A 
HETATM   19  C   UNL     1      18.019  51.096  46.372  1.00  0.00     0.011 A 
ENDBRANCH   1  13
BRANCH   4  20
HETATM   20  C   UNL     1      21.979  48.863  48.916  1.00  0.00    -0.020 A 
HETATM   21  C   UNL     1      22.158  49.999  48.109  1.00  0.00     0.011 A 
HETATM   22  C   UNL     1      23.437  50.454  47.778  1.00  0.00     0.007 A 
HETATM   23  C   UNL     1      24.570  49.782  48.243  1.00  0.00    -0.062 A 
HETATM   24  C   UNL     1      25.946  50.240  47.861  1.00  0.00     0.048 C 
HETATM   25  C   UNL     1      24.404  48.659  49.061  1.00  0.00     0.007 A 
HETATM   26  C   UNL     1      23.125  48.205  49.393  1.00  0.00     0.011 A 
ENDBRANCH   4  20
TORSDOF 2
ENDMDL
MODEL 9
REMARK VINA RESULT:      -7.5     12.180     13.929
REMARK  2 active torsions:
REMARK  status: ('A' for Active; 'I' for Inactive)
REMARK    1  A    between atoms: C_5  and  C_6 
REMARK    2  A    between atoms: C_9  and  C_10 
ROOT
HETATM    1  C   UNL     1      28.135  49.046  39.436  1.00  0.00     0.220 C 
HETATM    2  N   UNL     1      29.067  49.620  40.392  1.00  0.00    -0.126 NA
HETATM    3  N   UNL     1      30.047  50.342  39.644  1.00  0.00    -0.126 NA
HETATM    4  C   UNL     1      30.510  51.434  40.485  1.00  0.00     0.220 C 
HETATM    5  N   UNL     1      29.556  51.462  41.562  1.00  0.00    -0.324 N 
HETATM    6  C   UNL     1      28.642  50.429  41.440  1.00  0.00     0.315 C 
HETATM    7  O   UNL     1      27.623  50.320  42.100  1.00  0.00    -0.252 OA
HETATM    8  C   UNL     1      29.550  50.547  38.362  1.00  0.00     0.315 C 
HETATM    9  O   UNL     1      29.921  51.371  37.545  1.00  0.00    -0.252 OA
HETATM   10  N   UNL     1      28.475  49.690  38.194  1.00  0.00    -0.324 N 
HETATM   11  H   UNL     1      29.426  52.220  42.212  1.00  0.00     0.165 HD
HETATM   12  H   UNL     1      27.894  49.715  37.371  1.00  0.00     0.165 HD
ENDROOT
BRANCH   1  13
HETATM   13  C   UNL     1      28.258  47.541  39.291  1.00  0.00    -0.020 A 
HETATM   14  C   UNL     1      27.834  46.655  40.295  1.00  0.00     0.011 A 
HETATM   15  C   UNL     1      28.021  45.277  40.166  1.00  0.00     0.007 A 
HETATM   16  C   UNL     1      28.648  44.751  39.035  1.00  0.00    -0.062 A 
HETATM   17  C   UNL     1      28.877  43.275  38.898  1.00  0.00     0.048 C 
HETATM   18  C   UNL     1      29.068  45.623  38.025  1.00  0.00     0.007 A 
HETATM   19  C   UNL     1      28.878  47.003  38.152  1.00  0.00     0.011 A 
ENDBRANCH   1  13
BRANCH   4  20
HETATM   20  C   UNL     1      31.908  51.230  41.041  1.00  0.00    -0.020 A 
HETATM   21  C   UNL     1      32.206  51.382  42.405  1.00  0.00     0.011 A 
HETATM   22  C   UNL     1      33.518  51.267  42.874  1.00  0.00     0.007 A 
HETATM   23  C   UNL     1      34.565  50.999  41.989  1.00  0.00    -0.062 A 
HETATM   24  C   UNL     1      35.980  50.912  42.478  1.00  0.00     0.048 C 
HETATM   25  C   UNL     1      34.277  50.829  40.631  1.00  0.00     0.007 A 
HETATM   26  C   UNL     1      32.966  50.942  40.163  1.00  0.00     0.011 A 
ENDBRANCH   4  20
TORSDOF 2
ENDMDL
MODEL 10
REMARK VINA RESULT:      -7.5     11.753     13.215
REMARK  2 active torsions:
REMARK  status: ('A' for Active; 'I' for Inactive)
REMARK    1  A    between atoms: C_5  and  C_6 
REMARK    2  A    between atoms: C_9  and  C_10 
ROOT
HETATM    1  C   UNL     1      30.331  50.188  39.589  1.00  0.00     0.220 C 
HETATM    2  N   UNL     1      29.440  49.042  39.660  1.00  0.00    -0.126 NA
HETATM    3  N   UNL     1      28.125  49.512  39.361  1.00  0.00    -0.126 NA
HETATM    4  C   UNL     1      27.403  48.410  38.745  1.00  0.00     0.220 C 
HETATM    5  N   UNL     1      28.436  47.451  38.451  1.00  0.00    -0.324 N 
HETATM    6  C   UNL     1      29.664  47.888  38.919  1.00  0.00     0.315 C 
HETATM    7  O   UNL     1      30.734  47.370  38.650  1.00  0.00    -0.252 OA
HETATM    8  C   UNL     1      28.237  50.759  38.757  1.00  0.00     0.315 C 
HETATM    9  O   UNL     1      27.403  51.334  38.079  1.00  0.00    -0.252 OA
HETATM   10  N   UNL     1      29.523  51.216  38.989  1.00  0.00    -0.324 N 
HETATM   11  H   UNL     1      28.347  46.665  37.827  1.00  0.00     0.165 HD
HETATM   12  H   UNL     1      29.872  52.066  38.575  1.00  0.00     0.165 HD
ENDROOT
BRANCH   1  13
HETATM   13  C   UNL     1      30.840  50.650  40.941  1.00  0.00    -0.020 A 
HETATM   14  C   UNL     1      30.770  51.992  41.349  1.00  0.00     0.011 A 
HETATM   15  C   UNL     1      31.308  52.404  42.571  1.00  0.00     0.007 A 
HETATM   16  C   UNL     1      31.940  51.485  43.411  1.00  0.00    -0.062 A 
HETATM   17  C   UNL     1      32.543  51.921  44.713  1.00  0.00     0.048 C 
HETATM   18  C   UNL     1      32.009  50.143  43.019  1.00  0.00     0.007 A 
HETATM   19  C   UNL     1      31.468  49.730  41.797  1.00  0.00     0.011 A 
ENDBRANCH   1  13
BRANCH   4  20
HETATM   20  C   UNL     1      26.359  47.779  39.650  1.00  0.00    -0.020 A 
HETATM   21  C   UNL     1      26.635  46.661  40.454  1.00  0.00     0.011 A 
HETATM   22  C   UNL     1      25.632  46.054  41.214  1.00  0.00     0.007 A 
HETATM   23  C   UNL     1      24.325  46.548  41.185  1.00  0.00    -0.062 A 
HETATM   24  C   UNL     1      23.234  45.879  41.966  1.00  0.00     0.048 C 
HETATM   25  C   UNL     1      24.043  47.671  40.400  1.00  0.00     0.007 A 
HETATM   26  C   UNL     1      25.047  48.279  39.642  1.00  0.00     0.011 A 
ENDBRANCH   4  20
TORSDOF 2
ENDMDL
