MODEL 1
REMARK VINA RESULT:     -10.4      0.000      0.000
REMARK  8 active torsions:
REMARK  status: ('A' for Active; 'I' for Inactive)
REMARK    1  A    between atoms: C_4  and  S_5 
REMARK    2  A    between atoms: S_5  and  C_6 
REMARK    3  A    between atoms: C_6  and  C_7 
REMARK       I    between atoms: C_7  and  N_8 
REMARK    4  A    between atoms: N_8  and  C_9 
REMARK    5  A    between atoms: C_9  and  C_10 
REMARK    6  A    between atoms: C_20  and  C_21 
REMARK    7  A    between atoms: C_26  and  C_27 
REMARK       I    between atoms: C_27  and  N_28 
REMARK    8  A    between atoms: N_28  and  C_29 
ROOT
HETATM    1  C   UNL     1      23.799  43.027  50.208  1.00  0.00     0.069 C 
HETATM    2  C   UNL     1      23.864  44.528  50.037  1.00  0.00     0.019 C 
HETATM    3  N   UNL     1      23.063  45.027  49.019  1.00  0.00    -0.353 N 
HETATM    4  C   UNL     1      22.791  46.365  48.791  1.00  0.00     0.088 C 
HETATM    5  C   UNL     1      23.515  47.290  49.466  1.00  0.00     0.071 C 
HETATM    6  C   UNL     1      23.297  48.697  49.342  1.00  0.00     0.099 C 
HETATM    7  N   UNL     1      23.136  49.844  49.264  1.00  0.00    -0.192 NA
HETATM    8  C   UNL     1      24.625  46.860  50.438  1.00  0.00     0.130 C 
HETATM    9  C   UNL     1      24.614  45.372  50.792  1.00  0.00     0.048 C 
HETATM   10  H   UNL     1      22.383  44.371  48.653  1.00  0.00     0.166 HD
ENDROOT
BRANCH   4  11
HETATM   11  S   UNL     1      21.515  46.891  47.686  1.00  0.00    -0.102 SA
BRANCH  11  12
HETATM   12  C   UNL     1      20.018  46.188  48.428  1.00  0.00     0.183 C 
BRANCH  12  13
HETATM   13  C   UNL     1      19.131  47.222  49.099  1.00  0.00     0.227 C 
HETATM   14  N   UNL     1      19.753  48.098  49.956  1.00  0.00    -0.356 N 
HETATM   15  H   UNL     1      20.613  47.782  50.392  1.00  0.00     0.162 HD
HETATM   16  O   UNL     1      17.942  47.320  48.797  1.00  0.00    -0.273 OA
BRANCH  14  17
HETATM   17  C   UNL     1      18.983  49.116  50.637  1.00  0.00     0.161 C 
BRANCH  17  18
HETATM   18  C   UNL     1      18.812  50.386  49.843  1.00  0.00    -0.041 A 
HETATM   19  C   UNL     1      17.626  51.135  49.859  1.00  0.00     0.009 A 
HETATM   20  C   UNL     1      17.529  52.331  49.145  1.00  0.00     0.001 A 
HETATM   21  C   UNL     1      18.622  52.808  48.425  1.00  0.00     0.000 A 
HETATM   22  C   UNL     1      19.815  52.091  48.420  1.00  0.00     0.001 A 
HETATM   23  C   UNL     1      19.910  50.890  49.126  1.00  0.00     0.009 A 
ENDBRANCH  17  18
ENDBRANCH  14  17
ENDBRANCH  12  13
ENDBRANCH  11  12
ENDBRANCH   4  11
BRANCH   8  24
HETATM   24  C   UNL     1      25.984  47.301  49.953  1.00  0.00     0.066 A 
HETATM   25  O   UNL     1      26.788  46.321  49.452  1.00  0.00    -0.326 OA
HETATM   26  C   UNL     1      27.944  46.916  49.061  1.00  0.00     0.142 A 
HETATM   27  C   UNL     1      27.893  48.269  49.300  1.00  0.00     0.027 A 
HETATM   28  C   UNL     1      26.624  48.521  49.876  1.00  0.00     0.035 A 
ENDBRANCH   8  24
BRANCH   9  29
HETATM   29  C   UNL     1      25.390  44.865  51.992  1.00  0.00     0.255 C 
HETATM   30  N   UNL     1      26.757  44.739  51.846  1.00  0.00    -0.322 N 
HETATM   31  H   UNL     1      27.190  44.933  50.949  1.00  0.00     0.169 HD
HETATM   32  O   UNL     1      24.803  44.637  53.047  1.00  0.00    -0.268 OA
BRANCH  30  33
HETATM   33  C   UNL     1      27.701  44.373  52.848  1.00  0.00     0.057 A 
HETATM   34  C   UNL     1      28.421  43.170  52.688  1.00  0.00     0.062 A 
HETATM   35 CL   UNL     1      28.191  42.168  51.296  1.00  0.00    -0.082 Cl
HETATM   36  C   UNL     1      29.370  42.759  53.629  1.00  0.00     0.050 A 
HETATM   37  C   UNL     1      29.608  43.546  54.749  1.00  0.00     0.035 A 
HETATM   38 CL   UNL     1      30.777  43.054  55.910  1.00  0.00    -0.084 Cl
HETATM   39  C   UNL     1      28.908  44.733  54.932  1.00  0.00     0.026 A 
HETATM   40  C   UNL     1      27.960  45.143  53.987  1.00  0.00     0.033 A 
ENDBRANCH  30  33
ENDBRANCH   9  29
TORSDOF 8
ENDMDL
MODEL 2
REMARK VINA RESULT:     -10.2      1.651      1.945
REMARK  8 active torsions:
REMARK  status: ('A' for Active; 'I' for Inactive)
REMARK    1  A    between atoms: C_4  and  S_5 
REMARK    2  A    between atoms: S_5  and  C_6 
REMARK    3  A    between atoms: C_6  and  C_7 
REMARK       I    between atoms: C_7  and  N_8 
REMARK    4  A    between atoms: N_8  and  C_9 
REMARK    5  A    between atoms: C_9  and  C_10 
REMARK    6  A    between atoms: C_20  and  C_21 
REMARK    7  A    between atoms: C_26  and  C_27 
REMARK       I    between atoms: C_27  and  N_28 
REMARK    8  A    between atoms: N_28  and  C_29 
ROOT
HETATM    1  C   UNL     1      25.031  43.744  51.603  1.00  0.00     0.069 C 
HETATM    2  C   UNL     1      24.643  44.991  50.840  1.00  0.00     0.019 C 
HETATM    3  N   UNL     1      23.897  44.756  49.694  1.00  0.00    -0.353 N 
HETATM    4  C   UNL     1      23.253  45.723  48.940  1.00  0.00     0.088 C 
HETATM    5  C   UNL     1      23.531  47.024  49.196  1.00  0.00     0.071 C 
HETATM    6  C   UNL     1      22.900  48.109  48.510  1.00  0.00     0.099 C 
HETATM    7  N   UNL     1      22.399  49.006  47.972  1.00  0.00    -0.192 NA
HETATM    8  C   UNL     1      24.551  47.410  50.278  1.00  0.00     0.130 C 
HETATM    9  C   UNL     1      24.957  46.262  51.202  1.00  0.00     0.048 C 
HETATM   10  H   UNL     1      23.526  43.816  49.613  1.00  0.00     0.166 HD
ENDROOT
BRANCH   4  11
HETATM   11  S   UNL     1      22.068  45.311  47.694  1.00  0.00    -0.102 SA
BRANCH  11  12
HETATM   12  C   UNL     1      20.543  45.075  48.645  1.00  0.00     0.183 C 
BRANCH  12  13
HETATM   13  C   UNL     1      19.521  46.178  48.437  1.00  0.00     0.227 C 
HETATM   14  N   UNL     1      19.194  46.926  49.542  1.00  0.00    -0.356 N 
HETATM   15  H   UNL     1      19.312  46.485  50.448  1.00  0.00     0.162 HD
HETATM   16  O   UNL     1      19.101  46.439  47.310  1.00  0.00    -0.273 OA
BRANCH  14  17
HETATM   17  C   UNL     1      18.230  47.999  49.432  1.00  0.00     0.161 C 
BRANCH  17  18
HETATM   18  C   UNL     1      18.847  49.353  49.187  1.00  0.00    -0.041 A 
HETATM   19  C   UNL     1      19.618  50.020  50.150  1.00  0.00     0.009 A 
HETATM   20  C   UNL     1      20.209  51.252  49.862  1.00  0.00     0.001 A 
HETATM   21  C   UNL     1      20.059  51.823  48.600  1.00  0.00     0.000 A 
HETATM   22  C   UNL     1      19.319  51.162  47.624  1.00  0.00     0.001 A 
HETATM   23  C   UNL     1      18.719  49.935  47.914  1.00  0.00     0.009 A 
ENDBRANCH  17  18
ENDBRANCH  14  17
ENDBRANCH  12  13
ENDBRANCH  11  12
ENDBRANCH   4  11
BRANCH   8  24
HETATM   24  C   UNL     1      25.759  48.089  49.680  1.00  0.00     0.066 A 
HETATM   25  O   UNL     1      25.563  49.350  49.202  1.00  0.00    -0.326 OA
HETATM   26  C   UNL     1      26.757  49.787  48.727  1.00  0.00     0.142 A 
HETATM   27  C   UNL     1      27.723  48.824  48.898  1.00  0.00     0.027 A 
HETATM   28  C   UNL     1      27.080  47.724  49.518  1.00  0.00     0.035 A 
ENDBRANCH   8  24
BRANCH   9  29
HETATM   29  C   UNL     1      25.654  46.548  52.519  1.00  0.00     0.255 C 
HETATM   30  N   UNL     1      26.603  45.637  52.936  1.00  0.00    -0.322 N 
HETATM   31  H   UNL     1      26.768  44.794  52.394  1.00  0.00     0.169 HD
HETATM   32  O   UNL     1      25.398  47.581  53.134  1.00  0.00    -0.268 OA
BRANCH  30  33
HETATM   33  C   UNL     1      27.446  45.732  54.080  1.00  0.00     0.057 A 
HETATM   34  C   UNL     1      28.501  44.805  54.220  1.00  0.00     0.062 A 
HETATM   35 CL   UNL     1      28.791  43.593  53.020  1.00  0.00    -0.082 Cl
HETATM   36  C   UNL     1      29.371  44.851  55.314  1.00  0.00     0.050 A 
HETATM   37  C   UNL     1      29.192  45.826  56.289  1.00  0.00     0.035 A 
HETATM   38 CL   UNL     1      30.259  45.896  57.635  1.00  0.00    -0.084 Cl
HETATM   39  C   UNL     1      28.157  46.747  56.177  1.00  0.00     0.026 A 
HETATM   40  C   UNL     1      27.289  46.699  55.079  1.00  0.00     0.033 A 
ENDBRANCH  30  33
ENDBRANCH   9  29
TORSDOF 8
ENDMDL
MODEL 3
REMARK VINA RESULT:     -10.1      3.956     10.369
REMARK  8 active torsions:
REMARK  status: ('A' for Active; 'I' for Inactive)
REMARK    1  A    between atoms: C_4  and  S_5 
REMARK    2  A    between atoms: S_5  and  C_6 
REMARK    3  A    between atoms: C_6  and  C_7 
REMARK       I    between atoms: C_7  and  N_8 
REMARK    4  A    between atoms: N_8  and  C_9 
REMARK    5  A    between atoms: C_9  and  C_10 
REMARK    6  A    between atoms: C_20  and  C_21 
REMARK    7  A    between atoms: C_26  and  C_27 
REMARK       I    between atoms: C_27  and  N_28 
REMARK    8  A    between atoms: N_28  and  C_29 
ROOT
HETATM    1  C   UNL     1      24.766  49.350  48.775  1.00  0.00     0.069 C 
HETATM    2  C   UNL     1      24.337  47.937  49.102  1.00  0.00     0.019 C 
HETATM    3  N   UNL     1      25.354  47.123  49.580  1.00  0.00    -0.353 N 
HETATM    4  C   UNL     1      25.184  45.866  50.135  1.00  0.00     0.088 C 
HETATM    5  C   UNL     1      23.970  45.275  50.023  1.00  0.00     0.071 C 
HETATM    6  C   UNL     1      23.667  43.997  50.589  1.00  0.00     0.099 C 
HETATM    7  N   UNL     1      23.394  42.965  51.044  1.00  0.00    -0.192 NA
HETATM    8  C   UNL     1      22.824  45.973  49.277  1.00  0.00     0.130 C 
HETATM    9  C   UNL     1      23.075  47.451  48.973  1.00  0.00     0.048 C 
HETATM   10  H   UNL     1      26.200  47.611  49.847  1.00  0.00     0.166 HD
ENDROOT
BRANCH   4  11
HETATM   11  S   UNL     1      26.482  45.038  51.006  1.00  0.00    -0.102 SA
BRANCH  11  12
HETATM   12  C   UNL     1      25.948  45.151  52.735  1.00  0.00     0.183 C 
BRANCH  12  13
HETATM   13  C   UNL     1      26.845  46.028  53.590  1.00  0.00     0.227 C 
HETATM   14  N   UNL     1      27.829  45.385  54.303  1.00  0.00    -0.356 N 
HETATM   15  H   UNL     1      27.664  44.412  54.541  1.00  0.00     0.162 HD
HETATM   16  O   UNL     1      26.746  47.253  53.551  1.00  0.00    -0.273 OA
BRANCH  14  17
HETATM   17  C   UNL     1      28.729  46.144  55.143  1.00  0.00     0.161 C 
BRANCH  17  18
HETATM   18  C   UNL     1      29.709  45.295  55.914  1.00  0.00    -0.041 A 
HETATM   19  C   UNL     1      30.146  45.627  57.205  1.00  0.00     0.009 A 
HETATM   20  C   UNL     1      31.018  44.786  57.900  1.00  0.00     0.001 A 
HETATM   21  C   UNL     1      31.445  43.592  57.325  1.00  0.00     0.000 A 
HETATM   22  C   UNL     1      31.000  43.234  56.056  1.00  0.00     0.001 A 
HETATM   23  C   UNL     1      30.136  44.079  55.356  1.00  0.00     0.009 A 
ENDBRANCH  17  18
ENDBRANCH  14  17
ENDBRANCH  12  13
ENDBRANCH  11  12
ENDBRANCH   4  11
BRANCH   8  24
HETATM   24  C   UNL     1      22.430  45.215  48.034  1.00  0.00     0.066 A 
HETATM   25  O   UNL     1      21.331  44.415  48.142  1.00  0.00    -0.326 OA
HETATM   26  C   UNL     1      21.136  43.840  46.929  1.00  0.00     0.142 A 
HETATM   27  C   UNL     1      22.093  44.263  46.037  1.00  0.00     0.027 A 
HETATM   28  C   UNL     1      22.931  45.156  46.749  1.00  0.00     0.035 A 
ENDBRANCH   8  24
BRANCH   9  29
HETATM   29  C   UNL     1      21.925  48.359  48.583  1.00  0.00     0.255 C 
HETATM   30  N   UNL     1      21.337  49.094  49.593  1.00  0.00    -0.322 N 
HETATM   31  H   UNL     1      21.645  48.972  50.553  1.00  0.00     0.169 HD
HETATM   32  O   UNL     1      21.592  48.452  47.404  1.00  0.00    -0.268 OA
BRANCH  30  33
HETATM   33  C   UNL     1      20.310  50.072  49.463  1.00  0.00     0.057 A 
HETATM   34  C   UNL     1      19.053  49.813  50.048  1.00  0.00     0.062 A 
HETATM   35 CL   UNL     1      18.762  48.353  50.932  1.00  0.00    -0.082 Cl
HETATM   36  C   UNL     1      18.007  50.737  49.966  1.00  0.00     0.050 A 
HETATM   37  C   UNL     1      18.204  51.935  49.290  1.00  0.00     0.035 A 
HETATM   38 CL   UNL     1      16.927  53.082  49.187  1.00  0.00    -0.084 Cl
HETATM   39  C   UNL     1      19.432  52.212  48.699  1.00  0.00     0.026 A 
HETATM   40  C   UNL     1      20.478  51.285  48.786  1.00  0.00     0.033 A 
ENDBRANCH  30  33
ENDBRANCH   9  29
TORSDOF 8
ENDMDL
MODEL 4
REMARK VINA RESULT:      -9.7      3.872     10.060
REMARK  8 active torsions:
REMARK  status: ('A' for Active; 'I' for Inactive)
REMARK    1  A    between atoms: C_4  and  S_5 
REMARK    2  A    between atoms: S_5  and  C_6 
REMARK    3  A    between atoms: C_6  and  C_7 
REMARK       I    between atoms: C_7  and  N_8 
REMARK    4  A    between atoms: N_8  and  C_9 
REMARK    5  A    between atoms: C_9  and  C_10 
REMARK    6  A    between atoms: C_20  and  C_21 
REMARK    7  A    between atoms: C_26  and  C_27 
REMARK       I    between atoms: C_27  and  N_28 
REMARK    8  A    between atoms: N_28  and  C_29 
ROOT
HETATM    1  C   UNL     1      24.512  48.514  49.372  1.00  0.00     0.069 C 
HETATM    2  C   UNL     1      23.974  47.125  49.108  1.00  0.00     0.019 C 
HETATM    3  N   UNL     1      24.855  46.098  49.414  1.00  0.00    -0.353 N 
HETATM    4  C   UNL     1      24.538  44.751  49.455  1.00  0.00     0.088 C 
HETATM    5  C   UNL     1      23.340  44.360  48.958  1.00  0.00     0.071 C 
HETATM    6  C   UNL     1      22.889  43.003  48.981  1.00  0.00     0.099 C 
HETATM    7  N   UNL     1      22.497  41.911  48.993  1.00  0.00    -0.192 NA
HETATM    8  C   UNL     1      22.374  45.384  48.344  1.00  0.00     0.130 C 
HETATM    9  C   UNL     1      22.736  46.843  48.625  1.00  0.00     0.048 C 
HETATM   10  H   UNL     1      25.660  46.378  49.963  1.00  0.00     0.166 HD
ENDROOT
BRANCH   4  11
HETATM   11  S   UNL     1      25.626  43.549  50.162  1.00  0.00    -0.102 SA
BRANCH  11  12
HETATM   12  C   UNL     1      25.230  43.633  51.929  1.00  0.00     0.183 C 
BRANCH  12  13
HETATM   13  C   UNL     1      25.957  44.747  52.661  1.00  0.00     0.227 C 
HETATM   14  N   UNL     1      26.962  44.364  53.516  1.00  0.00    -0.356 N 
HETATM   15  H   UNL     1      26.901  43.431  53.910  1.00  0.00     0.162 HD
HETATM   16  O   UNL     1      25.713  45.926  52.407  1.00  0.00    -0.273 OA
BRANCH  14  17
HETATM   17  C   UNL     1      27.707  45.362  54.253  1.00  0.00     0.161 C 
BRANCH  17  18
HETATM   18  C   UNL     1      28.888  44.809  55.009  1.00  0.00    -0.041 A 
HETATM   19  C   UNL     1      29.514  43.603  54.660  1.00  0.00     0.009 A 
HETATM   20  C   UNL     1      30.635  43.153  55.360  1.00  0.00     0.001 A 
HETATM   21  C   UNL     1      31.160  43.911  56.404  1.00  0.00     0.000 A 
HETATM   22  C   UNL     1      30.567  45.123  56.747  1.00  0.00     0.001 A 
HETATM   23  C   UNL     1      29.440  45.569  56.054  1.00  0.00     0.009 A 
ENDBRANCH  17  18
ENDBRANCH  14  17
ENDBRANCH  12  13
ENDBRANCH  11  12
ENDBRANCH   4  11
BRANCH   8  24
HETATM   24  C   UNL     1      22.177  45.141  46.868  1.00  0.00     0.066 A 
HETATM   25  O   UNL     1      20.915  45.341  46.391  1.00  0.00    -0.326 OA
HETATM   26  C   UNL     1      20.949  45.088  45.058  1.00  0.00     0.142 A 
HETATM   27  C   UNL     1      22.218  44.732  44.668  1.00  0.00     0.027 A 
HETATM   28  C   UNL     1      23.016  44.768  45.838  1.00  0.00     0.035 A 
ENDBRANCH   8  24
BRANCH   9  29
HETATM   29  C   UNL     1      21.712  47.941  48.413  1.00  0.00     0.255 C 
HETATM   30  N   UNL     1      20.969  48.325  49.511  1.00  0.00    -0.322 N 
HETATM   31  H   UNL     1      21.086  47.840  50.396  1.00  0.00     0.169 HD
HETATM   32  O   UNL     1      21.611  48.478  47.313  1.00  0.00    -0.268 OA
BRANCH  30  33
HETATM   33  C   UNL     1      20.019  49.384  49.583  1.00  0.00     0.057 A 
HETATM   34  C   UNL     1      18.661  49.089  49.341  1.00  0.00     0.062 A 
HETATM   35 CL   UNL     1      18.144  47.475  48.992  1.00  0.00    -0.082 Cl
HETATM   36  C   UNL     1      17.677  50.081  49.407  1.00  0.00     0.050 A 
HETATM   37  C   UNL     1      18.042  51.387  49.711  1.00  0.00     0.035 A 
HETATM   38 CL   UNL     1      16.841  52.614  49.800  1.00  0.00    -0.084 Cl
HETATM   39  C   UNL     1      19.375  51.704  49.948  1.00  0.00     0.026 A 
HETATM   40  C   UNL     1      20.357  50.708  49.884  1.00  0.00     0.033 A 
ENDBRANCH  30  33
ENDBRANCH   9  29
TORSDOF 8
ENDMDL
MODEL 5
REMARK VINA RESULT:      -9.5      4.137     10.522
REMARK  8 active torsions:
REMARK  status: ('A' for Active; 'I' for Inactive)
REMARK    1  A    between atoms: C_4  and  S_5 
REMARK    2  A    between atoms: S_5  and  C_6 
REMARK    3  A    between atoms: C_6  and  C_7 
REMARK       I    between atoms: C_7  and  N_8 
REMARK    4  A    between atoms: N_8  and  C_9 
REMARK    5  A    between atoms: C_9  and  C_10 
REMARK    6  A    between atoms: C_20  and  C_21 
REMARK    7  A    between atoms: C_26  and  C_27 
REMARK       I    between atoms: C_27  and  N_28 
REMARK    8  A    between atoms: N_28  and  C_29 
ROOT
HETATM    1  C   UNL     1      23.251  50.456  48.480  1.00  0.00     0.069 C 
HETATM    2  C   UNL     1      22.840  49.000  48.486  1.00  0.00     0.019 C 
HETATM    3  N   UNL     1      23.865  48.115  48.789  1.00  0.00    -0.353 N 
HETATM    4  C   UNL     1      23.710  46.765  49.054  1.00  0.00     0.088 C 
HETATM    5  C   UNL     1      22.506  46.196  48.798  1.00  0.00     0.071 C 
HETATM    6  C   UNL     1      22.218  44.822  49.068  1.00  0.00     0.099 C 
HETATM    7  N   UNL     1      21.956  43.712  49.283  1.00  0.00    -0.192 NA
HETATM    8  C   UNL     1      21.357  47.026  48.206  1.00  0.00     0.130 C 
HETATM    9  C   UNL     1      21.589  48.537  48.235  1.00  0.00     0.048 C 
HETATM   10  H   UNL     1      24.700  48.544  49.169  1.00  0.00     0.166 HD
ENDROOT
BRANCH   4  11
HETATM   11  S   UNL     1      25.010  45.784  49.743  1.00  0.00    -0.102 SA
BRANCH  11  12
HETATM   12  C   UNL     1      25.550  46.768  51.167  1.00  0.00     0.183 C 
BRANCH  12  13
HETATM   13  C   UNL     1      25.697  45.957  52.443  1.00  0.00     0.227 C 
HETATM   14  N   UNL     1      26.652  46.386  53.334  1.00  0.00    -0.356 N 
HETATM   15  H   UNL     1      27.431  46.914  52.955  1.00  0.00     0.162 HD
HETATM   16  O   UNL     1      24.923  45.034  52.692  1.00  0.00    -0.273 OA
BRANCH  14  17
HETATM   17  C   UNL     1      26.857  45.673  54.576  1.00  0.00     0.161 C 
BRANCH  17  18
HETATM   18  C   UNL     1      28.143  44.886  54.624  1.00  0.00    -0.041 A 
HETATM   19  C   UNL     1      29.147  45.134  55.571  1.00  0.00     0.009 A 
HETATM   20  C   UNL     1      30.302  44.349  55.607  1.00  0.00     0.001 A 
HETATM   21  C   UNL     1      30.458  43.291  54.715  1.00  0.00     0.000 A 
HETATM   22  C   UNL     1      29.459  43.015  53.786  1.00  0.00     0.001 A 
HETATM   23  C   UNL     1      28.309  43.805  53.742  1.00  0.00     0.009 A 
ENDBRANCH  17  18
ENDBRANCH  14  17
ENDBRANCH  12  13
ENDBRANCH  11  12
ENDBRANCH   4  11
BRANCH   8  24
HETATM   24  C   UNL     1      20.990  46.551  46.822  1.00  0.00     0.066 A 
HETATM   25  O   UNL     1      22.029  46.184  46.019  1.00  0.00    -0.326 OA
HETATM   26  C   UNL     1      21.496  45.779  44.838  1.00  0.00     0.142 A 
HETATM   27  C   UNL     1      20.125  45.877  44.871  1.00  0.00     0.027 A 
HETATM   28  C   UNL     1      19.794  46.374  46.156  1.00  0.00     0.035 A 
ENDBRANCH   8  24
BRANCH   9  29
HETATM   29  C   UNL     1      20.428  49.493  48.035  1.00  0.00     0.255 C 
HETATM   30  N   UNL     1      19.546  49.635  49.087  1.00  0.00    -0.322 N 
HETATM   31  H   UNL     1      19.662  49.072  49.925  1.00  0.00     0.169 HD
HETATM   32  O   UNL     1      20.338  50.135  46.992  1.00  0.00    -0.268 OA
BRANCH  30  33
HETATM   33  C   UNL     1      18.441  50.530  49.172  1.00  0.00     0.057 A 
HETATM   34  C   UNL     1      17.185  50.098  48.697  1.00  0.00     0.062 A 
HETATM   35 CL   UNL     1      16.972  48.507  48.048  1.00  0.00    -0.082 Cl
HETATM   36  C   UNL     1      16.058  50.924  48.762  1.00  0.00     0.050 A 
HETATM   37  C   UNL     1      16.176  52.200  49.300  1.00  0.00     0.035 A 
HETATM   38 CL   UNL     1      14.796  53.222  49.390  1.00  0.00    -0.084 Cl
HETATM   39  C   UNL     1      17.404  52.651  49.770  1.00  0.00     0.026 A 
HETATM   40  C   UNL     1      18.529  51.820  49.706  1.00  0.00     0.033 A 
ENDBRANCH  30  33
ENDBRANCH   9  29
TORSDOF 8
ENDMDL
MODEL 6
REMARK VINA RESULT:      -9.4      4.246     10.489
REMARK  8 active torsions:
REMARK  status: ('A' for Active; 'I' for Inactive)
REMARK    1  A    between atoms: C_4  and  S_5 
REMARK    2  A    between atoms: S_5  and  C_6 
REMARK    3  A    between atoms: C_6  and  C_7 
REMARK       I    between atoms: C_7  and  N_8 
REMARK    4  A    between atoms: N_8  and  C_9 
REMARK    5  A    between atoms: C_9  and  C_10 
REMARK    6  A    between atoms: C_20  and  C_21 
REMARK    7  A    between atoms: C_26  and  C_27 
REMARK       I    between atoms: C_27  and  N_28 
REMARK    8  A    between atoms: N_28  and  C_29 
ROOT
HETATM    1  C   UNL     1      21.508  44.591  48.712  1.00  0.00     0.069 C 
HETATM    2  C   UNL     1      22.239  45.914  48.700  1.00  0.00     0.019 C 
HETATM    3  N   UNL     1      23.307  45.990  49.583  1.00  0.00    -0.353 N 
HETATM    4  C   UNL     1      24.249  47.003  49.621  1.00  0.00     0.088 C 
HETATM    5  C   UNL     1      24.016  48.123  48.893  1.00  0.00     0.071 C 
HETATM    6  C   UNL     1      24.935  49.216  48.824  1.00  0.00     0.099 C 
HETATM    7  N   UNL     1      25.666  50.114  48.747  1.00  0.00    -0.192 NA
HETATM    8  C   UNL     1      22.727  48.269  48.071  1.00  0.00     0.130 C 
HETATM    9  C   UNL     1      21.933  46.973  47.905  1.00  0.00     0.048 C 
HETATM   10  H   UNL     1      23.599  45.102  49.974  1.00  0.00     0.166 HD
ENDROOT
BRANCH   4  11
HETATM   11  S   UNL     1      25.747  46.862  50.551  1.00  0.00    -0.102 SA
BRANCH  11  12
HETATM   12  C   UNL     1      25.152  46.541  52.233  1.00  0.00     0.183 C 
BRANCH  12  13
HETATM   13  C   UNL     1      25.699  45.259  52.835  1.00  0.00     0.227 C 
HETATM   14  N   UNL     1      27.056  45.063  52.727  1.00  0.00    -0.356 N 
HETATM   15  H   UNL     1      27.527  45.524  51.956  1.00  0.00     0.162 HD
HETATM   16  O   UNL     1      24.968  44.503  53.472  1.00  0.00    -0.273 OA
BRANCH  14  17
HETATM   17  C   UNL     1      27.661  43.869  53.275  1.00  0.00     0.161 C 
BRANCH  17  18
HETATM   18  C   UNL     1      28.725  44.141  54.308  1.00  0.00    -0.041 A 
HETATM   19  C   UNL     1      28.710  45.278  55.129  1.00  0.00     0.009 A 
HETATM   20  C   UNL     1      29.691  45.466  56.105  1.00  0.00     0.001 A 
HETATM   21  C   UNL     1      30.686  44.509  56.290  1.00  0.00     0.000 A 
HETATM   22  C   UNL     1      30.701  43.362  55.502  1.00  0.00     0.001 A 
HETATM   23  C   UNL     1      29.727  43.178  54.519  1.00  0.00     0.009 A 
ENDBRANCH  17  18
ENDBRANCH  14  17
ENDBRANCH  12  13
ENDBRANCH  11  12
ENDBRANCH   4  11
BRANCH   8  24
HETATM   24  C   UNL     1      21.859  49.383  48.599  1.00  0.00     0.066 A 
HETATM   25  O   UNL     1      20.893  49.020  49.490  1.00  0.00    -0.326 OA
HETATM   26  C   UNL     1      20.239  50.152  49.853  1.00  0.00     0.142 A 
HETATM   27  C   UNL     1      20.774  51.243  49.210  1.00  0.00     0.027 A 
HETATM   28  C   UNL     1      21.825  50.748  48.399  1.00  0.00     0.035 A 
ENDBRANCH   8  24
BRANCH   9  29
HETATM   29  C   UNL     1      20.859  46.864  46.840  1.00  0.00     0.255 C 
HETATM   30  N   UNL     1      19.582  47.250  47.197  1.00  0.00    -0.322 N 
HETATM   31  H   UNL     1      19.389  47.539  48.151  1.00  0.00     0.169 HD
HETATM   32  O   UNL     1      21.157  46.495  45.707  1.00  0.00    -0.268 OA
BRANCH  30  33
HETATM   33  C   UNL     1      18.436  47.323  46.355  1.00  0.00     0.057 A 
HETATM   34  C   UNL     1      18.054  48.581  45.842  1.00  0.00     0.062 A 
HETATM   35 CL   UNL     1      18.967  50.007  46.200  1.00  0.00    -0.082 Cl
HETATM   36  C   UNL     1      16.946  48.719  45.001  1.00  0.00     0.050 A 
HETATM   37  C   UNL     1      16.198  47.596  44.665  1.00  0.00     0.035 A 
HETATM   38 CL   UNL     1      14.837  47.752  43.626  1.00  0.00    -0.084 Cl
HETATM   39  C   UNL     1      16.551  46.346  45.161  1.00  0.00     0.026 A 
HETATM   40  C   UNL     1      17.663  46.211  46.001  1.00  0.00     0.033 A 
ENDBRANCH  30  33
ENDBRANCH   9  29
TORSDOF 8
ENDMDL
MODEL 7
REMARK VINA RESULT:      -9.4      4.687      8.778
REMARK  8 active torsions:
REMARK  status: ('A' for Active; 'I' for Inactive)
REMARK    1  A    between atoms: C_4  and  S_5 
REMARK    2  A    between atoms: S_5  and  C_6 
REMARK    3  A    between atoms: C_6  and  C_7 
REMARK       I    between atoms: C_7  and  N_8 
REMARK    4  A    between atoms: N_8  and  C_9 
REMARK    5  A    between atoms: C_9  and  C_10 
REMARK    6  A    between atoms: C_20  and  C_21 
REMARK    7  A    between atoms: C_26  and  C_27 
REMARK       I    between atoms: C_27  and  N_28 
REMARK    8  A    between atoms: N_28  and  C_29 
ROOT
HETATM    1  C   UNL     1      28.111  41.077  51.635  1.00  0.00     0.069 C 
HETATM    2  C   UNL     1      26.878  41.883  51.292  1.00  0.00     0.019 C 
HETATM    3  N   UNL     1      26.256  41.508  50.109  1.00  0.00    -0.353 N 
HETATM    4  C   UNL     1      25.015  41.945  49.680  1.00  0.00     0.088 C 
HETATM    5  C   UNL     1      24.436  42.977  50.339  1.00  0.00     0.071 C 
HETATM    6  C   UNL     1      23.141  43.488  50.010  1.00  0.00     0.099 C 
HETATM    7  N   UNL     1      22.091  43.916  49.767  1.00  0.00    -0.192 NA
HETATM    8  C   UNL     1      25.152  43.657  51.515  1.00  0.00     0.130 C 
HETATM    9  C   UNL     1      26.366  42.892  52.044  1.00  0.00     0.048 C 
HETATM   10  H   UNL     1      26.568  40.623  49.727  1.00  0.00     0.166 HD
ENDROOT
BRANCH   4  11
HETATM   11  S   UNL     1      24.160  41.178  48.334  1.00  0.00    -0.102 SA
BRANCH  11  12
HETATM   12  C   UNL     1      25.307  41.395  46.948  1.00  0.00     0.183 C 
BRANCH  12  13
HETATM   13  C   UNL     1      26.105  40.145  46.619  1.00  0.00     0.227 C 
HETATM   14  N   UNL     1      27.003  39.724  47.571  1.00  0.00    -0.356 N 
HETATM   15  H   UNL     1      27.369  40.430  48.202  1.00  0.00     0.162 HD
HETATM   16  O   UNL     1      25.868  39.500  45.599  1.00  0.00    -0.273 OA
BRANCH  14  17
HETATM   17  C   UNL     1      27.803  38.541  47.341  1.00  0.00     0.161 C 
BRANCH  17  18
HETATM   18  C   UNL     1      28.486  38.014  48.577  1.00  0.00    -0.041 A 
HETATM   19  C   UNL     1      29.744  38.468  48.999  1.00  0.00     0.009 A 
HETATM   20  C   UNL     1      30.318  37.986  50.178  1.00  0.00     0.001 A 
HETATM   21  C   UNL     1      29.633  37.062  50.963  1.00  0.00     0.000 A 
HETATM   22  C   UNL     1      28.372  36.620  50.572  1.00  0.00     0.001 A 
HETATM   23  C   UNL     1      27.801  37.095  49.389  1.00  0.00     0.009 A 
ENDBRANCH  17  18
ENDBRANCH  14  17
ENDBRANCH  12  13
ENDBRANCH  11  12
ENDBRANCH   4  11
BRANCH   8  24
HETATM   24  C   UNL     1      25.502  45.090  51.195  1.00  0.00     0.066 A 
HETATM   25  O   UNL     1      26.192  45.295  50.037  1.00  0.00    -0.326 OA
HETATM   26  C   UNL     1      26.393  46.632  49.925  1.00  0.00     0.142 A 
HETATM   27  C   UNL     1      25.836  47.293  50.994  1.00  0.00     0.027 A 
HETATM   28  C   UNL     1      25.256  46.297  51.817  1.00  0.00     0.035 A 
ENDBRANCH   8  24
BRANCH   9  29
HETATM   29  C   UNL     1      26.951  43.227  53.402  1.00  0.00     0.255 C 
HETATM   30  N   UNL     1      27.962  44.166  53.434  1.00  0.00    -0.322 N 
HETATM   31  H   UNL     1      28.315  44.559  52.568  1.00  0.00     0.169 HD
HETATM   32  O   UNL     1      26.486  42.706  54.413  1.00  0.00    -0.268 OA
BRANCH  30  33
HETATM   33  C   UNL     1      28.601  44.707  54.587  1.00  0.00     0.057 A 
HETATM   34  C   UNL     1      29.850  44.179  54.975  1.00  0.00     0.062 A 
HETATM   35 CL   UNL     1      30.613  42.922  54.063  1.00  0.00    -0.082 Cl
HETATM   36  C   UNL     1      30.535  44.673  56.090  1.00  0.00     0.050 A 
HETATM   37  C   UNL     1      29.973  45.702  56.837  1.00  0.00     0.035 A 
HETATM   38 CL   UNL     1      30.808  46.322  58.207  1.00  0.00    -0.084 Cl
HETATM   39  C   UNL     1      28.740  46.235  56.478  1.00  0.00     0.026 A 
HETATM   40  C   UNL     1      28.059  45.740  55.360  1.00  0.00     0.033 A 
ENDBRANCH  30  33
ENDBRANCH   9  29
TORSDOF 8
ENDMDL
MODEL 8
REMARK VINA RESULT:      -9.1      4.956      8.859
REMARK  8 active torsions:
REMARK  status: ('A' for Active; 'I' for Inactive)
REMARK    1  A    between atoms: C_4  and  S_5 
REMARK    2  A    between atoms: S_5  and  C_6 
REMARK    3  A    between atoms: C_6  and  C_7 
REMARK       I    between atoms: C_7  and  N_8 
REMARK    4  A    between atoms: N_8  and  C_9 
REMARK    5  A    between atoms: C_9  and  C_10 
REMARK    6  A    between atoms: C_20  and  C_21 
REMARK    7  A    between atoms: C_26  and  C_27 
REMARK       I    between atoms: C_27  and  N_28 
REMARK    8  A    between atoms: N_28  and  C_29 
ROOT
HETATM    1  C   UNL     1      28.377  40.958  51.323  1.00  0.00     0.069 C 
HETATM    2  C   UNL     1      27.105  41.740  51.084  1.00  0.00     0.019 C 
HETATM    3  N   UNL     1      26.428  41.397  49.922  1.00  0.00    -0.353 N 
HETATM    4  C   UNL     1      25.152  41.814  49.581  1.00  0.00     0.088 C 
HETATM    5  C   UNL     1      24.583  42.800  50.316  1.00  0.00     0.071 C 
HETATM    6  C   UNL     1      23.258  43.285  50.082  1.00  0.00     0.099 C 
HETATM    7  N   UNL     1      22.184  43.692  49.917  1.00  0.00    -0.192 NA
HETATM    8  C   UNL     1      25.346  43.451  51.479  1.00  0.00     0.130 C 
HETATM    9  C   UNL     1      26.608  42.701  51.906  1.00  0.00     0.048 C 
HETATM   10  H   UNL     1      26.741  40.539  49.485  1.00  0.00     0.166 HD
ENDROOT
BRANCH   4  11
HETATM   11  S   UNL     1      24.245  41.080  48.253  1.00  0.00    -0.102 SA
BRANCH  11  12
HETATM   12  C   UNL     1      25.369  41.263  46.842  1.00  0.00     0.183 C 
BRANCH  12  13
HETATM   13  C   UNL     1      26.255  40.052  46.613  1.00  0.00     0.227 C 
HETATM   14  N   UNL     1      26.449  39.674  45.305  1.00  0.00    -0.356 N 
HETATM   15  H   UNL     1      25.725  39.927  44.641  1.00  0.00     0.162 HD
HETATM   16  O   UNL     1      26.843  39.517  47.552  1.00  0.00    -0.273 OA
BRANCH  14  17
HETATM   17  C   UNL     1      27.281  38.531  44.996  1.00  0.00     0.161 C 
BRANCH  17  18
HETATM   18  C   UNL     1      28.504  38.868  44.182  1.00  0.00    -0.041 A 
HETATM   19  C   UNL     1      29.433  37.899  43.774  1.00  0.00     0.009 A 
HETATM   20  C   UNL     1      30.527  38.250  42.980  1.00  0.00     0.001 A 
HETATM   21  C   UNL     1      30.695  39.568  42.562  1.00  0.00     0.000 A 
HETATM   22  C   UNL     1      29.768  40.537  42.936  1.00  0.00     0.001 A 
HETATM   23  C   UNL     1      28.679  40.189  43.738  1.00  0.00     0.009 A 
ENDBRANCH  17  18
ENDBRANCH  14  17
ENDBRANCH  12  13
ENDBRANCH  11  12
ENDBRANCH   4  11
BRANCH   8  24
HETATM   24  C   UNL     1      25.637  44.905  51.204  1.00  0.00     0.066 A 
HETATM   25  O   UNL     1      25.371  45.773  52.221  1.00  0.00    -0.326 OA
HETATM   26  C   UNL     1      25.711  47.013  51.786  1.00  0.00     0.142 A 
HETATM   27  C   UNL     1      26.197  46.955  50.502  1.00  0.00     0.027 A 
HETATM   28  C   UNL     1      26.153  45.591  50.123  1.00  0.00     0.035 A 
ENDBRANCH   8  24
BRANCH   9  29
HETATM   29  C   UNL     1      27.259  42.995  53.244  1.00  0.00     0.255 C 
HETATM   30  N   UNL     1      27.945  44.188  53.357  1.00  0.00    -0.322 N 
HETATM   31  H   UNL     1      28.039  44.796  52.550  1.00  0.00     0.169 HD
HETATM   32  O   UNL     1      27.117  42.211  54.179  1.00  0.00    -0.268 OA
BRANCH  30  33
HETATM   33  C   UNL     1      28.557  44.723  54.526  1.00  0.00     0.057 A 
HETATM   34  C   UNL     1      29.791  44.185  54.948  1.00  0.00     0.062 A 
HETATM   35 CL   UNL     1      30.567  42.921  54.057  1.00  0.00    -0.082 Cl
HETATM   36  C   UNL     1      30.450  44.673  56.081  1.00  0.00     0.050 A 
HETATM   37  C   UNL     1      29.877  45.707  56.813  1.00  0.00     0.035 A 
HETATM   38 CL   UNL     1      30.680  46.320  58.204  1.00  0.00    -0.084 Cl
HETATM   39  C   UNL     1      28.659  46.251  56.420  1.00  0.00     0.026 A 
HETATM   40  C   UNL     1      28.004  45.762  55.284  1.00  0.00     0.033 A 
ENDBRANCH  30  33
ENDBRANCH   9  29
TORSDOF 8
ENDMDL
MODEL 9
REMARK VINA RESULT:      -9.0      4.547     10.585
REMARK  8 active torsions:
REMARK  status: ('A' for Active; 'I' for Inactive)
REMARK    1  A    between atoms: C_4  and  S_5 
REMARK    2  A    between atoms: S_5  and  C_6 
REMARK    3  A    between atoms: C_6  and  C_7 
REMARK       I    between atoms: C_7  and  N_8 
REMARK    4  A    between atoms: N_8  and  C_9 
REMARK    5  A    between atoms: C_9  and  C_10 
REMARK    6  A    between atoms: C_20  and  C_21 
REMARK    7  A    between atoms: C_26  and  C_27 
REMARK       I    between atoms: C_27  and  N_28 
REMARK    8  A    between atoms: N_28  and  C_29 
ROOT
HETATM    1  C   UNL     1      20.102  45.162  48.372  1.00  0.00     0.069 C 
HETATM    2  C   UNL     1      20.930  46.427  48.346  1.00  0.00     0.019 C 
HETATM    3  N   UNL     1      22.123  46.349  49.050  1.00  0.00    -0.353 N 
HETATM    4  C   UNL     1      23.141  47.286  49.014  1.00  0.00     0.088 C 
HETATM    5  C   UNL     1      22.893  48.480  48.423  1.00  0.00     0.071 C 
HETATM    6  C   UNL     1      23.877  49.509  48.293  1.00  0.00     0.099 C 
HETATM    7  N   UNL     1      24.659  50.357  48.170  1.00  0.00    -0.192 NA
HETATM    8  C   UNL     1      21.509  48.789  47.832  1.00  0.00     0.130 C 
HETATM    9  C   UNL     1      20.594  47.571  47.695  1.00  0.00     0.048 C 
HETATM   10  H   UNL     1      22.398  45.411  49.318  1.00  0.00     0.166 HD
ENDROOT
BRANCH   4  11
HETATM   11  S   UNL     1      24.747  46.958  49.679  1.00  0.00    -0.102 SA
BRANCH  11  12
HETATM   12  C   UNL     1      24.994  45.203  49.299  1.00  0.00     0.183 C 
BRANCH  12  13
HETATM   13  C   UNL     1      26.113  44.561  50.099  1.00  0.00     0.227 C 
HETATM   14  N   UNL     1      25.871  44.357  51.436  1.00  0.00    -0.356 N 
HETATM   15  H   UNL     1      25.193  44.968  51.879  1.00  0.00     0.162 HD
HETATM   16  O   UNL     1      27.132  44.158  49.540  1.00  0.00    -0.273 OA
BRANCH  14  17
HETATM   17  C   UNL     1      26.883  43.749  52.272  1.00  0.00     0.161 C 
BRANCH  17  18
HETATM   18  C   UNL     1      27.389  44.649  53.371  1.00  0.00    -0.041 A 
HETATM   19  C   UNL     1      28.487  44.314  54.179  1.00  0.00     0.009 A 
HETATM   20  C   UNL     1      28.950  45.200  55.154  1.00  0.00     0.001 A 
HETATM   21  C   UNL     1      28.340  46.441  55.320  1.00  0.00     0.000 A 
HETATM   22  C   UNL     1      27.267  46.800  54.510  1.00  0.00     0.001 A 
HETATM   23  C   UNL     1      26.796  45.911  53.541  1.00  0.00     0.009 A 
ENDBRANCH  17  18
ENDBRANCH  14  17
ENDBRANCH  12  13
ENDBRANCH  11  12
ENDBRANCH   4  11
BRANCH   8  24
HETATM   24  C   UNL     1      20.827  49.909  48.578  1.00  0.00     0.066 A 
HETATM   25  O   UNL     1      20.176  49.558  49.723  1.00  0.00    -0.326 OA
HETATM   26  C   UNL     1      19.650  50.694  50.247  1.00  0.00     0.142 A 
HETATM   27  C   UNL     1      19.957  51.775  49.455  1.00  0.00     0.027 A 
HETATM   28  C   UNL     1      20.722  51.270  48.375  1.00  0.00     0.035 A 
ENDBRANCH   8  24
BRANCH   9  29
HETATM   29  C   UNL     1      19.363  47.634  46.811  1.00  0.00     0.255 C 
HETATM   30  N   UNL     1      18.280  48.340  47.295  1.00  0.00    -0.322 N 
HETATM   31  H   UNL     1      18.314  48.744  48.226  1.00  0.00     0.169 HD
HETATM   32  O   UNL     1      19.382  47.113  45.699  1.00  0.00    -0.268 OA
BRANCH  30  33
HETATM   33  C   UNL     1      17.057  48.614  46.619  1.00  0.00     0.057 A 
HETATM   34  C   UNL     1      16.992  49.741  45.773  1.00  0.00     0.062 A 
HETATM   35 CL   UNL     1      18.369  50.760  45.533  1.00  0.00    -0.082 Cl
HETATM   36  C   UNL     1      15.824  50.059  45.072  1.00  0.00     0.050 A 
HETATM   37  C   UNL     1      14.701  49.253  45.213  1.00  0.00     0.035 A 
HETATM   38 CL   UNL     1      13.261  49.630  44.351  1.00  0.00    -0.084 Cl
HETATM   39  C   UNL     1      14.738  48.140  46.045  1.00  0.00     0.026 A 
HETATM   40  C   UNL     1      15.909  47.823  46.743  1.00  0.00     0.033 A 
ENDBRANCH  30  33
ENDBRANCH   9  29
TORSDOF 8
ENDMDL
MODEL 10
REMARK VINA RESULT:      -8.9      4.327     10.732
REMARK  8 active torsions:
REMARK  status: ('A' for Active; 'I' for Inactive)
REMARK    1  A    between atoms: C_4  and  S_5 
REMARK    2  A    between atoms: S_5  and  C_6 
REMARK    3  A    between atoms: C_6  and  C_7 
REMARK       I    between atoms: C_7  and  N_8 
REMARK    4  A    between atoms: N_8  and  C_9 
REMARK    5  A    between atoms: C_9  and  C_10 
REMARK    6  A    between atoms: C_20  and  C_21 
REMARK    7  A    between atoms: C_26  and  C_27 
REMARK       I    between atoms: C_27  and  N_28 
REMARK    8  A    between atoms: N_28  and  C_29 
ROOT
HETATM    1  C   UNL     1      20.128  45.372  48.779  1.00  0.00     0.069 C 
HETATM    2  C   UNL     1      20.839  46.688  48.549  1.00  0.00     0.019 C 
HETATM    3  N   UNL     1      22.077  46.789  49.168  1.00  0.00    -0.353 N 
HETATM    4  C   UNL     1      23.005  47.793  48.952  1.00  0.00     0.088 C 
HETATM    5  C   UNL     1      22.615  48.885  48.249  1.00  0.00     0.071 C 
HETATM    6  C   UNL     1      23.495  49.966  47.932  1.00  0.00     0.099 C 
HETATM    7  N   UNL     1      24.190  50.853  47.656  1.00  0.00    -0.192 NA
HETATM    8  C   UNL     1      21.175  49.010  47.731  1.00  0.00     0.130 C 
HETATM    9  C   UNL     1      20.363  47.716  47.801  1.00  0.00     0.048 C 
HETATM   10  H   UNL     1      22.449  45.914  49.520  1.00  0.00     0.166 HD
ENDROOT
BRANCH   4  11
HETATM   11  S   UNL     1      24.672  47.675  49.529  1.00  0.00    -0.102 SA
BRANCH  11  12
HETATM   12  C   UNL     1      24.670  46.124  50.466  1.00  0.00     0.183 C 
BRANCH  12  13
HETATM   13  C   UNL     1      25.939  45.308  50.291  1.00  0.00     0.227 C 
HETATM   14  N   UNL     1      26.393  44.637  51.402  1.00  0.00    -0.356 N 
HETATM   15  H   UNL     1      26.132  45.015  52.306  1.00  0.00     0.162 HD
HETATM   16  O   UNL     1      26.457  45.184  49.182  1.00  0.00    -0.273 OA
BRANCH  14  17
HETATM   17  C   UNL     1      27.594  43.835  51.324  1.00  0.00     0.161 C 
BRANCH  17  18
HETATM   18  C   UNL     1      28.378  43.781  52.611  1.00  0.00    -0.041 A 
HETATM   19  C   UNL     1      29.541  43.011  52.757  1.00  0.00     0.009 A 
HETATM   20  C   UNL     1      30.262  43.028  53.953  1.00  0.00     0.001 A 
HETATM   21  C   UNL     1      29.843  43.832  55.011  1.00  0.00     0.000 A 
HETATM   22  C   UNL     1      28.706  44.622  54.874  1.00  0.00     0.001 A 
HETATM   23  C   UNL     1      27.979  44.598  53.682  1.00  0.00     0.009 A 
ENDBRANCH  17  18
ENDBRANCH  14  17
ENDBRANCH  12  13
ENDBRANCH  11  12
ENDBRANCH   4  11
BRANCH   8  24
HETATM   24  C   UNL     1      20.446  50.153  48.394  1.00  0.00     0.066 A 
HETATM   25  O   UNL     1      20.134  49.982  49.710  1.00  0.00    -0.326 OA
HETATM   26  C   UNL     1      19.505  51.113  50.120  1.00  0.00     0.142 A 
HETATM   27  C   UNL     1      19.412  52.013  49.085  1.00  0.00     0.027 A 
HETATM   28  C   UNL     1      20.023  51.395  47.966  1.00  0.00     0.035 A 
ENDBRANCH   8  24
BRANCH   9  29
HETATM   29  C   UNL     1      19.077  47.575  47.008  1.00  0.00     0.255 C 
HETATM   30  N   UNL     1      19.183  47.060  45.731  1.00  0.00    -0.322 N 
HETATM   31  H   UNL     1      20.097  46.845  45.346  1.00  0.00     0.169 HD
HETATM   32  O   UNL     1      18.003  47.865  47.529  1.00  0.00    -0.268 OA
BRANCH  30  33
HETATM   33  C   UNL     1      18.119  46.753  44.835  1.00  0.00     0.057 A 
HETATM   34  C   UNL     1      17.426  45.536  45.003  1.00  0.00     0.062 A 
HETATM   35 CL   UNL     1      17.831  44.445  46.285  1.00  0.00    -0.082 Cl
HETATM   36  C   UNL     1      16.366  45.180  44.164  1.00  0.00     0.050 A 
HETATM   37  C   UNL     1      15.987  46.038  43.138  1.00  0.00     0.035 A 
HETATM   38 CL   UNL     1      14.681  45.613  42.103  1.00  0.00    -0.084 Cl
HETATM   39  C   UNL     1      16.659  47.240  42.948  1.00  0.00     0.026 A 
HETATM   40  C   UNL     1      17.718  47.595  43.792  1.00  0.00     0.033 A 
ENDBRANCH  30  33
ENDBRANCH   9  29
TORSDOF 8
ENDMDL
