MODEL 1
REMARK VINA RESULT:     -11.7      0.000      0.000
REMARK  5 active torsions:
REMARK  status: ('A' for Active; 'I' for Inactive)
REMARK    1  A    between atoms: C_4  and  N_5 
REMARK       I    between atoms: N_5  and  C_6 
REMARK    2  A    between atoms: C_6  and  C_7 
REMARK    3  A    between atoms: C_8  and  N_9 
REMARK    4  A    between atoms: N_10  and  N_11 
REMARK    5  A    between atoms: C_12  and  C_13 
ROOT
HETATM    1  C   UNL     1      27.044  44.371  52.364  1.00  0.00     0.110 A 
HETATM    2  C   UNL     1      26.380  45.424  51.767  1.00  0.00     0.143 A 
HETATM    3  N   UNL     1      26.033  45.066  50.468  1.00  0.00    -0.197 N 
HETATM    4  C   UNL     1      26.577  43.815  50.209  1.00  0.00     0.183 A 
HETATM    5  C   UNL     1      27.197  43.374  51.378  1.00  0.00     0.125 A 
HETATM    6  N   UNL     1      27.776  42.150  51.458  1.00  0.00    -0.242 NA
HETATM    7  C   UNL     1      27.750  41.440  50.319  1.00  0.00     0.086 A 
HETATM    8  C   UNL     1      27.128  41.912  49.134  1.00  0.00     0.088 A 
HETATM    9  N   UNL     1      26.517  43.107  49.055  1.00  0.00    -0.225 NA
HETATM   10  C   UNL     1      28.357  40.189  50.310  1.00  0.00     0.034 A 
HETATM   11  C   UNL     1      28.366  39.390  49.166  1.00  0.00     0.002 A 
HETATM   12  C   UNL     1      27.753  39.848  48.008  1.00  0.00     0.002 A 
HETATM   13  C   UNL     1      27.141  41.102  48.005  1.00  0.00     0.034 A 
ENDROOT
BRANCH   1  14
HETATM   14  C   UNL     1      27.374  44.332  53.772  1.00  0.00     0.262 C 
HETATM   15  N   UNL     1      28.596  44.939  53.990  1.00  0.00    -0.322 N 
HETATM   16  H   UNL     1      28.951  45.469  53.206  1.00  0.00     0.169 HD
HETATM   17  O   UNL     1      26.683  43.731  54.581  1.00  0.00    -0.267 OA
BRANCH  15  18
HETATM   18  C   UNL     1      29.508  44.718  55.043  1.00  0.00     0.041 A 
HETATM   19  C   UNL     1      29.542  45.524  56.187  1.00  0.00     0.037 A 
HETATM   20  C   UNL     1      30.370  45.207  57.274  1.00  0.00    -0.060 A 
HETATM   21  C   UNL     1      30.328  46.048  58.517  1.00  0.00     0.048 C 
HETATM   22  C   UNL     1      31.174  44.067  57.211  1.00  0.00     0.007 A 
HETATM   23  C   UNL     1      31.170  43.270  56.069  1.00  0.00     0.009 A 
HETATM   24  C   UNL     1      30.347  43.584  54.975  1.00  0.00    -0.035 A 
HETATM   25  C   UNL     1      30.368  42.666  53.780  1.00  0.00     0.050 C 
ENDBRANCH  15  18
ENDBRANCH   1  14
BRANCH   2  26
HETATM   26  N   UNL     1      25.985  46.620  52.280  1.00  0.00    -0.383 N 
HETATM   27  H   UNL     1      25.042  46.742  52.643  1.00  0.00     0.157 HD
HETATM   28  H   UNL     1      26.687  47.180  52.771  1.00  0.00     0.157 HD
ENDBRANCH   2  26
BRANCH   3  29
HETATM   29  N   UNL     1      25.241  45.899  49.725  1.00  0.00    -0.176 NA
HETATM   30  C   UNL     1      23.976  45.657  49.693  1.00  0.00     0.153 C 
BRANCH  30  31
HETATM   31  C   UNL     1      23.135  46.628  49.015  1.00  0.00     0.011 A 
HETATM   32  C   UNL     1      23.408  48.014  48.778  1.00  0.00     0.004 A 
HETATM   33  C   UNL     1      22.352  48.523  48.019  1.00  0.00     0.043 A 
HETATM   34  C   UNL     1      24.469  48.882  49.115  1.00  0.00     0.014 A 
HETATM   35  C   UNL     1      22.304  49.850  47.577  1.00  0.00     0.030 A 
HETATM   36  N   UNL     1      21.460  47.496  47.822  1.00  0.00    -0.364 N 
HETATM   37  C   UNL     1      23.367  50.687  47.924  1.00  0.00     0.002 A 
HETATM   38  C   UNL     1      24.433  50.214  48.683  1.00  0.00     0.001 A 
HETATM   39  H   UNL     1      20.599  47.576  47.297  1.00  0.00     0.165 HD
HETATM   40  C   UNL     1      21.919  46.354  48.413  1.00  0.00     0.102 A 
ENDBRANCH  30  31
ENDBRANCH   3  29
TORSDOF 5
ENDMDL
MODEL 2
REMARK VINA RESULT:     -11.6      1.461      2.012
REMARK  5 active torsions:
REMARK  status: ('A' for Active; 'I' for Inactive)
REMARK    1  A    between atoms: C_4  and  N_5 
REMARK       I    between atoms: N_5  and  C_6 
REMARK    2  A    between atoms: C_6  and  C_7 
REMARK    3  A    between atoms: C_8  and  N_9 
REMARK    4  A    between atoms: N_10  and  N_11 
REMARK    5  A    between atoms: C_12  and  C_13 
ROOT
HETATM    1  C   UNL     1      26.503  45.072  52.926  1.00  0.00     0.110 A 
HETATM    2  C   UNL     1      26.048  46.303  52.496  1.00  0.00     0.143 A 
HETATM    3  N   UNL     1      25.407  46.149  51.271  1.00  0.00    -0.197 N 
HETATM    4  C   UNL     1      25.553  44.825  50.875  1.00  0.00     0.183 A 
HETATM    5  C   UNL     1      26.221  44.151  51.896  1.00  0.00     0.125 A 
HETATM    6  N   UNL     1      26.464  42.818  51.828  1.00  0.00    -0.242 NA
HETATM    7  C   UNL     1      26.063  42.231  50.689  1.00  0.00     0.086 A 
HETATM    8  C   UNL     1      25.397  42.937  49.654  1.00  0.00     0.088 A 
HETATM    9  N   UNL     1      25.117  44.250  49.728  1.00  0.00    -0.225 NA
HETATM   10  C   UNL     1      26.310  40.872  50.528  1.00  0.00     0.034 A 
HETATM   11  C   UNL     1      25.917  40.191  49.375  1.00  0.00     0.002 A 
HETATM   12  C   UNL     1      25.261  40.879  48.364  1.00  0.00     0.002 A 
HETATM   13  C   UNL     1      25.008  42.243  48.514  1.00  0.00     0.034 A 
ENDROOT
BRANCH   1  14
HETATM   14  C   UNL     1      27.041  44.839  54.248  1.00  0.00     0.262 C 
HETATM   15  N   UNL     1      28.350  45.278  54.312  1.00  0.00    -0.322 N 
HETATM   16  H   UNL     1      28.643  45.849  53.531  1.00  0.00     0.169 HD
HETATM   17  O   UNL     1      26.414  44.231  55.104  1.00  0.00    -0.267 OA
BRANCH  15  18
HETATM   18  C   UNL     1      29.380  44.840  55.170  1.00  0.00     0.041 A 
HETATM   19  C   UNL     1      29.661  45.472  56.388  1.00  0.00     0.037 A 
HETATM   20  C   UNL     1      30.603  44.940  57.281  1.00  0.00    -0.060 A 
HETATM   21  C   UNL     1      30.827  45.598  58.611  1.00  0.00     0.048 C 
HETATM   22  C   UNL     1      31.272  43.762  56.947  1.00  0.00     0.007 A 
HETATM   23  C   UNL     1      31.022  43.136  55.728  1.00  0.00     0.009 A 
HETATM   24  C   UNL     1      30.084  43.664  54.827  1.00  0.00    -0.035 A 
HETATM   25  C   UNL     1      29.838  42.925  53.537  1.00  0.00     0.050 C 
ENDBRANCH  15  18
ENDBRANCH   1  14
BRANCH   2  26
HETATM   26  N   UNL     1      26.073  47.514  53.113  1.00  0.00    -0.383 N 
HETATM   27  H   UNL     1      26.807  48.188  52.901  1.00  0.00     0.157 HD
HETATM   28  H   UNL     1      25.176  47.948  53.345  1.00  0.00     0.157 HD
ENDBRANCH   2  26
BRANCH   3  29
HETATM   29  N   UNL     1      24.749  47.211  50.713  1.00  0.00    -0.176 NA
HETATM   30  C   UNL     1      25.210  47.693  49.611  1.00  0.00     0.153 C 
BRANCH  30  31
HETATM   31  C   UNL     1      24.422  48.727  48.962  1.00  0.00     0.011 A 
HETATM   32  C   UNL     1      23.026  48.702  48.648  1.00  0.00     0.004 A 
HETATM   33  C   UNL     1      22.697  49.947  48.108  1.00  0.00     0.043 A 
HETATM   34  C   UNL     1      21.999  47.745  48.796  1.00  0.00     0.014 A 
HETATM   35  C   UNL     1      21.398  50.285  47.713  1.00  0.00     0.030 A 
HETATM   36  N   UNL     1      23.851  50.693  48.072  1.00  0.00    -0.364 N 
HETATM   37  C   UNL     1      20.400  49.319  47.871  1.00  0.00     0.002 A 
HETATM   38  C   UNL     1      20.694  48.066  48.401  1.00  0.00     0.001 A 
HETATM   39  H   UNL     1      23.910  51.644  47.733  1.00  0.00     0.165 HD
HETATM   40  C   UNL     1      24.892  49.974  48.583  1.00  0.00     0.102 A 
ENDBRANCH  30  31
ENDBRANCH   3  29
TORSDOF 5
ENDMDL
MODEL 3
REMARK VINA RESULT:     -11.3      2.446      9.263
REMARK  5 active torsions:
REMARK  status: ('A' for Active; 'I' for Inactive)
REMARK    1  A    between atoms: C_4  and  N_5 
REMARK       I    between atoms: N_5  and  C_6 
REMARK    2  A    between atoms: C_6  and  C_7 
REMARK    3  A    between atoms: C_8  and  N_9 
REMARK    4  A    between atoms: N_10  and  N_11 
REMARK    5  A    between atoms: C_12  and  C_13 
ROOT
HETATM    1  C   UNL     1      24.858  45.631  50.187  1.00  0.00     0.110 A 
HETATM    2  C   UNL     1      25.323  44.383  49.826  1.00  0.00     0.143 A 
HETATM    3  N   UNL     1      26.100  43.869  50.860  1.00  0.00    -0.197 N 
HETATM    4  C   UNL     1      26.213  44.849  51.838  1.00  0.00     0.183 A 
HETATM    5  C   UNL     1      25.441  45.938  51.435  1.00  0.00     0.125 A 
HETATM    6  N   UNL     1      25.303  47.039  52.215  1.00  0.00    -0.242 NA
HETATM    7  C   UNL     1      26.006  47.011  53.357  1.00  0.00     0.086 A 
HETATM    8  C   UNL     1      26.799  45.899  53.744  1.00  0.00     0.088 A 
HETATM    9  N   UNL     1      26.912  44.787  52.997  1.00  0.00    -0.225 NA
HETATM   10  C   UNL     1      25.947  48.120  54.194  1.00  0.00     0.034 A 
HETATM   11  C   UNL     1      26.645  48.162  55.402  1.00  0.00     0.002 A 
HETATM   12  C   UNL     1      27.416  47.073  55.783  1.00  0.00     0.002 A 
HETATM   13  C   UNL     1      27.485  45.955  54.952  1.00  0.00     0.034 A 
ENDROOT
BRANCH   1  14
HETATM   14  C   UNL     1      23.866  46.362  49.430  1.00  0.00     0.262 C 
HETATM   15  N   UNL     1      24.287  47.663  49.227  1.00  0.00    -0.322 N 
HETATM   16  H   UNL     1      25.259  47.832  49.449  1.00  0.00     0.169 HD
HETATM   17  O   UNL     1      22.783  45.874  49.143  1.00  0.00    -0.267 OA
BRANCH  15  18
HETATM   18  C   UNL     1      23.502  48.812  49.000  1.00  0.00     0.041 A 
HETATM   19  C   UNL     1      22.159  48.891  49.388  1.00  0.00     0.037 A 
HETATM   20  C   UNL     1      21.437  50.088  49.266  1.00  0.00    -0.060 A 
HETATM   21  C   UNL     1      20.023  50.163  49.761  1.00  0.00     0.048 C 
HETATM   22  C   UNL     1      22.071  51.218  48.746  1.00  0.00     0.007 A 
HETATM   23  C   UNL     1      23.399  51.147  48.331  1.00  0.00     0.009 A 
HETATM   24  C   UNL     1      24.127  49.952  48.446  1.00  0.00    -0.035 A 
HETATM   25  C   UNL     1      25.567  49.948  48.006  1.00  0.00     0.050 C 
ENDBRANCH  15  18
ENDBRANCH   1  14
BRANCH   2  26
HETATM   26  N   UNL     1      25.063  43.633  48.722  1.00  0.00    -0.383 N 
HETATM   27  H   UNL     1      24.566  44.034  47.929  1.00  0.00     0.157 HD
HETATM   28  H   UNL     1      25.751  42.924  48.457  1.00  0.00     0.157 HD
ENDBRANCH   2  26
BRANCH   3  29
HETATM   29  N   UNL     1      26.556  42.581  50.788  1.00  0.00    -0.176 NA
HETATM   30  C   UNL     1      27.826  42.396  50.681  1.00  0.00     0.153 C 
BRANCH  30  31
HETATM   31  C   UNL     1      28.302  41.025  50.745  1.00  0.00     0.011 A 
HETATM   32  C   UNL     1      28.377  40.070  49.681  1.00  0.00     0.004 A 
HETATM   33  C   UNL     1      28.976  38.918  50.197  1.00  0.00     0.043 A 
HETATM   34  C   UNL     1      28.016  40.083  48.317  1.00  0.00     0.014 A 
HETATM   35  C   UNL     1      29.236  37.784  49.420  1.00  0.00     0.030 A 
HETATM   36  N   UNL     1      29.234  39.153  51.526  1.00  0.00    -0.364 N 
HETATM   37  C   UNL     1      28.869  37.823  48.072  1.00  0.00     0.002 A 
HETATM   38  C   UNL     1      28.265  38.953  47.527  1.00  0.00     0.001 A 
HETATM   39  H   UNL     1      29.674  38.491  52.152  1.00  0.00     0.165 HD
HETATM   40  C   UNL     1      28.836  40.414  51.867  1.00  0.00     0.102 A 
ENDBRANCH  30  31
ENDBRANCH   3  29
TORSDOF 5
ENDMDL
MODEL 4
REMARK VINA RESULT:     -11.3      2.619      9.355
REMARK  5 active torsions:
REMARK  status: ('A' for Active; 'I' for Inactive)
REMARK    1  A    between atoms: C_4  and  N_5 
REMARK       I    between atoms: N_5  and  C_6 
REMARK    2  A    between atoms: C_6  and  C_7 
REMARK    3  A    between atoms: C_8  and  N_9 
REMARK    4  A    between atoms: N_10  and  N_11 
REMARK    5  A    between atoms: C_12  and  C_13 
ROOT
HETATM    1  C   UNL     1      23.945  47.186  49.597  1.00  0.00     0.110 A 
HETATM    2  C   UNL     1      25.045  46.846  50.358  1.00  0.00     0.143 A 
HETATM    3  N   UNL     1      25.368  45.514  50.122  1.00  0.00    -0.197 N 
HETATM    4  C   UNL     1      24.397  44.979  49.285  1.00  0.00     0.183 A 
HETATM    5  C   UNL     1      23.518  46.009  48.949  1.00  0.00     0.125 A 
HETATM    6  N   UNL     1      22.487  45.810  48.091  1.00  0.00    -0.242 NA
HETATM    7  C   UNL     1      22.357  44.549  47.649  1.00  0.00     0.086 A 
HETATM    8  C   UNL     1      23.253  43.511  48.014  1.00  0.00     0.088 A 
HETATM    9  N   UNL     1      24.301  43.706  48.833  1.00  0.00    -0.225 NA
HETATM   10  C   UNL     1      21.300  44.258  46.794  1.00  0.00     0.034 A 
HETATM   11  C   UNL     1      21.103  42.972  46.288  1.00  0.00     0.002 A 
HETATM   12  C   UNL     1      21.982  41.957  46.640  1.00  0.00     0.002 A 
HETATM   13  C   UNL     1      23.046  42.237  47.499  1.00  0.00     0.034 A 
ENDROOT
BRANCH   1  14
HETATM   14  C   UNL     1      23.462  48.543  49.454  1.00  0.00     0.262 C 
HETATM   15  N   UNL     1      22.081  48.557  49.452  1.00  0.00    -0.322 N 
HETATM   16  H   UNL     1      21.648  47.692  49.743  1.00  0.00     0.169 HD
HETATM   17  O   UNL     1      24.221  49.480  49.251  1.00  0.00    -0.267 OA
BRANCH  15  18
HETATM   18  C   UNL     1      21.216  49.510  48.874  1.00  0.00     0.041 A 
HETATM   19  C   UNL     1      20.548  49.281  47.665  1.00  0.00     0.037 A 
HETATM   20  C   UNL     1      19.597  50.190  47.177  1.00  0.00    -0.060 A 
HETATM   21  C   UNL     1      18.843  49.879  45.918  1.00  0.00     0.048 C 
HETATM   22  C   UNL     1      19.316  51.343  47.911  1.00  0.00     0.007 A 
HETATM   23  C   UNL     1      19.991  51.598  49.102  1.00  0.00     0.009 A 
HETATM   24  C   UNL     1      20.947  50.695  49.595  1.00  0.00    -0.035 A 
HETATM   25  C   UNL     1      21.623  51.014  50.903  1.00  0.00     0.050 C 
ENDBRANCH  15  18
ENDBRANCH   1  14
BRANCH   2  26
HETATM   26  N   UNL     1      25.827  47.612  51.165  1.00  0.00    -0.383 N 
HETATM   27  H   UNL     1      25.412  48.323  51.766  1.00  0.00     0.157 HD
HETATM   28  H   UNL     1      26.665  47.181  51.563  1.00  0.00     0.157 HD
ENDBRANCH   2  26
BRANCH   3  29
HETATM   29  N   UNL     1      26.512  44.989  50.660  1.00  0.00    -0.176 NA
HETATM   30  C   UNL     1      26.395  44.197  51.668  1.00  0.00     0.153 C 
BRANCH  30  31
HETATM   31  C   UNL     1      27.604  43.542  52.138  1.00  0.00     0.011 A 
HETATM   32  C   UNL     1      28.393  43.873  53.286  1.00  0.00     0.004 A 
HETATM   33  C   UNL     1      29.408  42.918  53.384  1.00  0.00     0.043 A 
HETATM   34  C   UNL     1      28.327  44.882  54.270  1.00  0.00     0.014 A 
HETATM   35  C   UNL     1      30.354  42.917  54.415  1.00  0.00     0.030 A 
HETATM   36  N   UNL     1      29.257  42.054  52.326  1.00  0.00    -0.364 N 
HETATM   37  C   UNL     1      30.265  43.927  55.376  1.00  0.00     0.002 A 
HETATM   38  C   UNL     1      29.270  44.898  55.306  1.00  0.00     0.001 A 
HETATM   39  H   UNL     1      29.852  41.255  52.147  1.00  0.00     0.165 HD
HETATM   40  C   UNL     1      28.178  42.416  51.572  1.00  0.00     0.102 A 
ENDBRANCH  30  31
ENDBRANCH   3  29
TORSDOF 5
ENDMDL
MODEL 5
REMARK VINA RESULT:     -10.8      2.482      6.767
REMARK  5 active torsions:
REMARK  status: ('A' for Active; 'I' for Inactive)
REMARK    1  A    between atoms: C_4  and  N_5 
REMARK       I    between atoms: N_5  and  C_6 
REMARK    2  A    between atoms: C_6  and  C_7 
REMARK    3  A    between atoms: C_8  and  N_9 
REMARK    4  A    between atoms: N_10  and  N_11 
REMARK    5  A    between atoms: C_12  and  C_13 
ROOT
HETATM    1  C   UNL     1      28.150  42.304  51.758  1.00  0.00     0.110 A 
HETATM    2  C   UNL     1      28.074  41.204  50.927  1.00  0.00     0.143 A 
HETATM    3  N   UNL     1      27.224  41.494  49.864  1.00  0.00    -0.197 N 
HETATM    4  C   UNL     1      26.676  42.752  50.085  1.00  0.00     0.183 A 
HETATM    5  C   UNL     1      27.250  43.263  51.248  1.00  0.00     0.125 A 
HETATM    6  N   UNL     1      26.956  44.509  51.697  1.00  0.00    -0.242 NA
HETATM    7  C   UNL     1      26.042  45.168  50.969  1.00  0.00     0.086 A 
HETATM    8  C   UNL     1      25.457  44.625  49.795  1.00  0.00     0.088 A 
HETATM    9  N   UNL     1      25.770  43.407  49.320  1.00  0.00    -0.225 NA
HETATM   10  C   UNL     1      25.659  46.438  51.387  1.00  0.00     0.034 A 
HETATM   11  C   UNL     1      24.719  47.188  50.679  1.00  0.00     0.002 A 
HETATM   12  C   UNL     1      24.151  46.660  49.528  1.00  0.00     0.002 A 
HETATM   13  C   UNL     1      24.526  45.386  49.099  1.00  0.00     0.034 A 
ENDROOT
BRANCH   1  14
HETATM   14  C   UNL     1      29.093  42.415  52.850  1.00  0.00     0.262 C 
HETATM   15  N   UNL     1      28.512  43.080  53.913  1.00  0.00    -0.322 N 
HETATM   16  H   UNL     1      27.510  43.195  53.843  1.00  0.00     0.169 HD
HETATM   17  O   UNL     1      30.256  42.055  52.738  1.00  0.00    -0.267 OA
BRANCH  15  18
HETATM   18  C   UNL     1      29.144  43.820  54.933  1.00  0.00     0.041 A 
HETATM   19  C   UNL     1      30.242  43.325  55.648  1.00  0.00     0.037 A 
HETATM   20  C   UNL     1      30.931  44.129  56.568  1.00  0.00    -0.060 A 
HETATM   21  C   UNL     1      32.150  43.596  57.262  1.00  0.00     0.048 C 
HETATM   22  C   UNL     1      30.512  45.445  56.774  1.00  0.00     0.007 A 
HETATM   23  C   UNL     1      29.406  45.943  56.089  1.00  0.00     0.009 A 
HETATM   24  C   UNL     1      28.708  45.143  55.170  1.00  0.00    -0.035 A 
HETATM   25  C   UNL     1      27.537  45.748  54.441  1.00  0.00     0.050 C 
ENDBRANCH  15  18
ENDBRANCH   1  14
BRANCH   2  26
HETATM   26  N   UNL     1      28.737  40.018  50.975  1.00  0.00    -0.383 N 
HETATM   27  H   UNL     1      28.818  39.505  51.851  1.00  0.00     0.157 HD
HETATM   28  H   UNL     1      28.690  39.415  50.151  1.00  0.00     0.157 HD
ENDBRANCH   2  26
BRANCH   3  29
HETATM   29  N   UNL     1      27.102  40.603  48.833  1.00  0.00    -0.176 NA
HETATM   30  C   UNL     1      27.750  40.846  47.747  1.00  0.00     0.153 C 
BRANCH  30  31
HETATM   31  C   UNL     1      27.719  39.823  46.716  1.00  0.00     0.011 A 
HETATM   32  C   UNL     1      28.138  39.937  45.351  1.00  0.00     0.004 A 
HETATM   33  C   UNL     1      28.001  38.677  44.766  1.00  0.00     0.043 A 
HETATM   34  C   UNL     1      28.646  40.990  44.561  1.00  0.00     0.014 A 
HETATM   35  C   UNL     1      28.350  38.414  43.437  1.00  0.00     0.030 A 
HETATM   36  N   UNL     1      27.497  37.834  45.728  1.00  0.00    -0.364 N 
HETATM   37  C   UNL     1      28.852  39.474  42.677  1.00  0.00     0.002 A 
HETATM   38  C   UNL     1      28.996  40.744  43.227  1.00  0.00     0.001 A 
HETATM   39  H   UNL     1      27.302  36.851  45.586  1.00  0.00     0.165 HD
HETATM   40  C   UNL     1      27.326  38.509  46.902  1.00  0.00     0.102 A 
ENDBRANCH  30  31
ENDBRANCH   3  29
TORSDOF 5
ENDMDL
MODEL 6
REMARK VINA RESULT:     -10.7      2.859      9.859
REMARK  5 active torsions:
REMARK  status: ('A' for Active; 'I' for Inactive)
REMARK    1  A    between atoms: C_4  and  N_5 
REMARK       I    between atoms: N_5  and  C_6 
REMARK    2  A    between atoms: C_6  and  C_7 
REMARK    3  A    between atoms: C_8  and  N_9 
REMARK    4  A    between atoms: N_10  and  N_11 
REMARK    5  A    between atoms: C_12  and  C_13 
ROOT
HETATM    1  C   UNL     1      23.669  44.926  49.391  1.00  0.00     0.110 A 
HETATM    2  C   UNL     1      24.759  44.818  50.230  1.00  0.00     0.143 A 
HETATM    3  N   UNL     1      25.155  46.092  50.629  1.00  0.00    -0.197 N 
HETATM    4  C   UNL     1      24.371  47.016  49.949  1.00  0.00     0.183 A 
HETATM    5  C   UNL     1      23.444  46.303  49.189  1.00  0.00     0.125 A 
HETATM    6  N   UNL     1      22.496  46.934  48.451  1.00  0.00    -0.242 NA
HETATM    7  C   UNL     1      22.564  48.274  48.474  1.00  0.00     0.086 A 
HETATM    8  C   UNL     1      23.524  48.981  49.243  1.00  0.00     0.088 A 
HETATM    9  N   UNL     1      24.444  48.367  50.007  1.00  0.00    -0.225 NA
HETATM   10  C   UNL     1      21.648  48.992  47.713  1.00  0.00     0.034 A 
HETATM   11  C   UNL     1      21.652  50.387  47.691  1.00  0.00     0.002 A 
HETATM   12  C   UNL     1      22.587  51.080  48.446  1.00  0.00     0.002 A 
HETATM   13  C   UNL     1      23.512  50.370  49.213  1.00  0.00     0.034 A 
ENDROOT
BRANCH   1  14
HETATM   14  C   UNL     1      22.888  43.791  48.950  1.00  0.00     0.262 C 
HETATM   15  N   UNL     1      22.704  43.845  47.581  1.00  0.00    -0.322 N 
HETATM   16  H   UNL     1      23.285  44.518  47.103  1.00  0.00     0.169 HD
HETATM   17  O   UNL     1      22.394  43.000  49.740  1.00  0.00    -0.267 OA
BRANCH  15  18
HETATM   18  C   UNL     1      21.663  43.280  46.815  1.00  0.00     0.041 A 
HETATM   19  C   UNL     1      20.459  43.953  46.573  1.00  0.00     0.037 A 
HETATM   20  C   UNL     1      19.493  43.424  45.704  1.00  0.00    -0.060 A 
HETATM   21  C   UNL     1      18.247  44.206  45.406  1.00  0.00     0.048 C 
HETATM   22  C   UNL     1      19.738  42.204  45.072  1.00  0.00     0.007 A 
HETATM   23  C   UNL     1      20.919  41.510  45.323  1.00  0.00     0.009 A 
HETATM   24  C   UNL     1      21.889  42.031  46.195  1.00  0.00    -0.035 A 
HETATM   25  C   UNL     1      23.158  41.246  46.403  1.00  0.00     0.050 C 
ENDBRANCH  15  18
ENDBRANCH   1  14
BRANCH   2  26
HETATM   26  N   UNL     1      25.377  43.716  50.734  1.00  0.00    -0.383 N 
HETATM   27  H   UNL     1      24.888  42.824  50.779  1.00  0.00     0.157 HD
HETATM   28  H   UNL     1      26.383  43.623  50.579  1.00  0.00     0.157 HD
ENDBRANCH   2  26
BRANCH   3  29
HETATM   29  N   UNL     1      26.132  46.231  51.577  1.00  0.00    -0.176 NA
HETATM   30  C   UNL     1      25.772  46.248  52.813  1.00  0.00     0.153 C 
BRANCH  30  31
HETATM   31  C   UNL     1      26.830  46.258  53.809  1.00  0.00     0.011 A 
HETATM   32  C   UNL     1      27.768  45.217  54.105  1.00  0.00     0.004 A 
HETATM   33  C   UNL     1      28.645  45.709  55.074  1.00  0.00     0.043 A 
HETATM   34  C   UNL     1      27.971  43.907  53.622  1.00  0.00     0.014 A 
HETATM   35  C   UNL     1      29.715  44.963  55.580  1.00  0.00     0.030 A 
HETATM   36  N   UNL     1      28.245  46.989  55.373  1.00  0.00    -0.364 N 
HETATM   37  C   UNL     1      29.895  43.669  55.083  1.00  0.00     0.002 A 
HETATM   38  C   UNL     1      29.036  43.145  54.121  1.00  0.00     0.001 A 
HETATM   39  H   UNL     1      28.704  47.593  56.042  1.00  0.00     0.165 HD
HETATM   40  C   UNL     1      27.158  47.331  54.620  1.00  0.00     0.102 A 
ENDBRANCH  30  31
ENDBRANCH   3  29
TORSDOF 5
ENDMDL
MODEL 7
REMARK VINA RESULT:     -10.7      1.966      5.642
REMARK  5 active torsions:
REMARK  status: ('A' for Active; 'I' for Inactive)
REMARK    1  A    between atoms: C_4  and  N_5 
REMARK       I    between atoms: N_5  and  C_6 
REMARK    2  A    between atoms: C_6  and  C_7 
REMARK    3  A    between atoms: C_8  and  N_9 
REMARK    4  A    between atoms: N_10  and  N_11 
REMARK    5  A    between atoms: C_12  and  C_13 
ROOT
HETATM    1  C   UNL     1      26.275  43.922  50.447  1.00  0.00     0.110 A 
HETATM    2  C   UNL     1      25.344  44.740  49.839  1.00  0.00     0.143 A 
HETATM    3  N   UNL     1      25.215  45.912  50.579  1.00  0.00    -0.197 N 
HETATM    4  C   UNL     1      25.994  45.785  51.722  1.00  0.00     0.183 A 
HETATM    5  C   UNL     1      26.659  44.561  51.644  1.00  0.00     0.125 A 
HETATM    6  N   UNL     1      27.546  44.173  52.594  1.00  0.00    -0.242 NA
HETATM    7  C   UNL     1      27.680  45.027  53.621  1.00  0.00     0.086 A 
HETATM    8  C   UNL     1      26.982  46.261  53.690  1.00  0.00     0.088 A 
HETATM    9  N   UNL     1      26.131  46.673  52.735  1.00  0.00    -0.225 NA
HETATM   10  C   UNL     1      28.543  44.682  54.655  1.00  0.00     0.034 A 
HETATM   11  C   UNL     1      28.739  45.520  55.753  1.00  0.00     0.002 A 
HETATM   12  C   UNL     1      28.063  46.730  55.819  1.00  0.00     0.002 A 
HETATM   13  C   UNL     1      27.192  47.087  54.788  1.00  0.00     0.034 A 
ENDROOT
BRANCH   1  14
HETATM   14  C   UNL     1      26.792  42.715  49.841  1.00  0.00     0.262 C 
HETATM   15  N   UNL     1      26.890  41.713  50.787  1.00  0.00    -0.322 N 
HETATM   16  H   UNL     1      26.418  41.907  51.659  1.00  0.00     0.169 HD
HETATM   17  O   UNL     1      27.176  42.688  48.680  1.00  0.00    -0.267 OA
BRANCH  15  18
HETATM   18  C   UNL     1      27.749  40.595  50.792  1.00  0.00     0.041 A 
HETATM   19  C   UNL     1      27.928  39.782  49.666  1.00  0.00     0.037 A 
HETATM   20  C   UNL     1      28.882  38.754  49.656  1.00  0.00    -0.060 A 
HETATM   21  C   UNL     1      29.103  37.949  48.408  1.00  0.00     0.048 C 
HETATM   22  C   UNL     1      29.666  38.538  50.791  1.00  0.00     0.007 A 
HETATM   23  C   UNL     1      29.482  39.322  51.928  1.00  0.00     0.009 A 
HETATM   24  C   UNL     1      28.525  40.350  51.947  1.00  0.00    -0.035 A 
HETATM   25  C   UNL     1      28.394  41.180  53.197  1.00  0.00     0.050 C 
ENDBRANCH  15  18
ENDBRANCH   1  14
BRANCH   2  26
HETATM   26  N   UNL     1      24.670  44.588  48.668  1.00  0.00    -0.383 N 
HETATM   27  H   UNL     1      23.676  44.802  48.611  1.00  0.00     0.157 HD
HETATM   28  H   UNL     1      25.178  44.773  47.800  1.00  0.00     0.157 HD
ENDBRANCH   2  26
BRANCH   3  29
HETATM   29  N   UNL     1      24.450  46.938  50.093  1.00  0.00    -0.176 NA
HETATM   30  C   UNL     1      25.046  47.879  49.447  1.00  0.00     0.153 C 
BRANCH  30  31
HETATM   31  C   UNL     1      24.206  48.885  48.821  1.00  0.00     0.011 A 
HETATM   32  C   UNL     1      22.805  48.805  48.532  1.00  0.00     0.004 A 
HETATM   33  C   UNL     1      22.416  50.040  48.009  1.00  0.00     0.043 A 
HETATM   34  C   UNL     1      21.822  47.806  48.691  1.00  0.00     0.014 A 
HETATM   35  C   UNL     1      21.098  50.329  47.641  1.00  0.00     0.030 A 
HETATM   36  N   UNL     1      23.538  50.833  47.958  1.00  0.00    -0.364 N 
HETATM   37  C   UNL     1      20.143  49.321  47.808  1.00  0.00     0.002 A 
HETATM   38  C   UNL     1      20.497  48.078  48.323  1.00  0.00     0.001 A 
HETATM   39  H   UNL     1      23.552  51.788  47.626  1.00  0.00     0.165 HD
HETATM   40  C   UNL     1      24.618  50.153  48.444  1.00  0.00     0.102 A 
ENDBRANCH  30  31
ENDBRANCH   3  29
TORSDOF 5
ENDMDL
MODEL 8
REMARK VINA RESULT:     -10.5      2.628      3.908
REMARK  5 active torsions:
REMARK  status: ('A' for Active; 'I' for Inactive)
REMARK    1  A    between atoms: C_4  and  N_5 
REMARK       I    between atoms: N_5  and  C_6 
REMARK    2  A    between atoms: C_6  and  C_7 
REMARK    3  A    between atoms: C_8  and  N_9 
REMARK    4  A    between atoms: N_10  and  N_11 
REMARK    5  A    between atoms: C_12  and  C_13 
ROOT
HETATM    1  C   UNL     1      25.970  45.108  50.470  1.00  0.00     0.110 A 
HETATM    2  C   UNL     1      25.667  46.442  50.285  1.00  0.00     0.143 A 
HETATM    3  N   UNL     1      24.548  46.546  49.465  1.00  0.00    -0.197 N 
HETATM    4  C   UNL     1      24.207  45.267  49.042  1.00  0.00     0.183 A 
HETATM    5  C   UNL     1      25.076  44.372  49.666  1.00  0.00     0.125 A 
HETATM    6  N   UNL     1      24.958  43.031  49.495  1.00  0.00    -0.242 NA
HETATM    7  C   UNL     1      23.988  42.655  48.647  1.00  0.00     0.086 A 
HETATM    8  C   UNL     1      23.123  43.583  48.010  1.00  0.00     0.088 A 
HETATM    9  N   UNL     1      23.206  44.910  48.202  1.00  0.00    -0.225 NA
HETATM   10  C   UNL     1      23.828  41.298  48.391  1.00  0.00     0.034 A 
HETATM   11  C   UNL     1      22.838  40.830  47.525  1.00  0.00     0.002 A 
HETATM   12  C   UNL     1      21.988  41.735  46.906  1.00  0.00     0.002 A 
HETATM   13  C   UNL     1      22.139  43.100  47.154  1.00  0.00     0.034 A 
ENDROOT
BRANCH   1  14
HETATM   14  C   UNL     1      26.953  44.639  51.422  1.00  0.00     0.262 C 
HETATM   15  N   UNL     1      26.595  45.020  52.701  1.00  0.00    -0.322 N 
HETATM   16  H   UNL     1      25.651  45.368  52.790  1.00  0.00     0.169 HD
HETATM   17  O   UNL     1      27.987  44.092  51.066  1.00  0.00    -0.267 OA
BRANCH  15  18
HETATM   18  C   UNL     1      27.430  45.219  53.820  1.00  0.00     0.041 A 
HETATM   19  C   UNL     1      28.461  44.333  54.154  1.00  0.00     0.037 A 
HETATM   20  C   UNL     1      29.357  44.620  55.195  1.00  0.00    -0.060 A 
HETATM   21  C   UNL     1      30.498  43.687  55.479  1.00  0.00     0.048 C 
HETATM   22  C   UNL     1      29.213  45.809  55.911  1.00  0.00     0.007 A 
HETATM   23  C   UNL     1      28.176  46.688  55.608  1.00  0.00     0.009 A 
HETATM   24  C   UNL     1      27.274  46.406  54.570  1.00  0.00    -0.035 A 
HETATM   25  C   UNL     1      26.190  47.410  54.273  1.00  0.00     0.050 C 
ENDBRANCH  15  18
ENDBRANCH   1  14
BRANCH   2  26
HETATM   26  N   UNL     1      26.226  47.555  50.831  1.00  0.00    -0.383 N 
HETATM   27  H   UNL     1      26.864  48.133  50.288  1.00  0.00     0.157 HD
HETATM   28  H   UNL     1      25.667  48.086  51.504  1.00  0.00     0.157 HD
ENDBRANCH   2  26
BRANCH   3  29
HETATM   29  N   UNL     1      23.974  47.770  49.254  1.00  0.00    -0.176 NA
HETATM   30  C   UNL     1      22.714  47.807  48.990  1.00  0.00     0.153 C 
BRANCH  30  31
HETATM   31  C   UNL     1      22.094  49.118  48.906  1.00  0.00     0.011 A 
HETATM   32  C   UNL     1      20.773  49.494  49.312  1.00  0.00     0.004 A 
HETATM   33  C   UNL     1      20.654  50.872  49.118  1.00  0.00     0.043 A 
HETATM   34  C   UNL     1      19.672  48.796  49.852  1.00  0.00     0.014 A 
HETATM   35  C   UNL     1      19.495  51.587  49.440  1.00  0.00     0.030 A 
HETATM   36  N   UNL     1      21.845  51.314  48.594  1.00  0.00    -0.364 N 
HETATM   37  C   UNL     1      18.419  50.872  49.974  1.00  0.00     0.002 A 
HETATM   38  C   UNL     1      18.503  49.497  50.175  1.00  0.00     0.001 A 
HETATM   39  H   UNL     1      22.046  52.277  48.358  1.00  0.00     0.165 HD
HETATM   40  C   UNL     1      22.718  50.273  48.463  1.00  0.00     0.102 A 
ENDBRANCH  30  31
ENDBRANCH   3  29
TORSDOF 5
ENDMDL
MODEL 9
REMARK VINA RESULT:     -10.4      1.772      8.538
REMARK  5 active torsions:
REMARK  status: ('A' for Active; 'I' for Inactive)
REMARK    1  A    between atoms: C_4  and  N_5 
REMARK       I    between atoms: N_5  and  C_6 
REMARK    2  A    between atoms: C_6  and  C_7 
REMARK    3  A    between atoms: C_8  and  N_9 
REMARK    4  A    between atoms: N_10  and  N_11 
REMARK    5  A    between atoms: C_12  and  C_13 
ROOT
HETATM    1  C   UNL     1      26.417  44.691  51.492  1.00  0.00     0.110 A 
HETATM    2  C   UNL     1      26.410  43.597  50.650  1.00  0.00     0.143 A 
HETATM    3  N   UNL     1      27.290  42.638  51.142  1.00  0.00    -0.197 N 
HETATM    4  C   UNL     1      27.938  43.178  52.246  1.00  0.00     0.183 A 
HETATM    5  C   UNL     1      27.397  44.443  52.475  1.00  0.00     0.125 A 
HETATM    6  N   UNL     1      27.789  45.203  53.528  1.00  0.00    -0.242 NA
HETATM    7  C   UNL     1      28.761  44.664  54.280  1.00  0.00     0.086 A 
HETATM    8  C   UNL     1      29.309  43.380  54.022  1.00  0.00     0.088 A 
HETATM    9  N   UNL     1      28.902  42.603  53.005  1.00  0.00    -0.225 NA
HETATM   10  C   UNL     1      29.243  45.399  55.357  1.00  0.00     0.034 A 
HETATM   11  C   UNL     1      30.249  44.903  56.188  1.00  0.00     0.002 A 
HETATM   12  C   UNL     1      30.782  43.646  55.941  1.00  0.00     0.002 A 
HETATM   13  C   UNL     1      30.307  42.899  54.862  1.00  0.00     0.034 A 
ENDROOT
BRANCH   1  14
HETATM   14  C   UNL     1      25.477  45.785  51.385  1.00  0.00     0.262 C 
HETATM   15  N   UNL     1      25.349  46.174  50.065  1.00  0.00    -0.322 N 
HETATM   16  H   UNL     1      25.752  45.534  49.395  1.00  0.00     0.169 HD
HETATM   17  O   UNL     1      24.991  46.319  52.372  1.00  0.00    -0.267 OA
BRANCH  15  18
HETATM   18  C   UNL     1      24.966  47.432  49.556  1.00  0.00     0.041 A 
HETATM   19  C   UNL     1      23.628  47.842  49.499  1.00  0.00     0.037 A 
HETATM   20  C   UNL     1      23.283  49.144  49.108  1.00  0.00    -0.060 A 
HETATM   21  C   UNL     1      21.846  49.577  49.130  1.00  0.00     0.048 C 
HETATM   22  C   UNL     1      24.294  50.046  48.769  1.00  0.00     0.007 A 
HETATM   23  C   UNL     1      25.627  49.645  48.797  1.00  0.00     0.009 A 
HETATM   24  C   UNL     1      25.980  48.342  49.182  1.00  0.00    -0.035 A 
HETATM   25  C   UNL     1      27.442  47.978  49.218  1.00  0.00     0.050 C 
ENDBRANCH  15  18
ENDBRANCH   1  14
BRANCH   2  26
HETATM   26  N   UNL     1      25.650  43.336  49.553  1.00  0.00    -0.383 N 
HETATM   27  H   UNL     1      25.481  44.060  48.856  1.00  0.00     0.157 HD
HETATM   28  H   UNL     1      25.693  42.393  49.159  1.00  0.00     0.157 HD
ENDBRANCH   2  26
BRANCH   3  29
HETATM   29  N   UNL     1      27.348  41.406  50.550  1.00  0.00    -0.176 NA
HETATM   30  C   UNL     1      28.393  41.121  49.854  1.00  0.00     0.153 C 
BRANCH  30  31
HETATM   31  C   UNL     1      28.501  39.763  49.349  1.00  0.00     0.011 A 
HETATM   32  C   UNL     1      28.299  39.305  48.007  1.00  0.00     0.004 A 
HETATM   33  C   UNL     1      28.594  37.940  47.983  1.00  0.00     0.043 A 
HETATM   34  C   UNL     1      27.918  39.929  46.800  1.00  0.00     0.014 A 
HETATM   35  C   UNL     1      28.532  37.169  46.817  1.00  0.00     0.030 A 
HETATM   36  N   UNL     1      28.938  37.575  49.263  1.00  0.00    -0.364 N 
HETATM   37  C   UNL     1      28.152  37.812  45.635  1.00  0.00     0.002 A 
HETATM   38  C   UNL     1      27.847  39.170  45.624  1.00  0.00     0.001 A 
HETATM   39  H   UNL     1      29.207  36.641  49.541  1.00  0.00     0.165 HD
HETATM   40  C   UNL     1      28.887  38.659  50.091  1.00  0.00     0.102 A 
ENDBRANCH  30  31
ENDBRANCH   3  29
TORSDOF 5
ENDMDL
MODEL 10
REMARK VINA RESULT:     -10.3      2.107      6.686
REMARK  5 active torsions:
REMARK  status: ('A' for Active; 'I' for Inactive)
REMARK    1  A    between atoms: C_4  and  N_5 
REMARK       I    between atoms: N_5  and  C_6 
REMARK    2  A    between atoms: C_6  and  C_7 
REMARK    3  A    between atoms: C_8  and  N_9 
REMARK    4  A    between atoms: N_10  and  N_11 
REMARK    5  A    between atoms: C_12  and  C_13 
ROOT
HETATM    1  C   UNL     1      26.816  41.684  50.242  1.00  0.00     0.110 A 
HETATM    2  C   UNL     1      26.115  42.668  49.573  1.00  0.00     0.143 A 
HETATM    3  N   UNL     1      26.359  43.895  50.183  1.00  0.00    -0.197 N 
HETATM    4  C   UNL     1      27.135  43.665  51.312  1.00  0.00     0.183 A 
HETATM    5  C   UNL     1      27.429  42.303  51.350  1.00  0.00     0.125 A 
HETATM    6  N   UNL     1      28.226  41.775  52.313  1.00  0.00    -0.242 NA
HETATM    7  C   UNL     1      28.650  42.652  53.237  1.00  0.00     0.086 A 
HETATM    8  C   UNL     1      28.327  44.033  53.189  1.00  0.00     0.088 A 
HETATM    9  N   UNL     1      27.571  44.574  52.218  1.00  0.00    -0.225 NA
HETATM   10  C   UNL     1      29.441  42.180  54.278  1.00  0.00     0.034 A 
HETATM   11  C   UNL     1      29.924  43.032  55.272  1.00  0.00     0.002 A 
HETATM   12  C   UNL     1      29.614  44.383  55.223  1.00  0.00     0.002 A 
HETATM   13  C   UNL     1      28.820  44.869  54.184  1.00  0.00     0.034 A 
ENDROOT
BRANCH   1  14
HETATM   14  C   UNL     1      26.942  40.327  49.757  1.00  0.00     0.262 C 
HETATM   15  N   UNL     1      27.895  40.267  48.758  1.00  0.00    -0.322 N 
HETATM   16  H   UNL     1      28.469  41.093  48.671  1.00  0.00     0.169 HD
HETATM   17  O   UNL     1      26.200  39.433  50.138  1.00  0.00    -0.267 OA
BRANCH  15  18
HETATM   18  C   UNL     1      28.005  39.331  47.708  1.00  0.00     0.041 A 
HETATM   19  C   UNL     1      27.403  39.531  46.460  1.00  0.00     0.037 A 
HETATM   20  C   UNL     1      27.632  38.649  45.394  1.00  0.00    -0.060 A 
HETATM   21  C   UNL     1      27.034  38.932  44.047  1.00  0.00     0.048 C 
HETATM   22  C   UNL     1      28.475  37.552  45.584  1.00  0.00     0.007 A 
HETATM   23  C   UNL     1      29.060  37.326  46.827  1.00  0.00     0.009 A 
HETATM   24  C   UNL     1      28.831  38.202  47.901  1.00  0.00    -0.035 A 
HETATM   25  C   UNL     1      29.516  37.917  49.212  1.00  0.00     0.050 C 
ENDBRANCH  15  18
ENDBRANCH   1  14
BRANCH   2  26
HETATM   26  N   UNL     1      25.360  42.598  48.444  1.00  0.00    -0.383 N 
HETATM   27  H   UNL     1      24.476  43.100  48.381  1.00  0.00     0.157 HD
HETATM   28  H   UNL     1      25.850  42.519  47.550  1.00  0.00     0.157 HD
ENDBRANCH   2  26
BRANCH   3  29
HETATM   29  N   UNL     1      25.882  45.043  49.610  1.00  0.00    -0.176 NA
HETATM   30  C   UNL     1      24.972  45.699  50.242  1.00  0.00     0.153 C 
BRANCH  30  31
HETATM   31  C   UNL     1      24.578  46.983  49.688  1.00  0.00     0.011 A 
HETATM   32  C   UNL     1      25.426  48.070  49.301  1.00  0.00     0.004 A 
HETATM   33  C   UNL     1      24.609  49.058  48.746  1.00  0.00     0.043 A 
HETATM   34  C   UNL     1      26.817  48.300  49.347  1.00  0.00     0.014 A 
HETATM   35  C   UNL     1      25.111  50.259  48.231  1.00  0.00     0.030 A 
HETATM   36  N   UNL     1      23.314  48.601  48.813  1.00  0.00    -0.364 N 
HETATM   37  C   UNL     1      26.493  50.460  48.288  1.00  0.00     0.002 A 
HETATM   38  C   UNL     1      27.335  49.499  48.839  1.00  0.00     0.001 A 
HETATM   39  H   UNL     1      22.508  49.110  48.476  1.00  0.00     0.165 HD
HETATM   40  C   UNL     1      23.283  47.357  49.374  1.00  0.00     0.102 A 
ENDBRANCH  30  31
ENDBRANCH   3  29
TORSDOF 5
ENDMDL
