MODEL 1
REMARK VINA RESULT:      -9.0      0.000      0.000
REMARK  3 active torsions:
REMARK  status: ('A' for Active; 'I' for Inactive)
REMARK    1  A    between atoms: C_6  and  N_7 
REMARK       I    between atoms: N_7  and  C_8 
REMARK    2  A    between atoms: C_8  and  C_9 
REMARK    3  A    between atoms: C_9  and  C_10 
ROOT
HETATM    1  C   UNL     1      25.391  44.409  50.887  1.00  0.00     0.286 C 
HETATM    2  N   UNL     1      24.803  43.101  51.402  1.00  0.00    -0.056 N 
HETATM    3  H   UNL     1      25.501  42.737  52.089  1.00  0.00     0.278 HD
HETATM    4  H   UNL     1      23.949  43.266  51.948  1.00  0.00     0.278 HD
HETATM    5  C   UNL     1      24.587  42.047  50.354  1.00  0.00     0.209 C 
HETATM    6  C   UNL     1      25.892  41.840  49.543  1.00  0.00     0.115 C 
HETATM    7  N   UNL     1      26.510  43.094  49.109  1.00  0.00    -0.353 N 
HETATM    8  C   UNL     1      26.567  44.207  49.915  1.00  0.00     0.249 C 
HETATM    9  O   UNL     1      27.453  45.039  49.761  1.00  0.00    -0.271 OA
HETATM   10  C   UNL     1      23.378  42.417  49.493  1.00  0.00     0.035 C 
HETATM   11  C   UNL     1      23.187  41.418  48.355  1.00  0.00     0.002 C 
HETATM   12  C   UNL     1      24.450  41.304  47.508  1.00  0.00     0.002 C 
HETATM   13  C   UNL     1      25.659  40.902  48.351  1.00  0.00     0.027 C 
HETATM   14  H   UNL     1      27.330  43.022  48.509  1.00  0.00     0.163 HD
ENDROOT
BRANCH   1  15
HETATM   15  C   UNL     1      25.756  45.361  52.032  1.00  0.00     0.146 C 
BRANCH  15  16
HETATM   16  C   UNL     1      26.424  44.641  53.185  1.00  0.00     0.224 C 
HETATM   17  N   UNL     1      27.790  44.778  53.170  1.00  0.00    -0.327 N 
HETATM   18  H   UNL     1      28.208  44.927  52.256  1.00  0.00     0.169 HD
HETATM   19  O   UNL     1      25.723  44.089  54.031  1.00  0.00    -0.273 OA
BRANCH  17  20
HETATM   20  C   UNL     1      28.733  44.543  54.200  1.00  0.00     0.040 A 
HETATM   21  C   UNL     1      29.024  45.386  55.288  1.00  0.00    -0.035 A 
HETATM   22  C   UNL     1      30.025  44.990  56.205  1.00  0.00     0.015 A 
HETATM   23  C   UNL     1      28.390  46.721  55.547  1.00  0.00     0.050 C 
HETATM   24  C   UNL     1      30.761  43.812  56.041  1.00  0.00    -0.061 A 
HETATM   25  C   UNL     1      31.867  43.463  56.993  1.00  0.00     0.048 C 
HETATM   26  C   UNL     1      30.501  43.013  54.934  1.00  0.00     0.009 A 
HETATM   27  C   UNL     1      29.500  43.375  54.030  1.00  0.00     0.030 A 
ENDBRANCH  17  20
ENDBRANCH  15  16
ENDBRANCH   1  15
TORSDOF 3
ENDMDL
MODEL 2
REMARK VINA RESULT:      -8.8      1.918      3.053
REMARK  3 active torsions:
REMARK  status: ('A' for Active; 'I' for Inactive)
REMARK    1  A    between atoms: C_6  and  N_7 
REMARK       I    between atoms: N_7  and  C_8 
REMARK    2  A    between atoms: C_8  and  C_9 
REMARK    3  A    between atoms: C_9  and  C_10 
ROOT
HETATM    1  C   UNL     1      27.143  43.314  51.043  1.00  0.00     0.286 C 
HETATM    2  N   UNL     1      26.012  43.647  52.009  1.00  0.00    -0.056 N 
HETATM    3  H   UNL     1      25.508  42.746  52.164  1.00  0.00     0.278 HD
HETATM    4  H   UNL     1      26.377  43.914  52.930  1.00  0.00     0.278 HD
HETATM    5  C   UNL     1      25.020  44.654  51.500  1.00  0.00     0.209 C 
HETATM    6  C   UNL     1      24.508  44.223  50.101  1.00  0.00     0.115 C 
HETATM    7  N   UNL     1      25.580  43.825  49.188  1.00  0.00    -0.353 N 
HETATM    8  C   UNL     1      26.663  43.083  49.599  1.00  0.00     0.249 C 
HETATM    9  O   UNL     1      27.267  42.375  48.803  1.00  0.00    -0.271 OA
HETATM   10  C   UNL     1      25.644  46.050  51.525  1.00  0.00     0.035 C 
HETATM   11  C   UNL     1      24.699  47.085  50.923  1.00  0.00     0.002 C 
HETATM   12  C   UNL     1      24.286  46.695  49.508  1.00  0.00     0.002 C 
HETATM   13  C   UNL     1      23.630  45.314  49.474  1.00  0.00     0.027 C 
HETATM   14  H   UNL     1      25.314  43.602  48.230  1.00  0.00     0.163 HD
ENDROOT
BRANCH   1  15
HETATM   15  C   UNL     1      28.003  42.151  51.550  1.00  0.00     0.146 C 
BRANCH  15  16
HETATM   16  C   UNL     1      28.311  42.268  53.028  1.00  0.00     0.224 C 
HETATM   17  N   UNL     1      29.201  43.278  53.301  1.00  0.00    -0.327 N 
HETATM   18  H   UNL     1      29.845  43.512  52.551  1.00  0.00     0.169 HD
HETATM   19  O   UNL     1      27.717  41.541  53.822  1.00  0.00    -0.273 OA
BRANCH  17  20
HETATM   20  C   UNL     1      29.500  43.910  54.532  1.00  0.00     0.040 A 
HETATM   21  C   UNL     1      28.856  45.031  55.085  1.00  0.00    -0.035 A 
HETATM   22  C   UNL     1      29.319  45.539  56.321  1.00  0.00     0.015 A 
HETATM   23  C   UNL     1      27.725  45.785  54.450  1.00  0.00     0.050 C 
HETATM   24  C   UNL     1      30.420  44.990  56.987  1.00  0.00    -0.061 A 
HETATM   25  C   UNL     1      30.929  45.604  58.258  1.00  0.00     0.048 C 
HETATM   26  C   UNL     1      31.082  43.916  56.404  1.00  0.00     0.009 A 
HETATM   27  C   UNL     1      30.626  43.385  55.196  1.00  0.00     0.030 A 
ENDBRANCH  17  20
ENDBRANCH  15  16
ENDBRANCH   1  15
TORSDOF 3
ENDMDL
MODEL 3
REMARK VINA RESULT:      -8.7      0.747      1.626
REMARK  3 active torsions:
REMARK  status: ('A' for Active; 'I' for Inactive)
REMARK    1  A    between atoms: C_6  and  N_7 
REMARK       I    between atoms: N_7  and  C_8 
REMARK    2  A    between atoms: C_8  and  C_9 
REMARK    3  A    between atoms: C_9  and  C_10 
ROOT
HETATM    1  C   UNL     1      25.104  44.804  51.455  1.00  0.00     0.286 C 
HETATM    2  N   UNL     1      24.872  43.329  51.760  1.00  0.00    -0.056 N 
HETATM    3  H   UNL     1      25.755  42.998  52.210  1.00  0.00     0.278 HD
HETATM    4  H   UNL     1      24.144  43.207  52.473  1.00  0.00     0.278 HD
HETATM    5  C   UNL     1      24.611  42.466  50.558  1.00  0.00     0.209 C 
HETATM    6  C   UNL     1      25.721  42.693  49.500  1.00  0.00     0.115 C 
HETATM    7  N   UNL     1      26.010  44.107  49.255  1.00  0.00    -0.353 N 
HETATM    8  C   UNL     1      26.054  45.038  50.267  1.00  0.00     0.249 C 
HETATM    9  O   UNL     1      26.732  46.051  50.147  1.00  0.00    -0.271 OA
HETATM   10  C   UNL     1      23.198  42.727  50.034  1.00  0.00     0.035 C 
HETATM   11  C   UNL     1      22.932  41.941  48.755  1.00  0.00     0.002 C 
HETATM   12  C   UNL     1      23.977  42.254  47.690  1.00  0.00     0.002 C 
HETATM   13  C   UNL     1      25.393  41.966  48.189  1.00  0.00     0.027 C 
HETATM   14  H   UNL     1      26.678  44.323  48.516  1.00  0.00     0.163 HD
ENDROOT
BRANCH   1  15
HETATM   15  C   UNL     1      25.548  45.581  52.699  1.00  0.00     0.146 C 
BRANCH  15  16
HETATM   16  C   UNL     1      26.357  44.726  53.651  1.00  0.00     0.224 C 
HETATM   17  N   UNL     1      27.709  44.821  53.424  1.00  0.00    -0.327 N 
HETATM   18  H   UNL     1      27.979  45.049  52.472  1.00  0.00     0.169 HD
HETATM   19  O   UNL     1      25.777  44.112  54.544  1.00  0.00    -0.273 OA
BRANCH  17  20
HETATM   20  C   UNL     1      28.793  44.452  54.256  1.00  0.00     0.040 A 
HETATM   21  C   UNL     1      29.543  43.264  54.190  1.00  0.00    -0.035 A 
HETATM   22  C   UNL     1      30.578  43.062  55.132  1.00  0.00     0.015 A 
HETATM   23  C   UNL     1      29.313  42.143  53.219  1.00  0.00     0.050 C 
HETATM   24  C   UNL     1      30.850  43.982  56.150  1.00  0.00    -0.061 A 
HETATM   25  C   UNL     1      31.906  43.697  57.176  1.00  0.00     0.048 C 
HETATM   26  C   UNL     1      30.068  45.127  56.237  1.00  0.00     0.009 A 
HETATM   27  C   UNL     1      29.056  45.357  55.302  1.00  0.00     0.030 A 
ENDBRANCH  17  20
ENDBRANCH  15  16
ENDBRANCH   1  15
TORSDOF 3
ENDMDL
MODEL 4
REMARK VINA RESULT:      -8.4      5.141      8.721
REMARK  3 active torsions:
REMARK  status: ('A' for Active; 'I' for Inactive)
REMARK    1  A    between atoms: C_6  and  N_7 
REMARK       I    between atoms: N_7  and  C_8 
REMARK    2  A    between atoms: C_8  and  C_9 
REMARK    3  A    between atoms: C_9  and  C_10 
ROOT
HETATM    1  C   UNL     1      24.665  45.486  50.891  1.00  0.00     0.286 C 
HETATM    2  N   UNL     1      26.151  45.817  50.961  1.00  0.00    -0.056 N 
HETATM    3  H   UNL     1      26.564  45.416  50.089  1.00  0.00     0.278 HD
HETATM    4  H   UNL     1      26.310  46.828  50.894  1.00  0.00     0.278 HD
HETATM    5  C   UNL     1      26.878  45.225  52.135  1.00  0.00     0.209 C 
HETATM    6  C   UNL     1      26.598  43.702  52.210  1.00  0.00     0.115 C 
HETATM    7  N   UNL     1      25.181  43.364  52.065  1.00  0.00    -0.353 N 
HETATM    8  C   UNL     1      24.357  44.004  51.167  1.00  0.00     0.249 C 
HETATM    9  O   UNL     1      23.369  43.435  50.719  1.00  0.00    -0.271 OA
HETATM   10  C   UNL     1      26.503  45.984  53.409  1.00  0.00     0.035 C 
HETATM   11  C   UNL     1      27.146  45.349  54.637  1.00  0.00     0.002 C 
HETATM   12  C   UNL     1      26.776  43.874  54.750  1.00  0.00     0.002 C 
HETATM   13  C   UNL     1      27.176  43.096  53.496  1.00  0.00     0.027 C 
HETATM   14  H   UNL     1      24.923  42.386  52.180  1.00  0.00     0.163 HD
ENDROOT
BRANCH   1  15
HETATM   15  C   UNL     1      24.036  45.962  49.577  1.00  0.00     0.146 C 
BRANCH  15  16
HETATM   16  C   UNL     1      23.702  47.439  49.604  1.00  0.00     0.224 C 
HETATM   17  N   UNL     1      22.673  47.761  48.752  1.00  0.00    -0.327 N 
HETATM   18  H   UNL     1      22.563  47.153  47.946  1.00  0.00     0.169 HD
HETATM   19  O   UNL     1      24.294  48.171  50.394  1.00  0.00    -0.273 OA
BRANCH  17  20
HETATM   20  C   UNL     1      21.867  48.925  48.709  1.00  0.00     0.040 A 
HETATM   21  C   UNL     1      22.264  50.213  48.309  1.00  0.00    -0.035 A 
HETATM   22  C   UNL     1      21.316  51.261  48.360  1.00  0.00     0.015 A 
HETATM   23  C   UNL     1      23.645  50.600  47.866  1.00  0.00     0.050 C 
HETATM   24  C   UNL     1      20.015  51.067  48.834  1.00  0.00    -0.061 A 
HETATM   25  C   UNL     1      19.061  52.220  48.944  1.00  0.00     0.048 C 
HETATM   26  C   UNL     1      19.650  49.801  49.276  1.00  0.00     0.009 A 
HETATM   27  C   UNL     1      20.564  48.747  49.211  1.00  0.00     0.030 A 
ENDBRANCH  17  20
ENDBRANCH  15  16
ENDBRANCH   1  15
TORSDOF 3
ENDMDL
MODEL 5
REMARK VINA RESULT:      -8.2      7.005     10.009
REMARK  3 active torsions:
REMARK  status: ('A' for Active; 'I' for Inactive)
REMARK    1  A    between atoms: C_6  and  N_7 
REMARK       I    between atoms: N_7  and  C_8 
REMARK    2  A    between atoms: C_8  and  C_9 
REMARK    3  A    between atoms: C_9  and  C_10 
ROOT
HETATM    1  C   UNL     1      24.514  49.044  48.540  1.00  0.00     0.286 C 
HETATM    2  N   UNL     1      23.645  48.469  49.652  1.00  0.00    -0.056 N 
HETATM    3  H   UNL     1      23.614  49.210  50.388  1.00  0.00     0.278 HD
HETATM    4  H   UNL     1      22.673  48.354  49.343  1.00  0.00     0.278 HD
HETATM    5  C   UNL     1      24.172  47.211  50.282  1.00  0.00     0.209 C 
HETATM    6  C   UNL     1      25.645  47.420  50.718  1.00  0.00     0.115 C 
HETATM    7  N   UNL     1      26.473  48.045  49.685  1.00  0.00    -0.353 N 
HETATM    8  C   UNL     1      26.013  49.068  48.888  1.00  0.00     0.249 C 
HETATM    9  O   UNL     1      26.797  49.871  48.398  1.00  0.00    -0.271 OA
HETATM   10  C   UNL     1      23.974  46.034  49.325  1.00  0.00     0.035 C 
HETATM   11  C   UNL     1      24.586  44.756  49.891  1.00  0.00     0.002 C 
HETATM   12  C   UNL     1      26.062  44.953  50.219  1.00  0.00     0.002 C 
HETATM   13  C   UNL     1      26.271  46.105  51.201  1.00  0.00     0.027 C 
HETATM   14  H   UNL     1      27.467  48.141  49.884  1.00  0.00     0.163 HD
ENDROOT
BRANCH   1  15
HETATM   15  C   UNL     1      24.015  50.417  48.078  1.00  0.00     0.146 C 
BRANCH  15  16
HETATM   16  C   UNL     1      22.853  50.915  48.911  1.00  0.00     0.224 C 
HETATM   17  N   UNL     1      21.675  50.946  48.206  1.00  0.00    -0.327 N 
HETATM   18  H   UNL     1      21.767  51.069  47.201  1.00  0.00     0.169 HD
HETATM   19  O   UNL     1      23.035  51.164  50.101  1.00  0.00    -0.273 OA
BRANCH  17  20
HETATM   20  C   UNL     1      20.342  51.037  48.676  1.00  0.00     0.040 A 
HETATM   21  C   UNL     1      19.571  50.003  49.236  1.00  0.00    -0.035 A 
HETATM   22  C   UNL     1      18.240  50.283  49.624  1.00  0.00     0.015 A 
HETATM   23  C   UNL     1      20.023  48.585  49.423  1.00  0.00     0.050 C 
HETATM   24  C   UNL     1      17.656  51.539  49.429  1.00  0.00    -0.061 A 
HETATM   25  C   UNL     1      16.217  51.776  49.784  1.00  0.00     0.048 C 
HETATM   26  C   UNL     1      18.411  52.538  48.826  1.00  0.00     0.009 A 
HETATM   27  C   UNL     1      19.735  52.289  48.457  1.00  0.00     0.030 A 
ENDBRANCH  17  20
ENDBRANCH  15  16
ENDBRANCH   1  15
TORSDOF 3
ENDMDL
MODEL 6
REMARK VINA RESULT:      -8.1      3.441      8.097
REMARK  3 active torsions:
REMARK  status: ('A' for Active; 'I' for Inactive)
REMARK    1  A    between atoms: C_6  and  N_7 
REMARK       I    between atoms: N_7  and  C_8 
REMARK    2  A    between atoms: C_8  and  C_9 
REMARK    3  A    between atoms: C_9  and  C_10 
ROOT
HETATM    1  C   UNL     1      27.085  45.060  53.926  1.00  0.00     0.286 C 
HETATM    2  N   UNL     1      27.888  46.344  54.098  1.00  0.00    -0.056 N 
HETATM    3  H   UNL     1      28.412  46.462  53.202  1.00  0.00     0.278 HD
HETATM    4  H   UNL     1      27.271  47.162  54.158  1.00  0.00     0.278 HD
HETATM    5  C   UNL     1      28.884  46.324  55.222  1.00  0.00     0.209 C 
HETATM    6  C   UNL     1      29.782  45.067  55.103  1.00  0.00     0.115 C 
HETATM    7  N   UNL     1      29.028  43.836  54.860  1.00  0.00    -0.353 N 
HETATM    8  C   UNL     1      27.947  43.788  54.011  1.00  0.00     0.249 C 
HETATM    9  O   UNL     1      27.639  42.739  53.458  1.00  0.00    -0.271 OA
HETATM   10  C   UNL     1      28.152  46.435  56.560  1.00  0.00     0.035 C 
HETATM   11  C   UNL     1      29.124  46.320  57.730  1.00  0.00     0.002 C 
HETATM   12  C   UNL     1      29.928  45.027  57.650  1.00  0.00     0.002 C 
HETATM   13  C   UNL     1      30.691  44.919  56.330  1.00  0.00     0.027 C 
HETATM   14  H   UNL     1      29.556  42.964  54.846  1.00  0.00     0.163 HD
ENDROOT
BRANCH   1  15
HETATM   15  C   UNL     1      26.231  45.085  52.654  1.00  0.00     0.146 C 
BRANCH  15  16
HETATM   16  C   UNL     1      25.909  46.496  52.208  1.00  0.00     0.224 C 
HETATM   17  N   UNL     1      26.032  46.659  50.850  1.00  0.00    -0.327 N 
HETATM   18  H   UNL     1      26.693  46.040  50.390  1.00  0.00     0.169 HD
HETATM   19  O   UNL     1      25.514  47.310  53.040  1.00  0.00    -0.273 OA
BRANCH  17  20
HETATM   20  C   UNL     1      25.536  47.689  50.015  1.00  0.00     0.040 A 
HETATM   21  C   UNL     1      26.290  48.653  49.321  1.00  0.00    -0.035 A 
HETATM   22  C   UNL     1      25.609  49.625  48.554  1.00  0.00     0.015 A 
HETATM   23  C   UNL     1      27.785  48.777  49.358  1.00  0.00     0.050 C 
HETATM   24  C   UNL     1      24.212  49.685  48.497  1.00  0.00    -0.061 A 
HETATM   25  C   UNL     1      23.524  50.778  47.733  1.00  0.00     0.048 C 
HETATM   26  C   UNL     1      23.476  48.760  49.228  1.00  0.00     0.009 A 
HETATM   27  C   UNL     1      24.131  47.777  49.974  1.00  0.00     0.030 A 
ENDBRANCH  17  20
ENDBRANCH  15  16
ENDBRANCH   1  15
TORSDOF 3
ENDMDL
MODEL 7
REMARK VINA RESULT:      -7.9      6.446      9.404
REMARK  3 active torsions:
REMARK  status: ('A' for Active; 'I' for Inactive)
REMARK    1  A    between atoms: C_6  and  N_7 
REMARK       I    between atoms: N_7  and  C_8 
REMARK    2  A    between atoms: C_8  and  C_9 
REMARK    3  A    between atoms: C_9  and  C_10 
ROOT
HETATM    1  C   UNL     1      24.022  47.221  49.389  1.00  0.00     0.286 C 
HETATM    2  N   UNL     1      22.798  46.316  49.318  1.00  0.00    -0.056 N 
HETATM    3  H   UNL     1      22.189  46.613  50.113  1.00  0.00     0.278 HD
HETATM    4  H   UNL     1      22.247  46.502  48.472  1.00  0.00     0.278 HD
HETATM    5  C   UNL     1      23.084  44.849  49.474  1.00  0.00     0.209 C 
HETATM    6  C   UNL     1      23.931  44.614  50.751  1.00  0.00     0.115 C 
HETATM    7  N   UNL     1      25.066  45.530  50.872  1.00  0.00    -0.353 N 
HETATM    8  C   UNL     1      24.978  46.863  50.541  1.00  0.00     0.249 C 
HETATM    9  O   UNL     1      25.721  47.682  51.068  1.00  0.00    -0.271 OA
HETATM   10  C   UNL     1      23.732  44.313  48.196  1.00  0.00     0.035 C 
HETATM   11  C   UNL     1      24.126  42.848  48.354  1.00  0.00     0.002 C 
HETATM   12  C   UNL     1      25.042  42.652  49.557  1.00  0.00     0.002 C 
HETATM   13  C   UNL     1      24.392  43.154  50.846  1.00  0.00     0.027 C 
HETATM   14  H   UNL     1      25.703  45.378  51.651  1.00  0.00     0.163 HD
ENDROOT
BRANCH   1  15
HETATM   15  C   UNL     1      23.635  48.704  49.412  1.00  0.00     0.146 C 
BRANCH  15  16
HETATM   16  C   UNL     1      22.200  48.928  48.986  1.00  0.00     0.224 C 
HETATM   17  N   UNL     1      21.489  49.668  49.900  1.00  0.00    -0.327 N 
HETATM   18  H   UNL     1      21.808  49.601  50.863  1.00  0.00     0.169 HD
HETATM   19  O   UNL     1      21.831  48.519  47.887  1.00  0.00    -0.273 OA
BRANCH  17  20
HETATM   20  C   UNL     1      20.257  50.349  49.750  1.00  0.00     0.040 A 
HETATM   21  C   UNL     1      19.005  49.951  50.250  1.00  0.00    -0.035 A 
HETATM   22  C   UNL     1      17.876  50.756  49.971  1.00  0.00     0.015 A 
HETATM   23  C   UNL     1      18.738  48.698  51.032  1.00  0.00     0.050 C 
HETATM   24  C   UNL     1      17.958  51.907  49.181  1.00  0.00    -0.061 A 
HETATM   25  C   UNL     1      16.725  52.693  48.844  1.00  0.00     0.048 C 
HETATM   26  C   UNL     1      19.192  52.262  48.648  1.00  0.00     0.009 A 
HETATM   27  C   UNL     1      20.323  51.494  48.932  1.00  0.00     0.030 A 
ENDBRANCH  17  20
ENDBRANCH  15  16
ENDBRANCH   1  15
TORSDOF 3
ENDMDL
MODEL 8
REMARK VINA RESULT:      -7.9      3.527      4.738
REMARK  3 active torsions:
REMARK  status: ('A' for Active; 'I' for Inactive)
REMARK    1  A    between atoms: C_6  and  N_7 
REMARK       I    between atoms: N_7  and  C_8 
REMARK    2  A    between atoms: C_8  and  C_9 
REMARK    3  A    between atoms: C_9  and  C_10 
ROOT
HETATM    1  C   UNL     1      28.741  39.483  50.620  1.00  0.00     0.286 C 
HETATM    2  N   UNL     1      27.256  39.484  50.279  1.00  0.00    -0.056 N 
HETATM    3  H   UNL     1      26.794  38.968  51.061  1.00  0.00     0.278 HD
HETATM    4  H   UNL     1      26.867  40.433  50.315  1.00  0.00     0.278 HD
HETATM    5  C   UNL     1      26.901  38.794  48.992  1.00  0.00     0.209 C 
HETATM    6  C   UNL     1      27.521  37.374  48.971  1.00  0.00     0.115 C 
HETATM    7  N   UNL     1      28.928  37.348  49.373  1.00  0.00    -0.353 N 
HETATM    8  C   UNL     1      29.415  38.115  50.406  1.00  0.00     0.249 C 
HETATM    9  O   UNL     1      30.409  37.759  51.028  1.00  0.00    -0.271 OA
HETATM   10  C   UNL     1      27.319  39.668  47.808  1.00  0.00     0.035 C 
HETATM   11  C   UNL     1      27.063  38.956  46.483  1.00  0.00     0.002 C 
HETATM   12  C   UNL     1      27.764  37.603  46.441  1.00  0.00     0.002 C 
HETATM   13  C   UNL     1      27.330  36.708  47.602  1.00  0.00     0.027 C 
HETATM   14  H   UNL     1      29.412  36.455  49.309  1.00  0.00     0.163 HD
ENDROOT
BRANCH   1  15
HETATM   15  C   UNL     1      29.005  40.033  52.027  1.00  0.00     0.146 C 
BRANCH  15  16
HETATM   16  C   UNL     1      28.509  41.454  52.188  1.00  0.00     0.224 C 
HETATM   17  N   UNL     1      28.531  41.873  53.496  1.00  0.00    -0.327 N 
HETATM   18  H   UNL     1      28.438  41.140  54.194  1.00  0.00     0.169 HD
HETATM   19  O   UNL     1      28.217  42.103  51.186  1.00  0.00    -0.273 OA
BRANCH  17  20
HETATM   20  C   UNL     1      28.457  43.184  54.027  1.00  0.00     0.040 A 
HETATM   21  C   UNL     1      29.432  43.838  54.800  1.00  0.00    -0.035 A 
HETATM   22  C   UNL     1      29.164  45.146  55.266  1.00  0.00     0.015 A 
HETATM   23  C   UNL     1      30.744  43.247  55.228  1.00  0.00     0.050 C 
HETATM   24  C   UNL     1      27.947  45.790  55.019  1.00  0.00    -0.061 A 
HETATM   25  C   UNL     1      27.670  47.148  55.594  1.00  0.00     0.048 C 
HETATM   26  C   UNL     1      26.971  45.113  54.298  1.00  0.00     0.009 A 
HETATM   27  C   UNL     1      27.225  43.830  53.809  1.00  0.00     0.030 A 
ENDBRANCH  17  20
ENDBRANCH  15  16
ENDBRANCH   1  15
TORSDOF 3
ENDMDL
MODEL 9
REMARK VINA RESULT:      -7.7      2.246      3.701
REMARK  3 active torsions:
REMARK  status: ('A' for Active; 'I' for Inactive)
REMARK    1  A    between atoms: C_6  and  N_7 
REMARK       I    between atoms: N_7  and  C_8 
REMARK    2  A    between atoms: C_8  and  C_9 
REMARK    3  A    between atoms: C_9  and  C_10 
ROOT
HETATM    1  C   UNL     1      26.353  41.873  49.150  1.00  0.00     0.286 C 
HETATM    2  N   UNL     1      25.784  41.879  47.736  1.00  0.00    -0.056 N 
HETATM    3  H   UNL     1      24.746  41.897  47.858  1.00  0.00     0.278 HD
HETATM    4  H   UNL     1      26.012  42.752  47.247  1.00  0.00     0.278 HD
HETATM    5  C   UNL     1      26.135  40.677  46.906  1.00  0.00     0.209 C 
HETATM    6  C   UNL     1      25.790  39.383  47.686  1.00  0.00     0.115 C 
HETATM    7  N   UNL     1      26.264  39.397  49.071  1.00  0.00    -0.353 N 
HETATM    8  C   UNL     1      26.196  40.519  49.864  1.00  0.00     0.249 C 
HETATM    9  O   UNL     1      26.134  40.413  51.083  1.00  0.00    -0.271 OA
HETATM   10  C   UNL     1      27.598  40.764  46.470  1.00  0.00     0.035 C 
HETATM   11  C   UNL     1      28.018  39.512  45.706  1.00  0.00     0.002 C 
HETATM   12  C   UNL     1      27.765  38.254  46.531  1.00  0.00     0.002 C 
HETATM   13  C   UNL     1      26.299  38.139  46.946  1.00  0.00     0.027 C 
HETATM   14  H   UNL     1      26.134  38.545  49.614  1.00  0.00     0.163 HD
ENDROOT
BRANCH   1  15
HETATM   15  C   UNL     1      25.802  43.028  49.993  1.00  0.00     0.146 C 
BRANCH  15  16
HETATM   16  C   UNL     1      26.887  43.731  50.781  1.00  0.00     0.224 C 
HETATM   17  N   UNL     1      26.931  43.326  52.093  1.00  0.00    -0.327 N 
HETATM   18  H   UNL     1      26.052  42.994  52.480  1.00  0.00     0.169 HD
HETATM   19  O   UNL     1      27.644  44.505  50.197  1.00  0.00    -0.273 OA
BRANCH  17  20
HETATM   20  C   UNL     1      27.957  43.488  53.055  1.00  0.00     0.040 A 
HETATM   21  C   UNL     1      28.973  42.569  53.370  1.00  0.00    -0.035 A 
HETATM   22  C   UNL     1      29.897  42.900  54.388  1.00  0.00     0.015 A 
HETATM   23  C   UNL     1      29.145  41.215  52.745  1.00  0.00     0.050 C 
HETATM   24  C   UNL     1      29.808  44.091  55.117  1.00  0.00    -0.061 A 
HETATM   25  C   UNL     1      30.761  44.373  56.240  1.00  0.00     0.048 C 
HETATM   26  C   UNL     1      28.768  44.968  54.832  1.00  0.00     0.009 A 
HETATM   27  C   UNL     1      27.859  44.670  53.815  1.00  0.00     0.030 A 
ENDBRANCH  17  20
ENDBRANCH  15  16
ENDBRANCH   1  15
TORSDOF 3
ENDMDL
MODEL 10
REMARK VINA RESULT:      -7.6      2.347      6.415
REMARK  3 active torsions:
REMARK  status: ('A' for Active; 'I' for Inactive)
REMARK    1  A    between atoms: C_6  and  N_7 
REMARK       I    between atoms: N_7  and  C_8 
REMARK    2  A    between atoms: C_8  and  C_9 
REMARK    3  A    between atoms: C_9  and  C_10 
ROOT
HETATM    1  C   UNL     1      25.642  45.229  52.053  1.00  0.00     0.286 C 
HETATM    2  N   UNL     1      25.566  44.592  53.435  1.00  0.00    -0.056 N 
HETATM    3  H   UNL     1      24.581  44.737  53.751  1.00  0.00     0.278 HD
HETATM    4  H   UNL     1      25.685  43.574  53.382  1.00  0.00     0.278 HD
HETATM    5  C   UNL     1      26.479  45.197  54.463  1.00  0.00     0.209 C 
HETATM    6  C   UNL     1      26.281  46.734  54.499  1.00  0.00     0.115 C 
HETATM    7  N   UNL     1      26.274  47.349  53.170  1.00  0.00    -0.353 N 
HETATM    8  C   UNL     1      25.651  46.767  52.090  1.00  0.00     0.249 C 
HETATM    9  O   UNL     1      25.242  47.458  51.165  1.00  0.00    -0.271 OA
HETATM   10  C   UNL     1      27.921  44.767  54.188  1.00  0.00     0.035 C 
HETATM   11  C   UNL     1      28.890  45.442  55.154  1.00  0.00     0.002 C 
HETATM   12  C   UNL     1      28.751  46.959  55.101  1.00  0.00     0.002 C 
HETATM   13  C   UNL     1      27.321  47.404  55.407  1.00  0.00     0.027 C 
HETATM   14  H   UNL     1      26.222  48.366  53.131  1.00  0.00     0.163 HD
ENDROOT
BRANCH   1  15
HETATM   15  C   UNL     1      24.556  44.689  51.115  1.00  0.00     0.146 C 
BRANCH  15  16
HETATM   16  C   UNL     1      24.916  43.335  50.541  1.00  0.00     0.224 C 
HETATM   17  N   UNL     1      26.266  43.195  50.330  1.00  0.00    -0.327 N 
HETATM   18  H   UNL     1      26.775  44.056  50.154  1.00  0.00     0.169 HD
HETATM   19  O   UNL     1      24.031  42.495  50.391  1.00  0.00    -0.273 OA
BRANCH  17  20
HETATM   20  C   UNL     1      27.030  42.023  50.116  1.00  0.00     0.040 A 
HETATM   21  C   UNL     1      27.680  41.247  51.093  1.00  0.00    -0.035 A 
HETATM   22  C   UNL     1      28.424  40.118  50.679  1.00  0.00     0.015 A 
HETATM   23  C   UNL     1      27.698  41.539  52.565  1.00  0.00     0.050 C 
HETATM   24  C   UNL     1      28.568  39.774  49.331  1.00  0.00    -0.061 A 
HETATM   25  C   UNL     1      29.428  38.614  48.926  1.00  0.00     0.048 C 
HETATM   26  C   UNL     1      27.965  40.578  48.371  1.00  0.00     0.009 A 
HETATM   27  C   UNL     1      27.206  41.684  48.760  1.00  0.00     0.030 A 
ENDBRANCH  17  20
ENDBRANCH  15  16
ENDBRANCH   1  15
TORSDOF 3
ENDMDL
