MODEL 1
REMARK VINA RESULT:     -10.2      0.000      0.000
REMARK  2 active torsions:
REMARK  status: ('A' for Active; 'I' for Inactive)
REMARK    1  A    between atoms: C_11  and  C_12 
REMARK    2  A    between atoms: C_12  and  C_13 
ROOT
HETATM    1  C   UNL     1      31.344  43.736  56.321  1.00  0.00     0.051 C 
HETATM    2  C   UNL     1      30.090  44.377  55.778  1.00  0.00    -0.031 A 
HETATM    3  C   UNL     1      29.478  45.435  56.465  1.00  0.00     0.038 A 
HETATM    4  C   UNL     1      30.044  45.982  57.749  1.00  0.00     0.071 C 
HETATM    5  N   UNL     1      28.361  46.055  56.050  1.00  0.00    -0.245 NA
HETATM    6  C   UNL     1      27.834  45.598  54.902  1.00  0.00     0.111 A 
HETATM    7  C   UNL     1      28.321  44.571  54.101  1.00  0.00     0.034 A 
HETATM    8  C   UNL     1      29.545  43.963  54.529  1.00  0.00    -0.039 A 
HETATM    9  C   UNL     1      30.246  42.907  53.710  1.00  0.00     0.050 C 
HETATM   10  S   UNL     1      26.431  46.329  54.292  1.00  0.00    -0.063 SA
HETATM   11  C   UNL     1      26.375  45.276  52.945  1.00  0.00     0.085 A 
HETATM   12  C   UNL     1      27.432  44.379  52.965  1.00  0.00     0.061 A 
HETATM   13  N   UNL     1      27.627  43.435  52.014  1.00  0.00    -0.397 N 
HETATM   14  H   UNL     1      27.035  43.315  51.197  1.00  0.00     0.156 HD
HETATM   15  H   UNL     1      28.280  42.668  52.130  1.00  0.00     0.156 HD
ENDROOT
BRANCH  11  16
HETATM   16  C   UNL     1      25.287  45.478  52.001  1.00  0.00     0.201 C 
HETATM   17  O   UNL     1      24.288  44.758  51.950  1.00  0.00    -0.286 OA
BRANCH  16  18
HETATM   18  C   UNL     1      25.337  46.599  51.019  1.00  0.00     0.018 A 
HETATM   19  C   UNL     1      26.534  47.264  50.718  1.00  0.00     0.055 A 
HETATM   20  C   UNL     1      26.481  48.283  49.788  1.00  0.00     0.106 A 
HETATM   21  C   UNL     1      25.309  48.637  49.158  1.00  0.00     0.105 A 
HETATM   22  O   UNL     1      27.533  49.043  49.383  1.00  0.00    -0.323 OA
HETATM   23  O   UNL     1      25.480  49.660  48.281  1.00  0.00    -0.323 OA
HETATM   24  C   UNL     1      24.121  47.991  49.417  1.00  0.00     0.040 A 
HETATM   25  C   UNL     1      26.896  49.902  48.415  1.00  0.00     0.352 A 
HETATM   26  C   UNL     1      24.139  46.956  50.356  1.00  0.00     0.018 A 
ENDBRANCH  16  18
ENDBRANCH  11  16
TORSDOF 2
ENDMDL
MODEL 2
REMARK VINA RESULT:      -9.4      2.222      3.334
REMARK  2 active torsions:
REMARK  status: ('A' for Active; 'I' for Inactive)
REMARK    1  A    between atoms: C_11  and  C_12 
REMARK    2  A    between atoms: C_12  and  C_13 
ROOT
HETATM    1  C   UNL     1      31.696  43.355  56.861  1.00  0.00     0.051 C 
HETATM    2  C   UNL     1      30.575  44.259  56.409  1.00  0.00    -0.031 A 
HETATM    3  C   UNL     1      30.185  45.354  57.194  1.00  0.00     0.038 A 
HETATM    4  C   UNL     1      30.866  45.682  58.495  1.00  0.00     0.071 C 
HETATM    5  N   UNL     1      29.195  46.200  56.864  1.00  0.00    -0.245 NA
HETATM    6  C   UNL     1      28.571  45.942  55.703  1.00  0.00     0.111 A 
HETATM    7  C   UNL     1      28.842  44.910  54.812  1.00  0.00     0.034 A 
HETATM    8  C   UNL     1      29.938  44.053  55.152  1.00  0.00    -0.039 A 
HETATM    9  C   UNL     1      30.413  42.955  54.233  1.00  0.00     0.050 C 
HETATM   10  S   UNL     1      27.318  46.966  55.197  1.00  0.00    -0.063 SA
HETATM   11  C   UNL     1      27.040  46.053  53.777  1.00  0.00     0.085 A 
HETATM   12  C   UNL     1      27.912  44.977  53.695  1.00  0.00     0.061 A 
HETATM   13  N   UNL     1      27.909  44.093  52.669  1.00  0.00    -0.397 N 
HETATM   14  H   UNL     1      27.289  44.150  51.866  1.00  0.00     0.156 HD
HETATM   15  H   UNL     1      28.409  43.211  52.706  1.00  0.00     0.156 HD
ENDROOT
BRANCH  11  16
HETATM   16  C   UNL     1      25.992  46.528  52.887  1.00  0.00     0.201 C 
HETATM   17  O   UNL     1      25.442  47.623  53.010  1.00  0.00    -0.286 OA
BRANCH  16  18
HETATM   18  C   UNL     1      25.521  45.680  51.754  1.00  0.00     0.018 A 
HETATM   19  C   UNL     1      24.538  44.695  51.928  1.00  0.00     0.055 A 
HETATM   20  C   UNL     1      24.160  43.970  50.816  1.00  0.00     0.106 A 
HETATM   21  C   UNL     1      24.706  44.199  49.573  1.00  0.00     0.105 A 
HETATM   22  O   UNL     1      23.237  42.971  50.797  1.00  0.00    -0.323 OA
HETATM   23  O   UNL     1      24.193  43.376  48.621  1.00  0.00    -0.323 OA
HETATM   24  C   UNL     1      25.659  45.171  49.366  1.00  0.00     0.040 A 
HETATM   25  C   UNL     1      23.249  42.612  49.399  1.00  0.00     0.352 A 
HETATM   26  C   UNL     1      26.066  45.923  50.472  1.00  0.00     0.018 A 
ENDBRANCH  16  18
ENDBRANCH  11  16
TORSDOF 2
ENDMDL
MODEL 3
REMARK VINA RESULT:      -8.5      1.740      2.411
REMARK  2 active torsions:
REMARK  status: ('A' for Active; 'I' for Inactive)
REMARK    1  A    between atoms: C_11  and  C_12 
REMARK    2  A    between atoms: C_12  and  C_13 
ROOT
HETATM    1  C   UNL     1      31.100  43.992  55.769  1.00  0.00     0.051 C 
HETATM    2  C   UNL     1      29.726  44.277  55.212  1.00  0.00    -0.031 A 
HETATM    3  C   UNL     1      28.879  45.197  55.846  1.00  0.00     0.038 A 
HETATM    4  C   UNL     1      29.301  45.944  57.083  1.00  0.00     0.071 C 
HETATM    5  N   UNL     1      27.644  45.502  55.416  1.00  0.00    -0.245 NA
HETATM    6  C   UNL     1      27.238  44.860  54.308  1.00  0.00     0.111 A 
HETATM    7  C   UNL     1      27.956  43.933  53.561  1.00  0.00     0.034 A 
HETATM    8  C   UNL     1      29.292  43.665  54.001  1.00  0.00    -0.039 A 
HETATM    9  C   UNL     1      30.225  42.760  53.234  1.00  0.00     0.050 C 
HETATM   10  S   UNL     1      25.698  45.191  53.682  1.00  0.00    -0.063 SA
HETATM   11  C   UNL     1      25.892  44.073  52.401  1.00  0.00     0.085 A 
HETATM   12  C   UNL     1      27.136  43.461  52.456  1.00  0.00     0.061 A 
HETATM   13  N   UNL     1      27.549  42.534  51.559  1.00  0.00    -0.397 N 
HETATM   14  H   UNL     1      27.000  42.223  50.763  1.00  0.00     0.156 HD
HETATM   15  H   UNL     1      28.369  41.956  51.709  1.00  0.00     0.156 HD
ENDROOT
BRANCH  11  16
HETATM   16  C   UNL     1      24.784  43.947  51.468  1.00  0.00     0.201 C 
HETATM   17  O   UNL     1      24.155  42.902  51.297  1.00  0.00    -0.286 OA
BRANCH  16  18
HETATM   18  C   UNL     1      24.351  45.115  50.648  1.00  0.00     0.018 A 
HETATM   19  C   UNL     1      23.333  45.007  49.689  1.00  0.00     0.055 A 
HETATM   20  C   UNL     1      22.995  46.147  48.988  1.00  0.00     0.106 A 
HETATM   21  C   UNL     1      23.612  47.356  49.218  1.00  0.00     0.105 A 
HETATM   22  O   UNL     1      22.046  46.229  48.016  1.00  0.00    -0.323 OA
HETATM   23  O   UNL     1      23.127  48.345  48.421  1.00  0.00    -0.323 OA
HETATM   24  C   UNL     1      24.601  47.500  50.165  1.00  0.00     0.040 A 
HETATM   25  C   UNL     1      22.123  47.628  47.674  1.00  0.00     0.352 A 
HETATM   26  C   UNL     1      24.969  46.363  50.891  1.00  0.00     0.018 A 
ENDBRANCH  16  18
ENDBRANCH  11  16
TORSDOF 2
ENDMDL
MODEL 4
REMARK VINA RESULT:      -8.2      3.137      7.778
REMARK  2 active torsions:
REMARK  status: ('A' for Active; 'I' for Inactive)
REMARK    1  A    between atoms: C_11  and  C_12 
REMARK    2  A    between atoms: C_12  and  C_13 
ROOT
HETATM    1  C   UNL     1      23.481  51.057  48.245  1.00  0.00     0.051 C 
HETATM    2  C   UNL     1      23.725  49.633  48.684  1.00  0.00    -0.031 A 
HETATM    3  C   UNL     1      22.648  48.783  48.971  1.00  0.00     0.038 A 
HETATM    4  C   UNL     1      21.219  49.239  48.843  1.00  0.00     0.071 C 
HETATM    5  N   UNL     1      22.782  47.507  49.370  1.00  0.00    -0.245 NA
HETATM    6  C   UNL     1      24.045  47.064  49.487  1.00  0.00     0.111 A 
HETATM    7  C   UNL     1      25.214  47.772  49.231  1.00  0.00     0.034 A 
HETATM    8  C   UNL     1      25.049  49.111  48.751  1.00  0.00    -0.039 A 
HETATM    9  C   UNL     1      26.221  49.966  48.336  1.00  0.00     0.050 C 
HETATM   10  S   UNL     1      24.313  45.461  49.970  1.00  0.00    -0.063 SA
HETATM   11  C   UNL     1      26.014  45.645  49.910  1.00  0.00     0.085 A 
HETATM   12  C   UNL     1      26.364  46.927  49.512  1.00  0.00     0.061 A 
HETATM   13  N   UNL     1      27.647  47.340  49.379  1.00  0.00    -0.397 N 
HETATM   14  H   UNL     1      28.458  46.749  49.536  1.00  0.00     0.156 HD
HETATM   15  H   UNL     1      27.899  48.317  49.276  1.00  0.00     0.156 HD
ENDROOT
BRANCH  11  16
HETATM   16  C   UNL     1      26.811  44.477  50.246  1.00  0.00     0.201 C 
HETATM   17  O   UNL     1      26.988  43.530  49.478  1.00  0.00    -0.286 OA
BRANCH  16  18
HETATM   18  C   UNL     1      27.468  44.369  51.581  1.00  0.00     0.018 A 
HETATM   19  C   UNL     1      28.635  43.615  51.771  1.00  0.00     0.055 A 
HETATM   20  C   UNL     1      29.175  43.586  53.041  1.00  0.00     0.106 A 
HETATM   21  C   UNL     1      28.612  44.276  54.091  1.00  0.00     0.105 A 
HETATM   22  O   UNL     1      30.289  42.901  53.414  1.00  0.00    -0.323 OA
HETATM   23  O   UNL     1      29.302  44.112  55.250  1.00  0.00    -0.323 OA
HETATM   24  C   UNL     1      27.478  45.041  53.933  1.00  0.00     0.040 A 
HETATM   25  C   UNL     1      30.375  43.253  54.810  1.00  0.00     0.352 A 
HETATM   26  C   UNL     1      26.904  45.090  52.659  1.00  0.00     0.018 A 
ENDBRANCH  16  18
ENDBRANCH  11  16
TORSDOF 2
ENDMDL
MODEL 5
REMARK VINA RESULT:      -8.1      4.644      7.663
REMARK  2 active torsions:
REMARK  status: ('A' for Active; 'I' for Inactive)
REMARK    1  A    between atoms: C_11  and  C_12 
REMARK    2  A    between atoms: C_12  and  C_13 
ROOT
HETATM    1  C   UNL     1      29.104  38.061  47.694  1.00  0.00     0.051 C 
HETATM    2  C   UNL     1      28.606  39.310  48.380  1.00  0.00    -0.031 A 
HETATM    3  C   UNL     1      28.111  40.385  47.628  1.00  0.00     0.038 A 
HETATM    4  C   UNL     1      28.042  40.339  46.125  1.00  0.00     0.071 C 
HETATM    5  N   UNL     1      27.654  41.529  48.164  1.00  0.00    -0.245 NA
HETATM    6  C   UNL     1      27.693  41.601  49.505  1.00  0.00     0.111 A 
HETATM    7  C   UNL     1      28.140  40.626  50.388  1.00  0.00     0.034 A 
HETATM    8  C   UNL     1      28.569  39.391  49.802  1.00  0.00    -0.039 A 
HETATM    9  C   UNL     1      28.985  38.207  50.639  1.00  0.00     0.050 C 
HETATM   10  S   UNL     1      27.122  43.002  50.271  1.00  0.00    -0.063 SA
HETATM   11  C   UNL     1      27.490  42.394  51.827  1.00  0.00     0.085 A 
HETATM   12  C   UNL     1      28.037  41.122  51.752  1.00  0.00     0.061 A 
HETATM   13  N   UNL     1      28.417  40.409  52.839  1.00  0.00    -0.397 N 
HETATM   14  H   UNL     1      28.316  40.730  53.798  1.00  0.00     0.156 HD
HETATM   15  H   UNL     1      28.986  39.572  52.772  1.00  0.00     0.156 HD
ENDROOT
BRANCH  11  16
HETATM   16  C   UNL     1      27.168  43.251  52.958  1.00  0.00     0.201 C 
HETATM   17  O   UNL     1      26.032  43.662  53.197  1.00  0.00    -0.286 OA
BRANCH  16  18
HETATM   18  C   UNL     1      28.235  43.686  53.904  1.00  0.00     0.018 A 
HETATM   19  C   UNL     1      28.025  44.717  54.831  1.00  0.00     0.055 A 
HETATM   20  C   UNL     1      29.071  45.041  55.672  1.00  0.00     0.106 A 
HETATM   21  C   UNL     1      30.276  44.378  55.627  1.00  0.00     0.105 A 
HETATM   22  O   UNL     1      29.054  46.017  56.619  1.00  0.00    -0.323 OA
HETATM   23  O   UNL     1      31.164  44.854  56.540  1.00  0.00    -0.323 OA
HETATM   24  C   UNL     1      30.508  43.349  54.742  1.00  0.00     0.040 A 
HETATM   25  C   UNL     1      30.377  45.881  57.178  1.00  0.00     0.352 A 
HETATM   26  C   UNL     1      29.471  42.998  53.874  1.00  0.00     0.018 A 
ENDBRANCH  16  18
ENDBRANCH  11  16
TORSDOF 2
ENDMDL
MODEL 6
REMARK VINA RESULT:      -7.9      4.399      6.055
REMARK  2 active torsions:
REMARK  status: ('A' for Active; 'I' for Inactive)
REMARK    1  A    between atoms: C_11  and  C_12 
REMARK    2  A    between atoms: C_12  and  C_13 
ROOT
HETATM    1  C   UNL     1      29.571  45.762  56.113  1.00  0.00     0.051 C 
HETATM    2  C   UNL     1      28.576  45.439  55.025  1.00  0.00    -0.031 A 
HETATM    3  C   UNL     1      27.639  46.397  54.611  1.00  0.00     0.038 A 
HETATM    4  C   UNL     1      27.595  47.776  55.212  1.00  0.00     0.071 C 
HETATM    5  N   UNL     1      26.720  46.185  53.654  1.00  0.00    -0.245 NA
HETATM    6  C   UNL     1      26.738  44.966  53.089  1.00  0.00     0.111 A 
HETATM    7  C   UNL     1      27.602  43.916  53.378  1.00  0.00     0.034 A 
HETATM    8  C   UNL     1      28.612  44.180  54.358  1.00  0.00    -0.039 A 
HETATM    9  C   UNL     1      29.681  43.172  54.701  1.00  0.00     0.050 C 
HETATM   10  S   UNL     1      25.624  44.612  51.862  1.00  0.00    -0.063 SA
HETATM   11  C   UNL     1      26.209  43.014  51.684  1.00  0.00     0.085 A 
HETATM   12  C   UNL     1      27.257  42.765  52.557  1.00  0.00     0.061 A 
HETATM   13  N   UNL     1      27.906  41.578  52.623  1.00  0.00    -0.397 N 
HETATM   14  H   UNL     1      27.698  40.779  52.030  1.00  0.00     0.156 HD
HETATM   15  H   UNL     1      28.533  41.339  53.383  1.00  0.00     0.156 HD
ENDROOT
BRANCH  11  16
HETATM   16  C   UNL     1      25.568  42.190  50.671  1.00  0.00     0.201 C 
HETATM   17  O   UNL     1      24.359  42.219  50.438  1.00  0.00    -0.286 OA
BRANCH  16  18
HETATM   18  C   UNL     1      26.372  41.243  49.847  1.00  0.00     0.018 A 
HETATM   19  C   UNL     1      26.286  39.854  50.023  1.00  0.00     0.055 A 
HETATM   20  C   UNL     1      27.062  39.059  49.204  1.00  0.00     0.106 A 
HETATM   21  C   UNL     1      27.885  39.590  48.236  1.00  0.00     0.105 A 
HETATM   22  O   UNL     1      27.118  37.701  49.240  1.00  0.00    -0.323 OA
HETATM   23  O   UNL     1      28.557  38.632  47.544  1.00  0.00    -0.323 OA
HETATM   24  C   UNL     1      27.977  40.947  48.025  1.00  0.00     0.040 A 
HETATM   25  C   UNL     1      28.054  37.436  48.173  1.00  0.00     0.352 A 
HETATM   26  C   UNL     1      27.206  41.782  48.839  1.00  0.00     0.018 A 
ENDBRANCH  16  18
ENDBRANCH  11  16
TORSDOF 2
ENDMDL
MODEL 7
REMARK VINA RESULT:      -7.8      4.319      8.988
REMARK  2 active torsions:
REMARK  status: ('A' for Active; 'I' for Inactive)
REMARK    1  A    between atoms: C_11  and  C_12 
REMARK    2  A    between atoms: C_12  and  C_13 
ROOT
HETATM    1  C   UNL     1      17.872  49.580  48.390  1.00  0.00     0.051 C 
HETATM    2  C   UNL     1      19.360  49.785  48.537  1.00  0.00    -0.031 A 
HETATM    3  C   UNL     1      19.907  51.076  48.500  1.00  0.00     0.038 A 
HETATM    4  C   UNL     1      19.046  52.299  48.329  1.00  0.00     0.071 C 
HETATM    5  N   UNL     1      21.219  51.341  48.619  1.00  0.00    -0.245 NA
HETATM    6  C   UNL     1      22.016  50.272  48.782  1.00  0.00     0.111 A 
HETATM    7  C   UNL     1      21.632  48.937  48.850  1.00  0.00     0.034 A 
HETATM    8  C   UNL     1      20.225  48.680  48.780  1.00  0.00    -0.039 A 
HETATM    9  C   UNL     1      19.654  47.293  48.941  1.00  0.00     0.050 C 
HETATM   10  S   UNL     1      23.685  50.509  48.956  1.00  0.00    -0.063 SA
HETATM   11  C   UNL     1      23.989  48.830  49.085  1.00  0.00     0.085 A 
HETATM   12  C   UNL     1      22.813  48.101  49.002  1.00  0.00     0.061 A 
HETATM   13  N   UNL     1      22.768  46.749  49.077  1.00  0.00    -0.397 N 
HETATM   14  H   UNL     1      23.581  46.156  49.220  1.00  0.00     0.156 HD
HETATM   15  H   UNL     1      21.943  46.215  48.827  1.00  0.00     0.156 HD
ENDROOT
BRANCH  11  16
HETATM   16  C   UNL     1      25.374  48.428  49.276  1.00  0.00     0.201 C 
HETATM   17  O   UNL     1      26.330  49.031  48.788  1.00  0.00    -0.286 OA
BRANCH  16  18
HETATM   18  C   UNL     1      25.706  47.228  50.096  1.00  0.00     0.018 A 
HETATM   19  C   UNL     1      26.383  46.126  49.553  1.00  0.00     0.055 A 
HETATM   20  C   UNL     1      26.654  45.067  50.395  1.00  0.00     0.106 A 
HETATM   21  C   UNL     1      26.295  45.078  51.724  1.00  0.00     0.105 A 
HETATM   22  O   UNL     1      27.287  43.915  50.043  1.00  0.00    -0.323 OA
HETATM   23  O   UNL     1      26.657  43.939  52.370  1.00  0.00    -0.323 OA
HETATM   24  C   UNL     1      25.646  46.152  52.292  1.00  0.00     0.040 A 
HETATM   25  C   UNL     1      27.302  43.213  51.303  1.00  0.00     0.352 A 
HETATM   26  C   UNL     1      25.354  47.241  51.466  1.00  0.00     0.018 A 
ENDBRANCH  16  18
ENDBRANCH  11  16
TORSDOF 2
ENDMDL
MODEL 8
REMARK VINA RESULT:      -7.7     12.153     14.528
REMARK  2 active torsions:
REMARK  status: ('A' for Active; 'I' for Inactive)
REMARK    1  A    between atoms: C_11  and  C_12 
REMARK    2  A    between atoms: C_12  and  C_13 
ROOT
HETATM    1  C   UNL     1      28.046  48.511  38.530  1.00  0.00     0.051 C 
HETATM    2  C   UNL     1      28.800  49.466  39.422  1.00  0.00    -0.031 A 
HETATM    3  C   UNL     1      28.607  50.850  39.306  1.00  0.00     0.038 A 
HETATM    4  C   UNL     1      27.641  51.437  38.312  1.00  0.00     0.071 C 
HETATM    5  N   UNL     1      29.242  51.764  40.059  1.00  0.00    -0.245 NA
HETATM    6  C   UNL     1      30.106  51.274  40.964  1.00  0.00     0.111 A 
HETATM    7  C   UNL     1      30.402  49.938  41.209  1.00  0.00     0.034 A 
HETATM    8  C   UNL     1      29.672  48.977  40.437  1.00  0.00    -0.039 A 
HETATM    9  C   UNL     1      29.811  47.492  40.664  1.00  0.00     0.050 C 
HETATM   10  S   UNL     1      30.943  52.351  41.969  1.00  0.00    -0.063 SA
HETATM   11  C   UNL     1      31.784  51.086  42.756  1.00  0.00     0.085 A 
HETATM   12  C   UNL     1      31.413  49.848  42.252  1.00  0.00     0.061 A 
HETATM   13  N   UNL     1      31.925  48.677  42.699  1.00  0.00    -0.397 N 
HETATM   14  H   UNL     1      32.604  48.600  43.451  1.00  0.00     0.156 HD
HETATM   15  H   UNL     1      31.798  47.801  42.205  1.00  0.00     0.156 HD
ENDROOT
BRANCH  11  16
HETATM   16  C   UNL     1      32.709  51.470  43.811  1.00  0.00     0.201 C 
HETATM   17  O   UNL     1      32.360  51.710  44.967  1.00  0.00    -0.286 OA
BRANCH  16  18
HETATM   18  C   UNL     1      34.167  51.598  43.527  1.00  0.00     0.018 A 
HETATM   19  C   UNL     1      34.759  50.990  42.410  1.00  0.00     0.055 A 
HETATM   20  C   UNL     1      36.114  51.175  42.227  1.00  0.00     0.106 A 
HETATM   21  C   UNL     1      36.871  51.938  43.088  1.00  0.00     0.105 A 
HETATM   22  O   UNL     1      36.856  50.653  41.213  1.00  0.00    -0.323 OA
HETATM   23  O   UNL     1      38.179  51.990  42.722  1.00  0.00    -0.323 OA
HETATM   24  C   UNL     1      36.317  52.564  44.182  1.00  0.00     0.040 A 
HETATM   25  C   UNL     1      38.160  51.189  41.523  1.00  0.00     0.352 A 
HETATM   26  C   UNL     1      34.947  52.394  44.398  1.00  0.00     0.018 A 
ENDBRANCH  16  18
ENDBRANCH  11  16
TORSDOF 2
ENDMDL
MODEL 9
REMARK VINA RESULT:      -7.6      3.671      8.064
REMARK  2 active torsions:
REMARK  status: ('A' for Active; 'I' for Inactive)
REMARK    1  A    between atoms: C_11  and  C_12 
REMARK    2  A    between atoms: C_12  and  C_13 
ROOT
HETATM    1  C   UNL     1      20.746  50.139  47.850  1.00  0.00     0.051 C 
HETATM    2  C   UNL     1      21.877  49.287  48.374  1.00  0.00    -0.031 A 
HETATM    3  C   UNL     1      23.022  49.883  48.921  1.00  0.00     0.038 A 
HETATM    4  C   UNL     1      23.169  51.378  49.023  1.00  0.00     0.071 C 
HETATM    5  N   UNL     1      24.070  49.195  49.403  1.00  0.00    -0.245 NA
HETATM    6  C   UNL     1      23.969  47.857  49.335  1.00  0.00     0.111 A 
HETATM    7  C   UNL     1      22.904  47.117  48.836  1.00  0.00     0.034 A 
HETATM    8  C   UNL     1      21.772  47.867  48.380  1.00  0.00    -0.039 A 
HETATM    9  C   UNL     1      20.504  47.199  47.907  1.00  0.00     0.050 C 
HETATM   10  S   UNL     1      25.238  46.905  49.934  1.00  0.00    -0.063 SA
HETATM   11  C   UNL     1      24.447  45.448  49.511  1.00  0.00     0.085 A 
HETATM   12  C   UNL     1      23.216  45.698  48.924  1.00  0.00     0.061 A 
HETATM   13  N   UNL     1      22.382  44.720  48.496  1.00  0.00    -0.397 N 
HETATM   14  H   UNL     1      22.572  43.727  48.585  1.00  0.00     0.156 HD
HETATM   15  H   UNL     1      21.581  44.906  47.902  1.00  0.00     0.156 HD
ENDROOT
BRANCH  11  16
HETATM   16  C   UNL     1      25.138  44.210  49.835  1.00  0.00     0.201 C 
HETATM   17  O   UNL     1      25.119  43.212  49.113  1.00  0.00    -0.286 OA
BRANCH  16  18
HETATM   18  C   UNL     1      25.922  44.090  51.098  1.00  0.00     0.018 A 
HETATM   19  C   UNL     1      27.308  43.877  51.089  1.00  0.00     0.055 A 
HETATM   20  C   UNL     1      27.947  43.791  52.309  1.00  0.00     0.106 A 
HETATM   21  C   UNL     1      27.269  43.922  53.500  1.00  0.00     0.105 A 
HETATM   22  O   UNL     1      29.277  43.575  52.495  1.00  0.00    -0.323 OA
HETATM   23  O   UNL     1      28.088  43.806  54.579  1.00  0.00    -0.323 OA
HETATM   24  C   UNL     1      25.912  44.151  53.543  1.00  0.00     0.040 A 
HETATM   25  C   UNL     1      29.363  43.603  53.935  1.00  0.00     0.352 A 
HETATM   26  C   UNL     1      25.234  44.241  52.324  1.00  0.00     0.018 A 
ENDBRANCH  16  18
ENDBRANCH  11  16
TORSDOF 2
ENDMDL
MODEL 10
REMARK VINA RESULT:      -7.6     12.202     14.684
REMARK  2 active torsions:
REMARK  status: ('A' for Active; 'I' for Inactive)
REMARK    1  A    between atoms: C_11  and  C_12 
REMARK    2  A    between atoms: C_12  and  C_13 
ROOT
HETATM    1  C   UNL     1      26.902  50.524  38.180  1.00  0.00     0.051 C 
HETATM    2  C   UNL     1      27.911  50.214  39.259  1.00  0.00    -0.031 A 
HETATM    3  C   UNL     1      28.028  48.915  39.771  1.00  0.00     0.038 A 
HETATM    4  C   UNL     1      27.176  47.781  39.265  1.00  0.00     0.071 C 
HETATM    5  N   UNL     1      28.897  48.561  40.733  1.00  0.00    -0.245 NA
HETATM    6  C   UNL     1      29.680  49.547  41.201  1.00  0.00     0.111 A 
HETATM    7  C   UNL     1      29.695  50.876  40.794  1.00  0.00     0.034 A 
HETATM    8  C   UNL     1      28.803  51.221  39.728  1.00  0.00    -0.039 A 
HETATM    9  C   UNL     1      28.780  52.599  39.114  1.00  0.00     0.050 C 
HETATM   10  S   UNL     1      30.818  49.191  42.406  1.00  0.00    -0.063 SA
HETATM   11  C   UNL     1      31.360  50.813  42.481  1.00  0.00     0.085 A 
HETATM   12  C   UNL     1      30.674  51.612  41.580  1.00  0.00     0.061 A 
HETATM   13  N   UNL     1      30.908  52.938  41.432  1.00  0.00    -0.397 N 
HETATM   14  H   UNL     1      31.613  53.456  41.949  1.00  0.00     0.156 HD
HETATM   15  H   UNL     1      30.282  53.549  40.919  1.00  0.00     0.156 HD
ENDROOT
BRANCH  11  16
HETATM   16  C   UNL     1      32.431  51.102  43.422  1.00  0.00     0.201 C 
HETATM   17  O   UNL     1      32.245  51.293  44.625  1.00  0.00    -0.286 OA
BRANCH  16  18
HETATM   18  C   UNL     1      33.844  51.186  42.955  1.00  0.00     0.018 A 
HETATM   19  C   UNL     1      34.803  51.950  43.637  1.00  0.00     0.055 A 
HETATM   20  C   UNL     1      36.088  51.957  43.133  1.00  0.00     0.106 A 
HETATM   21  C   UNL     1      36.438  51.235  42.014  1.00  0.00     0.105 A 
HETATM   22  O   UNL     1      37.140  52.647  43.650  1.00  0.00    -0.323 OA
HETATM   23  O   UNL     1      37.751  51.381  41.692  1.00  0.00    -0.323 OA
HETATM   24  C   UNL     1      35.526  50.460  41.334  1.00  0.00     0.040 A 
HETATM   25  C   UNL     1      38.194  52.263  42.743  1.00  0.00     0.352 A 
HETATM   26  C   UNL     1      34.214  50.433  41.816  1.00  0.00     0.018 A 
ENDBRANCH  16  18
ENDBRANCH  11  16
TORSDOF 2
ENDMDL
