MODEL 1
REMARK VINA RESULT:     -10.9      0.000      0.000
REMARK  3 active torsions:
REMARK  status: ('A' for Active; 'I' for Inactive)
REMARK    1  A    between atoms: C_6  and  N_7 
REMARK       I    between atoms: N_7  and  C_8 
REMARK    2  A    between atoms: C_8  and  C_9 
REMARK    3  A    between atoms: C_9  and  N_10 
ROOT
HETATM    1  N   UNL     1      27.812  44.202  52.571  1.00  0.00    -0.224 N 
HETATM    2  N   UNL     1      27.273  45.255  53.343  1.00  0.00    -0.180 NA
HETATM    3  C   UNL     1      27.815  45.556  54.489  1.00  0.00     0.153 A 
HETATM    4  C   UNL     1      28.945  44.826  54.984  1.00  0.00     0.028 A 
HETATM    5  C   UNL     1      29.431  43.778  54.244  1.00  0.00     0.116 A 
HETATM    6  N   UNL     1      30.488  43.231  54.914  1.00  0.00    -0.350 N 
HETATM    7  H   UNL     1      31.029  42.439  54.591  1.00  0.00     0.166 HD
HETATM    8  C   UNL     1      30.699  43.925  56.088  1.00  0.00     0.044 A 
HETATM    9  C   UNL     1      29.733  44.938  56.157  1.00  0.00     0.005 A 
HETATM   10  C   UNL     1      31.660  43.733  57.087  1.00  0.00     0.030 A 
HETATM   11  C   UNL     1      31.634  44.596  58.187  1.00  0.00     0.002 A 
HETATM   12  C   UNL     1      30.684  45.610  58.283  1.00  0.00     0.001 A 
HETATM   13  C   UNL     1      29.728  45.794  57.277  1.00  0.00     0.014 A 
HETATM   14  C   UNL     1      28.867  43.369  52.992  1.00  0.00     0.291 A 
HETATM   15  O   UNL     1      29.278  42.398  52.366  1.00  0.00    -0.264 OA
ENDROOT
BRANCH   1  16
HETATM   16  C   UNL     1      27.070  43.828  51.374  1.00  0.00     0.258 C 
BRANCH  16  17
HETATM   17  C   UNL     1      26.707  44.968  50.399  1.00  0.00     0.244 C 
HETATM   18  N   UNL     1      25.438  45.568  50.497  1.00  0.00    -0.321 N 
HETATM   19  C   UNL     1      24.350  44.875  51.188  1.00  0.00     0.159 C 
HETATM   20  O   UNL     1      27.529  45.216  49.510  1.00  0.00    -0.271 OA
BRANCH  18  21
HETATM   21  C   UNL     1      25.110  46.837  49.874  1.00  0.00     0.037 A 
HETATM   22  C   UNL     1      26.068  47.805  49.543  1.00  0.00     0.037 A 
HETATM   23  C   UNL     1      25.732  49.030  48.923  1.00  0.00    -0.054 A 
HETATM   24  C   UNL     1      24.392  49.301  48.605  1.00  0.00    -0.056 A 
HETATM   25  C   UNL     1      26.838  49.985  48.563  1.00  0.00     0.049 C 
HETATM   26  C   UNL     1      23.977  50.581  47.935  1.00  0.00     0.049 C 
HETATM   27  C   UNL     1      23.420  48.364  48.962  1.00  0.00     0.009 A 
HETATM   28  C   UNL     1      23.773  47.159  49.582  1.00  0.00     0.030 A 
ENDBRANCH  18  21
ENDBRANCH  16  17
ENDBRANCH   1  16
TORSDOF 3
ENDMDL
MODEL 2
REMARK VINA RESULT:     -10.7      1.628      8.818
REMARK  3 active torsions:
REMARK  status: ('A' for Active; 'I' for Inactive)
REMARK    1  A    between atoms: C_6  and  N_7 
REMARK       I    between atoms: N_7  and  C_8 
REMARK    2  A    between atoms: C_8  and  C_9 
REMARK    3  A    between atoms: C_9  and  N_10 
ROOT
HETATM    1  N   UNL     1      25.553  45.151  51.294  1.00  0.00    -0.224 N 
HETATM    2  N   UNL     1      26.503  46.187  51.152  1.00  0.00    -0.180 NA
HETATM    3  C   UNL     1      26.185  47.264  50.491  1.00  0.00     0.153 A 
HETATM    4  C   UNL     1      24.890  47.408  49.895  1.00  0.00     0.028 A 
HETATM    5  C   UNL     1      23.994  46.376  50.003  1.00  0.00     0.116 A 
HETATM    6  N   UNL     1      22.847  46.731  49.353  1.00  0.00    -0.350 N 
HETATM    7  H   UNL     1      22.022  46.148  49.276  1.00  0.00     0.166 HD
HETATM    8  C   UNL     1      22.989  47.999  48.826  1.00  0.00     0.044 A 
HETATM    9  C   UNL     1      24.275  48.448  49.152  1.00  0.00     0.005 A 
HETATM   10  C   UNL     1      22.087  48.773  48.088  1.00  0.00     0.030 A 
HETATM   11  C   UNL     1      22.508  50.038  47.670  1.00  0.00     0.002 A 
HETATM   12  C   UNL     1      23.782  50.511  47.979  1.00  0.00     0.001 A 
HETATM   13  C   UNL     1      24.676  49.727  48.718  1.00  0.00     0.014 A 
HETATM   14  C   UNL     1      24.282  45.150  50.687  1.00  0.00     0.291 A 
HETATM   15  O   UNL     1      23.492  44.214  50.732  1.00  0.00    -0.264 OA
ENDROOT
BRANCH   1  16
HETATM   16  C   UNL     1      26.023  43.920  51.919  1.00  0.00     0.258 C 
BRANCH  16  17
HETATM   17  C   UNL     1      26.653  44.052  53.321  1.00  0.00     0.244 C 
HETATM   18  N   UNL     1      28.056  44.055  53.438  1.00  0.00    -0.321 N 
HETATM   19  C   UNL     1      28.884  43.526  52.353  1.00  0.00     0.159 C 
HETATM   20  O   UNL     1      25.874  44.042  54.279  1.00  0.00    -0.271 OA
BRANCH  18  21
HETATM   21  C   UNL     1      28.751  44.493  54.633  1.00  0.00     0.037 A 
HETATM   22  C   UNL     1      29.841  43.808  55.189  1.00  0.00     0.037 A 
HETATM   23  C   UNL     1      30.516  44.258  56.346  1.00  0.00    -0.054 A 
HETATM   24  C   UNL     1      30.103  45.444  56.972  1.00  0.00    -0.056 A 
HETATM   25  C   UNL     1      31.705  43.478  56.838  1.00  0.00     0.049 C 
HETATM   26  C   UNL     1      30.788  45.977  58.198  1.00  0.00     0.049 C 
HETATM   27  C   UNL     1      28.995  46.120  56.455  1.00  0.00     0.009 A 
HETATM   28  C   UNL     1      28.336  45.653  55.310  1.00  0.00     0.030 A 
ENDBRANCH  18  21
ENDBRANCH  16  17
ENDBRANCH   1  16
TORSDOF 3
ENDMDL
MODEL 3
REMARK VINA RESULT:     -10.0      1.212      1.783
REMARK  3 active torsions:
REMARK  status: ('A' for Active; 'I' for Inactive)
REMARK    1  A    between atoms: C_6  and  N_7 
REMARK       I    between atoms: N_7  and  C_8 
REMARK    2  A    between atoms: C_8  and  C_9 
REMARK    3  A    between atoms: C_9  and  N_10 
ROOT
HETATM    1  N   UNL     1      27.612  43.366  52.272  1.00  0.00    -0.224 N 
HETATM    2  N   UNL     1      28.698  42.465  52.335  1.00  0.00    -0.180 NA
HETATM    3  C   UNL     1      29.547  42.550  53.319  1.00  0.00     0.153 A 
HETATM    4  C   UNL     1      29.403  43.554  54.333  1.00  0.00     0.028 A 
HETATM    5  C   UNL     1      28.369  44.449  54.234  1.00  0.00     0.116 A 
HETATM    6  N   UNL     1      28.441  45.309  55.293  1.00  0.00    -0.350 N 
HETATM    7  H   UNL     1      27.799  46.073  55.461  1.00  0.00     0.166 HD
HETATM    8  C   UNL     1      29.518  44.972  56.088  1.00  0.00     0.044 A 
HETATM    9  C   UNL     1      30.145  43.866  55.500  1.00  0.00     0.005 A 
HETATM   10  C   UNL     1      29.982  45.560  57.270  1.00  0.00     0.030 A 
HETATM   11  C   UNL     1      31.118  45.006  57.868  1.00  0.00     0.002 A 
HETATM   12  C   UNL     1      31.763  43.907  57.305  1.00  0.00     0.001 A 
HETATM   13  C   UNL     1      31.289  43.327  56.122  1.00  0.00     0.014 A 
HETATM   14  C   UNL     1      27.415  44.437  53.165  1.00  0.00     0.291 A 
HETATM   15  O   UNL     1      26.526  45.275  53.060  1.00  0.00    -0.264 OA
ENDROOT
BRANCH   1  16
HETATM   16  C   UNL     1      26.787  43.305  51.071  1.00  0.00     0.258 C 
BRANCH  16  17
HETATM   17  C   UNL     1      26.626  44.616  50.274  1.00  0.00     0.244 C 
HETATM   18  N   UNL     1      25.343  45.181  50.147  1.00  0.00    -0.321 N 
HETATM   19  C   UNL     1      24.154  44.360  50.379  1.00  0.00     0.159 C 
HETATM   20  O   UNL     1      27.634  45.040  49.699  1.00  0.00    -0.271 OA
BRANCH  18  21
HETATM   21  C   UNL     1      25.117  46.548  49.717  1.00  0.00     0.037 A 
HETATM   22  C   UNL     1      26.148  47.477  49.521  1.00  0.00     0.037 A 
HETATM   23  C   UNL     1      25.911  48.801  49.087  1.00  0.00    -0.054 A 
HETATM   24  C   UNL     1      24.598  49.219  48.824  1.00  0.00    -0.056 A 
HETATM   25  C   UNL     1      27.090  49.708  48.859  1.00  0.00     0.049 C 
HETATM   26  C   UNL     1      24.285  50.610  48.349  1.00  0.00     0.049 C 
HETATM   27  C   UNL     1      23.554  48.318  49.050  1.00  0.00     0.009 A 
HETATM   28  C   UNL     1      23.810  47.012  49.486  1.00  0.00     0.030 A 
ENDBRANCH  18  21
ENDBRANCH  16  17
ENDBRANCH   1  16
TORSDOF 3
ENDMDL
MODEL 4
REMARK VINA RESULT:      -9.9      1.955      9.110
REMARK  3 active torsions:
REMARK  status: ('A' for Active; 'I' for Inactive)
REMARK    1  A    between atoms: C_6  and  N_7 
REMARK       I    between atoms: N_7  and  C_8 
REMARK    2  A    between atoms: C_8  and  C_9 
REMARK    3  A    between atoms: C_9  and  N_10 
ROOT
HETATM    1  N   UNL     1      24.678  45.485  50.094  1.00  0.00    -0.224 N 
HETATM    2  N   UNL     1      25.373  46.695  50.315  1.00  0.00    -0.180 NA
HETATM    3  C   UNL     1      24.817  47.826  49.981  1.00  0.00     0.153 A 
HETATM    4  C   UNL     1      23.516  47.859  49.382  1.00  0.00     0.028 A 
HETATM    5  C   UNL     1      22.872  46.674  49.134  1.00  0.00     0.116 A 
HETATM    6  N   UNL     1      21.668  46.951  48.553  1.00  0.00    -0.350 N 
HETATM    7  H   UNL     1      20.992  46.255  48.262  1.00  0.00     0.166 HD
HETATM    8  C   UNL     1      21.519  48.318  48.428  1.00  0.00     0.044 A 
HETATM    9  C   UNL     1      22.678  48.915  48.943  1.00  0.00     0.005 A 
HETATM   10  C   UNL     1      20.460  49.064  47.900  1.00  0.00     0.030 A 
HETATM   11  C   UNL     1      20.585  50.456  47.895  1.00  0.00     0.002 A 
HETATM   12  C   UNL     1      21.726  51.077  48.399  1.00  0.00     0.001 A 
HETATM   13  C   UNL     1      22.779  50.320  48.926  1.00  0.00     0.014 A 
HETATM   14  C   UNL     1      23.432  45.392  49.443  1.00  0.00     0.291 A 
HETATM   15  O   UNL     1      22.870  44.338  49.168  1.00  0.00    -0.264 OA
ENDROOT
BRANCH   1  16
HETATM   16  C   UNL     1      25.416  44.256  50.356  1.00  0.00     0.258 C 
BRANCH  16  17
HETATM   17  C   UNL     1      26.705  44.387  51.193  1.00  0.00     0.244 C 
HETATM   18  N   UNL     1      26.612  44.347  52.597  1.00  0.00    -0.321 N 
HETATM   19  C   UNL     1      25.330  44.604  53.255  1.00  0.00     0.159 C 
HETATM   20  O   UNL     1      27.746  44.627  50.571  1.00  0.00    -0.271 OA
BRANCH  18  21
HETATM   21  C   UNL     1      27.756  44.132  53.463  1.00  0.00     0.037 A 
HETATM   22  C   UNL     1      28.194  45.066  54.411  1.00  0.00     0.037 A 
HETATM   23  C   UNL     1      29.302  44.835  55.257  1.00  0.00    -0.054 A 
HETATM   24  C   UNL     1      30.000  43.620  55.167  1.00  0.00    -0.056 A 
HETATM   25  C   UNL     1      29.665  45.880  56.277  1.00  0.00     0.049 C 
HETATM   26  C   UNL     1      31.178  43.312  56.047  1.00  0.00     0.049 C 
HETATM   27  C   UNL     1      29.601  42.692  54.202  1.00  0.00     0.009 A 
HETATM   28  C   UNL     1      28.503  42.945  53.369  1.00  0.00     0.030 A 
ENDBRANCH  18  21
ENDBRANCH  16  17
ENDBRANCH   1  16
TORSDOF 3
ENDMDL
MODEL 5
REMARK VINA RESULT:      -9.8      2.431      4.131
REMARK  3 active torsions:
REMARK  status: ('A' for Active; 'I' for Inactive)
REMARK    1  A    between atoms: C_6  and  N_7 
REMARK       I    between atoms: N_7  and  C_8 
REMARK    2  A    between atoms: C_8  and  C_9 
REMARK    3  A    between atoms: C_9  and  N_10 
ROOT
HETATM    1  N   UNL     1      25.333  45.369  50.648  1.00  0.00    -0.224 N 
HETATM    2  N   UNL     1      25.091  45.912  51.929  1.00  0.00    -0.180 NA
HETATM    3  C   UNL     1      25.923  45.664  52.901  1.00  0.00     0.153 A 
HETATM    4  C   UNL     1      27.075  44.837  52.691  1.00  0.00     0.028 A 
HETATM    5  C   UNL     1      27.273  44.281  51.453  1.00  0.00     0.116 A 
HETATM    6  N   UNL     1      28.413  43.531  51.495  1.00  0.00    -0.350 N 
HETATM    7  H   UNL     1      28.789  43.007  50.714  1.00  0.00     0.166 HD
HETATM    8  C   UNL     1      28.966  43.601  52.758  1.00  0.00     0.044 A 
HETATM    9  C   UNL     1      28.136  44.419  53.535  1.00  0.00     0.005 A 
HETATM   10  C   UNL     1      30.124  43.004  53.268  1.00  0.00     0.030 A 
HETATM   11  C   UNL     1      30.444  43.248  54.607  1.00  0.00     0.002 A 
HETATM   12  C   UNL     1      29.636  44.057  55.404  1.00  0.00     0.001 A 
HETATM   13  C   UNL     1      28.480  44.648  54.882  1.00  0.00     0.014 A 
HETATM   14  C   UNL     1      26.385  44.483  50.347  1.00  0.00     0.291 A 
HETATM   15  O   UNL     1      26.545  43.939  49.260  1.00  0.00    -0.264 OA
ENDROOT
BRANCH   1  16
HETATM   16  C   UNL     1      24.288  45.569  49.651  1.00  0.00     0.258 C 
BRANCH  16  17
HETATM   17  C   UNL     1      23.751  47.006  49.488  1.00  0.00     0.244 C 
HETATM   18  N   UNL     1      22.661  47.231  48.626  1.00  0.00    -0.321 N 
HETATM   19  C   UNL     1      22.322  46.244  47.600  1.00  0.00     0.159 C 
HETATM   20  O   UNL     1      24.387  47.901  50.055  1.00  0.00    -0.271 OA
BRANCH  18  21
HETATM   21  C   UNL     1      21.875  48.449  48.642  1.00  0.00     0.037 A 
HETATM   22  C   UNL     1      20.682  48.589  49.365  1.00  0.00     0.037 A 
HETATM   23  C   UNL     1      19.935  49.789  49.381  1.00  0.00    -0.054 A 
HETATM   24  C   UNL     1      20.396  50.902  48.661  1.00  0.00    -0.056 A 
HETATM   25  C   UNL     1      18.692  49.855  50.226  1.00  0.00     0.049 C 
HETATM   26  C   UNL     1      19.652  52.207  48.650  1.00  0.00     0.049 C 
HETATM   27  C   UNL     1      21.564  50.769  47.905  1.00  0.00     0.009 A 
HETATM   28  C   UNL     1      22.285  49.569  47.897  1.00  0.00     0.030 A 
ENDBRANCH  18  21
ENDBRANCH  16  17
ENDBRANCH   1  16
TORSDOF 3
ENDMDL
MODEL 6
REMARK VINA RESULT:      -9.7      1.487      2.302
REMARK  3 active torsions:
REMARK  status: ('A' for Active; 'I' for Inactive)
REMARK    1  A    between atoms: C_6  and  N_7 
REMARK       I    between atoms: N_7  and  C_8 
REMARK    2  A    between atoms: C_8  and  C_9 
REMARK    3  A    between atoms: C_9  and  N_10 
ROOT
HETATM    1  N   UNL     1      27.224  44.139  52.411  1.00  0.00    -0.224 N 
HETATM    2  N   UNL     1      26.850  45.267  53.174  1.00  0.00    -0.180 NA
HETATM    3  C   UNL     1      27.510  45.557  54.260  1.00  0.00     0.153 A 
HETATM    4  C   UNL     1      28.603  44.739  54.698  1.00  0.00     0.028 A 
HETATM    5  C   UNL     1      28.927  43.623  53.970  1.00  0.00     0.116 A 
HETATM    6  N   UNL     1      29.978  43.002  54.580  1.00  0.00    -0.350 N 
HETATM    7  H   UNL     1      30.415  42.149  54.253  1.00  0.00     0.166 HD
HETATM    8  C   UNL     1      30.348  43.715  55.703  1.00  0.00     0.044 A 
HETATM    9  C   UNL     1      29.490  44.818  55.801  1.00  0.00     0.005 A 
HETATM   10  C   UNL     1      31.365  43.468  56.632  1.00  0.00     0.030 A 
HETATM   11  C   UNL     1      31.509  44.369  57.691  1.00  0.00     0.002 A 
HETATM   12  C   UNL     1      30.670  45.474  57.815  1.00  0.00     0.001 A 
HETATM   13  C   UNL     1      29.657  45.711  56.878  1.00  0.00     0.014 A 
HETATM   14  C   UNL     1      28.228  43.224  52.785  1.00  0.00     0.291 A 
HETATM   15  O   UNL     1      28.493  42.196  52.173  1.00  0.00    -0.264 OA
ENDROOT
BRANCH   1  16
HETATM   16  C   UNL     1      26.355  43.795  51.292  1.00  0.00     0.258 C 
BRANCH  16  17
HETATM   17  C   UNL     1      25.154  44.728  51.035  1.00  0.00     0.244 C 
HETATM   18  N   UNL     1      25.282  45.755  50.081  1.00  0.00    -0.321 N 
HETATM   19  C   UNL     1      26.610  46.203  49.660  1.00  0.00     0.159 C 
HETATM   20  O   UNL     1      24.171  44.578  51.771  1.00  0.00    -0.271 OA
BRANCH  18  21
HETATM   21  C   UNL     1      24.147  46.468  49.526  1.00  0.00     0.037 A 
HETATM   22  C   UNL     1      23.178  45.865  48.713  1.00  0.00     0.037 A 
HETATM   23  C   UNL     1      22.071  46.572  48.192  1.00  0.00    -0.054 A 
HETATM   24  C   UNL     1      21.909  47.932  48.501  1.00  0.00    -0.056 A 
HETATM   25  C   UNL     1      21.058  45.824  47.367  1.00  0.00     0.049 C 
HETATM   26  C   UNL     1      20.746  48.732  47.986  1.00  0.00     0.049 C 
HETATM   27  C   UNL     1      22.885  48.559  49.279  1.00  0.00     0.009 A 
HETATM   28  C   UNL     1      23.979  47.841  49.780  1.00  0.00     0.030 A 
ENDBRANCH  18  21
ENDBRANCH  16  17
ENDBRANCH   1  16
TORSDOF 3
ENDMDL
MODEL 7
REMARK VINA RESULT:      -9.4      4.314     10.604
REMARK  3 active torsions:
REMARK  status: ('A' for Active; 'I' for Inactive)
REMARK    1  A    between atoms: C_6  and  N_7 
REMARK       I    between atoms: N_7  and  C_8 
REMARK    2  A    between atoms: C_8  and  C_9 
REMARK    3  A    between atoms: C_9  and  N_10 
ROOT
HETATM    1  N   UNL     1      22.759  49.337  48.961  1.00  0.00    -0.224 N 
HETATM    2  N   UNL     1      22.677  50.403  49.883  1.00  0.00    -0.180 NA
HETATM    3  C   UNL     1      21.548  51.035  50.038  1.00  0.00     0.153 A 
HETATM    4  C   UNL     1      20.390  50.672  49.275  1.00  0.00     0.028 A 
HETATM    5  C   UNL     1      20.496  49.664  48.352  1.00  0.00     0.116 A 
HETATM    6  N   UNL     1      19.283  49.506  47.745  1.00  0.00    -0.350 N 
HETATM    7  H   UNL     1      19.084  48.830  47.019  1.00  0.00     0.166 HD
HETATM    8  C   UNL     1      18.381  50.406  48.276  1.00  0.00     0.044 A 
HETATM    9  C   UNL     1      19.058  51.159  49.245  1.00  0.00     0.005 A 
HETATM   10  C   UNL     1      17.031  50.613  47.972  1.00  0.00     0.030 A 
HETATM   11  C   UNL     1      16.354  51.614  48.675  1.00  0.00     0.002 A 
HETATM   12  C   UNL     1      17.002  52.379  49.642  1.00  0.00     0.001 A 
HETATM   13  C   UNL     1      18.353  52.162  49.938  1.00  0.00     0.014 A 
HETATM   14  C   UNL     1      21.710  48.945  48.105  1.00  0.00     0.291 A 
HETATM   15  O   UNL     1      21.806  48.082  47.240  1.00  0.00    -0.264 OA
ENDROOT
BRANCH   1  16
HETATM   16  C   UNL     1      24.083  48.772  48.737  1.00  0.00     0.258 C 
BRANCH  16  17
HETATM   17  C   UNL     1      24.484  47.571  49.618  1.00  0.00     0.244 C 
HETATM   18  N   UNL     1      25.778  47.534  50.171  1.00  0.00    -0.321 N 
HETATM   19  C   UNL     1      26.843  48.360  49.601  1.00  0.00     0.159 C 
HETATM   20  O   UNL     1      23.664  46.649  49.701  1.00  0.00    -0.271 OA
BRANCH  18  21
HETATM   21  C   UNL     1      26.152  46.648  51.257  1.00  0.00     0.037 A 
HETATM   22  C   UNL     1      26.670  45.360  51.060  1.00  0.00     0.037 A 
HETATM   23  C   UNL     1      27.042  44.515  52.129  1.00  0.00    -0.054 A 
HETATM   24  C   UNL     1      26.908  44.969  53.450  1.00  0.00    -0.056 A 
HETATM   25  C   UNL     1      27.634  43.168  51.813  1.00  0.00     0.049 C 
HETATM   26  C   UNL     1      27.299  44.121  54.627  1.00  0.00     0.049 C 
HETATM   27  C   UNL     1      26.359  46.236  53.667  1.00  0.00     0.009 A 
HETATM   28  C   UNL     1      25.990  47.055  52.593  1.00  0.00     0.030 A 
ENDBRANCH  18  21
ENDBRANCH  16  17
ENDBRANCH   1  16
TORSDOF 3
ENDMDL
MODEL 8
REMARK VINA RESULT:      -9.3      2.566      9.311
REMARK  3 active torsions:
REMARK  status: ('A' for Active; 'I' for Inactive)
REMARK    1  A    between atoms: C_6  and  N_7 
REMARK       I    between atoms: N_7  and  C_8 
REMARK    2  A    between atoms: C_8  and  C_9 
REMARK    3  A    between atoms: C_9  and  N_10 
ROOT
HETATM    1  N   UNL     1      23.509  45.780  49.132  1.00  0.00    -0.224 N 
HETATM    2  N   UNL     1      22.206  45.430  48.714  1.00  0.00    -0.180 NA
HETATM    3  C   UNL     1      21.328  46.368  48.496  1.00  0.00     0.153 A 
HETATM    4  C   UNL     1      21.661  47.749  48.687  1.00  0.00     0.028 A 
HETATM    5  C   UNL     1      22.916  48.070  49.136  1.00  0.00     0.116 A 
HETATM    6  N   UNL     1      22.996  49.428  49.255  1.00  0.00    -0.350 N 
HETATM    7  H   UNL     1      23.814  49.933  49.572  1.00  0.00     0.166 HD
HETATM    8  C   UNL     1      21.796  49.996  48.876  1.00  0.00     0.044 A 
HETATM    9  C   UNL     1      20.933  48.954  48.516  1.00  0.00     0.005 A 
HETATM   10  C   UNL     1      21.412  51.341  48.831  1.00  0.00     0.030 A 
HETATM   11  C   UNL     1      20.112  51.630  48.407  1.00  0.00     0.002 A 
HETATM   12  C   UNL     1      19.231  50.614  48.043  1.00  0.00     0.001 A 
HETATM   13  C   UNL     1      19.627  49.272  48.093  1.00  0.00     0.014 A 
HETATM   14  C   UNL     1      23.923  47.094  49.427  1.00  0.00     0.291 A 
HETATM   15  O   UNL     1      25.024  47.391  49.878  1.00  0.00    -0.264 OA
ENDROOT
BRANCH   1  16
HETATM   16  C   UNL     1      24.392  44.678  49.495  1.00  0.00     0.258 C 
BRANCH  16  17
HETATM   17  C   UNL     1      24.904  44.650  50.950  1.00  0.00     0.244 C 
HETATM   18  N   UNL     1      26.293  44.672  51.183  1.00  0.00    -0.321 N 
HETATM   19  C   UNL     1      27.221  44.301  50.114  1.00  0.00     0.159 C 
HETATM   20  O   UNL     1      24.052  44.503  51.832  1.00  0.00    -0.271 OA
BRANCH  18  21
HETATM   21  C   UNL     1      26.875  44.976  52.476  1.00  0.00     0.037 A 
HETATM   22  C   UNL     1      27.883  44.203  53.070  1.00  0.00     0.037 A 
HETATM   23  C   UNL     1      28.450  44.522  54.325  1.00  0.00    -0.054 A 
HETATM   24  C   UNL     1      28.009  45.662  55.015  1.00  0.00    -0.056 A 
HETATM   25  C   UNL     1      29.560  43.657  54.857  1.00  0.00     0.049 C 
HETATM   26  C   UNL     1      28.582  46.058  56.346  1.00  0.00     0.049 C 
HETATM   27  C   UNL     1      26.979  46.423  54.455  1.00  0.00     0.009 A 
HETATM   28  C   UNL     1      26.427  46.085  53.213  1.00  0.00     0.030 A 
ENDBRANCH  18  21
ENDBRANCH  16  17
ENDBRANCH   1  16
TORSDOF 3
ENDMDL
MODEL 9
REMARK VINA RESULT:      -9.1      4.377      5.847
REMARK  3 active torsions:
REMARK  status: ('A' for Active; 'I' for Inactive)
REMARK    1  A    between atoms: C_6  and  N_7 
REMARK       I    between atoms: N_7  and  C_8 
REMARK    2  A    between atoms: C_8  and  C_9 
REMARK    3  A    between atoms: C_9  and  N_10 
ROOT
HETATM    1  N   UNL     1      27.024  41.847  51.752  1.00  0.00    -0.224 N 
HETATM    2  N   UNL     1      28.186  41.100  52.047  1.00  0.00    -0.180 NA
HETATM    3  C   UNL     1      29.034  41.551  52.928  1.00  0.00     0.153 A 
HETATM    4  C   UNL     1      28.811  42.801  53.593  1.00  0.00     0.028 A 
HETATM    5  C   UNL     1      27.701  43.536  53.264  1.00  0.00     0.116 A 
HETATM    6  N   UNL     1      27.706  44.681  54.007  1.00  0.00    -0.350 N 
HETATM    7  H   UNL     1      27.001  45.406  53.958  1.00  0.00     0.166 HD
HETATM    8  C   UNL     1      28.815  44.693  54.829  1.00  0.00     0.044 A 
HETATM    9  C   UNL     1      29.533  43.515  54.583  1.00  0.00     0.005 A 
HETATM   10  C   UNL     1      29.237  45.650  55.759  1.00  0.00     0.030 A 
HETATM   11  C   UNL     1      30.422  45.399  56.456  1.00  0.00     0.002 A 
HETATM   12  C   UNL     1      31.157  44.237  56.231  1.00  0.00     0.001 A 
HETATM   13  C   UNL     1      30.725  43.287  55.299  1.00  0.00     0.014 A 
HETATM   14  C   UNL     1      26.742  43.120  52.284  1.00  0.00     0.291 A 
HETATM   15  O   UNL     1      25.782  43.810  51.961  1.00  0.00    -0.264 OA
ENDROOT
BRANCH   1  16
HETATM   16  C   UNL     1      26.198  41.355  50.657  1.00  0.00     0.258 C 
BRANCH  16  17
HETATM   17  C   UNL     1      26.718  41.610  49.227  1.00  0.00     0.244 C 
HETATM   18  N   UNL     1      26.769  40.535  48.320  1.00  0.00    -0.321 N 
HETATM   19  C   UNL     1      26.746  39.157  48.813  1.00  0.00     0.159 C 
HETATM   20  O   UNL     1      27.162  42.740  48.995  1.00  0.00    -0.271 OA
BRANCH  18  21
HETATM   21  C   UNL     1      26.921  40.712  46.888  1.00  0.00     0.037 A 
HETATM   22  C   UNL     1      25.839  40.815  46.003  1.00  0.00     0.037 A 
HETATM   23  C   UNL     1      26.005  41.001  44.612  1.00  0.00    -0.054 A 
HETATM   24  C   UNL     1      27.298  41.103  44.076  1.00  0.00    -0.056 A 
HETATM   25  C   UNL     1      24.780  41.149  43.751  1.00  0.00     0.049 C 
HETATM   26  C   UNL     1      27.537  41.312  42.608  1.00  0.00     0.049 C 
HETATM   27  C   UNL     1      28.389  40.964  44.938  1.00  0.00     0.009 A 
HETATM   28  C   UNL     1      28.202  40.773  46.313  1.00  0.00     0.030 A 
ENDBRANCH  18  21
ENDBRANCH  16  17
ENDBRANCH   1  16
TORSDOF 3
ENDMDL
MODEL 10
REMARK VINA RESULT:      -8.8      3.974      6.566
REMARK  3 active torsions:
REMARK  status: ('A' for Active; 'I' for Inactive)
REMARK    1  A    between atoms: C_6  and  N_7 
REMARK       I    between atoms: N_7  and  C_8 
REMARK    2  A    between atoms: C_8  and  C_9 
REMARK    3  A    between atoms: C_9  and  N_10 
ROOT
HETATM    1  N   UNL     1      23.518  46.752  49.355  1.00  0.00    -0.224 N 
HETATM    2  N   UNL     1      23.346  45.359  49.507  1.00  0.00    -0.180 NA
HETATM    3  C   UNL     1      23.960  44.737  50.473  1.00  0.00     0.153 A 
HETATM    4  C   UNL     1      24.819  45.445  51.377  1.00  0.00     0.028 A 
HETATM    5  C   UNL     1      25.010  46.790  51.190  1.00  0.00     0.116 A 
HETATM    6  N   UNL     1      25.867  47.241  52.153  1.00  0.00    -0.350 N 
HETATM    7  H   UNL     1      26.182  48.198  52.243  1.00  0.00     0.166 HD
HETATM    8  C   UNL     1      26.231  46.193  52.974  1.00  0.00     0.044 A 
HETATM    9  C   UNL     1      25.583  45.044  52.502  1.00  0.00     0.005 A 
HETATM   10  C   UNL     1      27.080  46.174  54.086  1.00  0.00     0.030 A 
HETATM   11  C   UNL     1      27.274  44.950  54.734  1.00  0.00     0.002 A 
HETATM   12  C   UNL     1      26.644  43.791  54.286  1.00  0.00     0.001 A 
HETATM   13  C   UNL     1      25.796  43.823  53.172  1.00  0.00     0.014 A 
HETATM   14  C   UNL     1      24.394  47.534  50.133  1.00  0.00     0.291 A 
HETATM   15  O   UNL     1      24.615  48.725  49.944  1.00  0.00    -0.264 OA
ENDROOT
BRANCH   1  16
HETATM   16  C   UNL     1      22.918  47.355  48.171  1.00  0.00     0.258 C 
BRANCH  16  17
HETATM   17  C   UNL     1      21.587  48.109  48.375  1.00  0.00     0.244 C 
HETATM   18  N   UNL     1      21.484  49.440  47.929  1.00  0.00    -0.321 N 
HETATM   19  C   UNL     1      22.694  50.225  47.677  1.00  0.00     0.159 C 
HETATM   20  O   UNL     1      20.714  47.521  49.023  1.00  0.00    -0.271 OA
BRANCH  18  21
HETATM   21  C   UNL     1      20.217  50.127  47.769  1.00  0.00     0.037 A 
HETATM   22  C   UNL     1      19.656  50.953  48.753  1.00  0.00     0.037 A 
HETATM   23  C   UNL     1      18.426  51.626  48.574  1.00  0.00    -0.054 A 
HETATM   24  C   UNL     1      17.729  51.486  47.365  1.00  0.00    -0.056 A 
HETATM   25  C   UNL     1      17.931  52.529  49.672  1.00  0.00     0.049 C 
HETATM   26  C   UNL     1      16.423  52.187  47.113  1.00  0.00     0.049 C 
HETATM   27  C   UNL     1      18.254  50.637  46.387  1.00  0.00     0.009 A 
HETATM   28  C   UNL     1      19.471  49.974  46.587  1.00  0.00     0.030 A 
ENDBRANCH  18  21
ENDBRANCH  16  17
ENDBRANCH   1  16
TORSDOF 3
ENDMDL
