MODEL 1
REMARK VINA RESULT:      -8.8      0.000      0.000
REMARK  4 active torsions:
REMARK  status: ('A' for Active; 'I' for Inactive)
REMARK       I    between atoms: C_2  and  N_3 
REMARK    1  A    between atoms: N_3  and  C_4 
REMARK    2  A    between atoms: C_7  and  C_8 
REMARK    3  A    between atoms: C_12  and  N_13 
REMARK    4  A    between atoms: C_20  and  C_21 
ROOT
HETATM    1  C   UNL     1      28.827  45.327  54.359  1.00  0.00     0.105 C 
HETATM    2  C   UNL     1      29.447  45.242  55.755  1.00  0.00     0.067 C 
HETATM    3  C   UNL     1      30.513  44.188  56.000  1.00  0.00     0.020 C 
HETATM    4  N   UNL     1      31.399  43.313  56.204  1.00  0.00    -0.096 N 
HETATM    5  C   UNL     1      29.063  46.040  56.787  1.00  0.00     0.139 C 
HETATM    6  O   UNL     1      28.037  46.987  56.645  1.00  0.00    -0.279 OA
HETATM    7  C   UNL     1      27.350  46.940  55.510  1.00  0.00     0.175 A 
HETATM    8  C   UNL     1      27.600  46.186  54.389  1.00  0.00     0.040 A 
HETATM    9  N   UNL     1      26.206  47.629  55.286  1.00  0.00    -0.256 N 
HETATM   10  H   UNL     1      25.729  48.274  55.904  1.00  0.00     0.191 HD
HETATM   11  N   UNL     1      25.659  47.351  54.091  1.00  0.00    -0.172 NA
HETATM   12  C   UNL     1      26.498  46.460  53.526  1.00  0.00     0.099 A 
ENDROOT
BRANCH   1  13
HETATM   13  C   UNL     1      28.473  43.989  53.736  1.00  0.00    -0.044 A 
HETATM   14  C   UNL     1      27.564  43.085  54.306  1.00  0.00     0.010 A 
HETATM   15  C   UNL     1      27.218  41.899  53.643  1.00  0.00     0.030 A 
HETATM   16  C   UNL     1      27.792  41.578  52.413  1.00  0.00     0.034 A 
HETATM   17  C   UNL     1      28.749  42.441  51.873  1.00  0.00     0.030 A 
HETATM   18  C   UNL     1      29.088  43.629  52.525  1.00  0.00     0.010 A 
BRANCH  16  19
HETATM   19  N   UNL     1      27.462  40.438  51.650  1.00  0.00    -0.328 N 
HETATM   20  C   UNL     1      26.504  40.335  50.660  1.00  0.00     0.218 C 
HETATM   21  C   UNL     1      26.501  38.975  50.004  1.00  0.00     0.117 C 
HETATM   22  O   UNL     1      25.740  41.214  50.276  1.00  0.00    -0.274 OA
HETATM   23  H   UNL     1      28.033  39.620  51.817  1.00  0.00     0.169 HD
ENDBRANCH  16  19
ENDBRANCH   1  13
BRANCH   5  24
HETATM   24  N   UNL     1      29.595  46.022  58.056  1.00  0.00    -0.282 NA
HETATM   25  H   UNL     1      29.481  46.871  58.603  1.00  0.00     0.126 HD
HETATM   26  H   UNL     1      29.351  45.177  58.567  1.00  0.00     0.126 HD
ENDBRANCH   5  24
BRANCH  12  27
HETATM   27  C   UNL     1      26.166  45.872  52.232  1.00  0.00    -0.005 A 
HETATM   28  C   UNL     1      26.834  46.253  51.063  1.00  0.00     0.014 A 
HETATM   29  C   UNL     1      26.522  45.639  49.845  1.00  0.00     0.001 A 
HETATM   30  C   UNL     1      25.540  44.650  49.789  1.00  0.00     0.000 A 
HETATM   31  C   UNL     1      24.858  44.277  50.945  1.00  0.00     0.001 A 
HETATM   32  C   UNL     1      25.167  44.889  52.160  1.00  0.00     0.014 A 
ENDBRANCH  12  27
TORSDOF 4
ENDMDL
MODEL 2
REMARK VINA RESULT:      -8.3      2.663      5.637
REMARK  4 active torsions:
REMARK  status: ('A' for Active; 'I' for Inactive)
REMARK       I    between atoms: C_2  and  N_3 
REMARK    1  A    between atoms: N_3  and  C_4 
REMARK    2  A    between atoms: C_7  and  C_8 
REMARK    3  A    between atoms: C_12  and  N_13 
REMARK    4  A    between atoms: C_20  and  C_21 
ROOT
HETATM    1  C   UNL     1      26.948  43.568  52.890  1.00  0.00     0.105 C 
HETATM    2  C   UNL     1      28.224  43.797  53.702  1.00  0.00     0.067 C 
HETATM    3  C   UNL     1      28.411  45.146  54.374  1.00  0.00     0.020 C 
HETATM    4  N   UNL     1      28.567  46.267  54.933  1.00  0.00    -0.096 N 
HETATM    5  C   UNL     1      29.206  42.863  53.819  1.00  0.00     0.139 C 
HETATM    6  O   UNL     1      29.126  41.622  53.168  1.00  0.00    -0.279 OA
HETATM    7  C   UNL     1      28.131  41.480  52.300  1.00  0.00     0.175 A 
HETATM    8  C   UNL     1      27.079  42.330  52.057  1.00  0.00     0.040 A 
HETATM    9  N   UNL     1      28.019  40.443  51.437  1.00  0.00    -0.256 N 
HETATM   10  H   UNL     1      28.629  39.640  51.336  1.00  0.00     0.191 HD
HETATM   11  N   UNL     1      26.971  40.568  50.608  1.00  0.00    -0.172 NA
HETATM   12  C   UNL     1      26.382  41.727  50.968  1.00  0.00     0.099 A 
ENDROOT
BRANCH   1  13
HETATM   13  C   UNL     1      26.550  44.723  51.990  1.00  0.00    -0.044 A 
HETATM   14  C   UNL     1      25.571  45.670  52.331  1.00  0.00     0.010 A 
HETATM   15  C   UNL     1      25.301  46.760  51.492  1.00  0.00     0.030 A 
HETATM   16  C   UNL     1      25.981  46.913  50.284  1.00  0.00     0.034 A 
HETATM   17  C   UNL     1      26.908  45.937  49.906  1.00  0.00     0.030 A 
HETATM   18  C   UNL     1      27.187  44.856  50.745  1.00  0.00     0.010 A 
BRANCH  16  19
HETATM   19  N   UNL     1      25.817  48.005  49.406  1.00  0.00    -0.328 N 
HETATM   20  C   UNL     1      26.771  48.925  49.018  1.00  0.00     0.218 C 
HETATM   21  C   UNL     1      26.244  49.902  47.994  1.00  0.00     0.117 C 
HETATM   22  O   UNL     1      27.940  48.978  49.385  1.00  0.00    -0.274 OA
HETATM   23  H   UNL     1      24.905  48.087  48.976  1.00  0.00     0.169 HD
ENDBRANCH  16  19
ENDBRANCH   1  13
BRANCH   5  24
HETATM   24  N   UNL     1      30.364  43.004  54.549  1.00  0.00    -0.282 NA
HETATM   25  H   UNL     1      31.003  43.732  54.242  1.00  0.00     0.126 HD
HETATM   26  H   UNL     1      30.191  43.016  55.551  1.00  0.00     0.126 HD
ENDBRANCH   5  24
BRANCH  12  27
HETATM   27  C   UNL     1      25.236  42.223  50.213  1.00  0.00    -0.005 A 
HETATM   28  C   UNL     1      24.077  42.671  50.853  1.00  0.00     0.014 A 
HETATM   29  C   UNL     1      23.013  43.182  50.102  1.00  0.00     0.001 A 
HETATM   30  C   UNL     1      23.101  43.242  48.711  1.00  0.00     0.000 A 
HETATM   31  C   UNL     1      24.246  42.782  48.065  1.00  0.00     0.001 A 
HETATM   32  C   UNL     1      25.307  42.271  48.812  1.00  0.00     0.014 A 
ENDBRANCH  12  27
TORSDOF 4
ENDMDL
MODEL 3
REMARK VINA RESULT:      -8.3      2.054      5.975
REMARK  4 active torsions:
REMARK  status: ('A' for Active; 'I' for Inactive)
REMARK       I    between atoms: C_2  and  N_3 
REMARK    1  A    between atoms: N_3  and  C_4 
REMARK    2  A    between atoms: C_7  and  C_8 
REMARK    3  A    between atoms: C_12  and  N_13 
REMARK    4  A    between atoms: C_20  and  C_21 
ROOT
HETATM    1  C   UNL     1      25.705  44.009  51.663  1.00  0.00     0.105 C 
HETATM    2  C   UNL     1      25.558  43.103  50.440  1.00  0.00     0.067 C 
HETATM    3  C   UNL     1      25.822  41.617  50.615  1.00  0.00     0.020 C 
HETATM    4  N   UNL     1      26.040  40.383  50.760  1.00  0.00    -0.096 N 
HETATM    5  C   UNL     1      25.239  43.572  49.204  1.00  0.00     0.139 C 
HETATM    6  O   UNL     1      25.049  44.941  48.960  1.00  0.00    -0.279 OA
HETATM    7  C   UNL     1      25.367  45.762  49.954  1.00  0.00     0.175 A 
HETATM    8  C   UNL     1      25.720  45.447  51.244  1.00  0.00     0.040 A 
HETATM    9  N   UNL     1      25.447  47.108  49.831  1.00  0.00    -0.256 N 
HETATM   10  H   UNL     1      25.262  47.677  49.013  1.00  0.00     0.191 HD
HETATM   11  N   UNL     1      25.866  47.708  50.956  1.00  0.00    -0.172 NA
HETATM   12  C   UNL     1      26.047  46.703  51.837  1.00  0.00     0.099 A 
ENDROOT
BRANCH   1  13
HETATM   13  C   UNL     1      26.930  43.736  52.517  1.00  0.00    -0.044 A 
HETATM   14  C   UNL     1      28.236  43.686  52.005  1.00  0.00     0.010 A 
HETATM   15  C   UNL     1      29.336  43.507  52.855  1.00  0.00     0.030 A 
HETATM   16  C   UNL     1      29.153  43.345  54.229  1.00  0.00     0.034 A 
HETATM   17  C   UNL     1      27.851  43.326  54.736  1.00  0.00     0.030 A 
HETATM   18  C   UNL     1      26.754  43.515  53.893  1.00  0.00     0.010 A 
BRANCH  16  19
HETATM   19  N   UNL     1      30.201  43.217  55.165  1.00  0.00    -0.328 N 
HETATM   20  C   UNL     1      30.630  44.155  56.084  1.00  0.00     0.218 C 
HETATM   21  C   UNL     1      31.723  43.623  56.980  1.00  0.00     0.117 C 
HETATM   22  O   UNL     1      30.193  45.290  56.240  1.00  0.00    -0.274 OA
HETATM   23  H   UNL     1      30.651  42.312  55.196  1.00  0.00     0.169 HD
ENDBRANCH  16  19
ENDBRANCH   1  13
BRANCH   5  24
HETATM   24  N   UNL     1      25.075  42.805  48.073  1.00  0.00    -0.282 NA
HETATM   25  H   UNL     1      25.125  41.798  48.202  1.00  0.00     0.126 HD
HETATM   26  H   UNL     1      24.277  43.101  47.516  1.00  0.00     0.126 HD
ENDBRANCH   5  24
BRANCH  12  27
HETATM   27  C   UNL     1      26.582  46.990  53.164  1.00  0.00    -0.005 A 
HETATM   28  C   UNL     1      27.947  46.861  53.445  1.00  0.00     0.014 A 
HETATM   29  C   UNL     1      28.435  47.186  54.715  1.00  0.00     0.001 A 
HETATM   30  C   UNL     1      27.564  47.634  55.708  1.00  0.00     0.000 A 
HETATM   31  C   UNL     1      26.202  47.750  55.441  1.00  0.00     0.001 A 
HETATM   32  C   UNL     1      25.713  47.425  54.176  1.00  0.00     0.014 A 
ENDBRANCH  12  27
TORSDOF 4
ENDMDL
MODEL 4
REMARK VINA RESULT:      -8.1      2.271      6.373
REMARK  4 active torsions:
REMARK  status: ('A' for Active; 'I' for Inactive)
REMARK       I    between atoms: C_2  and  N_3 
REMARK    1  A    between atoms: N_3  and  C_4 
REMARK    2  A    between atoms: C_7  and  C_8 
REMARK    3  A    between atoms: C_12  and  N_13 
REMARK    4  A    between atoms: C_20  and  C_21 
ROOT
HETATM    1  C   UNL     1      27.039  41.355  50.995  1.00  0.00     0.105 C 
HETATM    2  C   UNL     1      27.645  40.453  49.919  1.00  0.00     0.067 C 
HETATM    3  C   UNL     1      28.604  39.360  50.359  1.00  0.00     0.020 C 
HETATM    4  N   UNL     1      29.401  38.452  50.725  1.00  0.00    -0.096 N 
HETATM    5  C   UNL     1      27.392  40.608  48.592  1.00  0.00     0.139 C 
HETATM    6  O   UNL     1      26.568  41.639  48.113  1.00  0.00    -0.279 OA
HETATM    7  C   UNL     1      26.196  42.552  49.003  1.00  0.00     0.175 A 
HETATM    8  C   UNL     1      26.385  42.546  50.364  1.00  0.00     0.040 A 
HETATM    9  N   UNL     1      25.583  43.715  48.686  1.00  0.00    -0.256 N 
HETATM   10  H   UNL     1      25.302  44.049  47.771  1.00  0.00     0.191 HD
HETATM   11  N   UNL     1      25.382  44.505  49.753  1.00  0.00    -0.172 NA
HETATM   12  C   UNL     1      25.875  43.806  50.797  1.00  0.00     0.099 A 
ENDROOT
BRANCH   1  13
HETATM   13  C   UNL     1      28.017  41.835  52.051  1.00  0.00    -0.044 A 
HETATM   14  C   UNL     1      29.082  42.709  51.780  1.00  0.00     0.010 A 
HETATM   15  C   UNL     1      29.906  43.180  52.812  1.00  0.00     0.030 A 
HETATM   16  C   UNL     1      29.703  42.767  54.129  1.00  0.00     0.034 A 
HETATM   17  C   UNL     1      28.687  41.844  54.394  1.00  0.00     0.030 A 
HETATM   18  C   UNL     1      27.858  41.382  53.371  1.00  0.00     0.010 A 
BRANCH  16  19
HETATM   19  N   UNL     1      30.444  43.231  55.236  1.00  0.00    -0.328 N 
HETATM   20  C   UNL     1      30.289  44.426  55.913  1.00  0.00     0.218 C 
HETATM   21  C   UNL     1      31.210  44.534  57.105  1.00  0.00     0.117 C 
HETATM   22  O   UNL     1      29.489  45.320  55.661  1.00  0.00    -0.274 OA
HETATM   23  H   UNL     1      31.133  42.588  55.602  1.00  0.00     0.169 HD
ENDBRANCH  16  19
ENDBRANCH   1  13
BRANCH   5  24
HETATM   24  N   UNL     1      27.892  39.818  47.582  1.00  0.00    -0.282 NA
HETATM   25  H   UNL     1      28.038  40.274  46.685  1.00  0.00     0.126 HD
HETATM   26  H   UNL     1      28.686  39.259  47.884  1.00  0.00     0.126 HD
ENDBRANCH   5  24
BRANCH  12  27
HETATM   27  C   UNL     1      25.893  44.406  52.127  1.00  0.00    -0.005 A 
HETATM   28  C   UNL     1      25.156  43.862  53.184  1.00  0.00     0.014 A 
HETATM   29  C   UNL     1      25.229  44.436  54.458  1.00  0.00     0.001 A 
HETATM   30  C   UNL     1      26.031  45.556  54.678  1.00  0.00     0.000 A 
HETATM   31  C   UNL     1      26.754  46.114  53.626  1.00  0.00     0.001 A 
HETATM   32  C   UNL     1      26.681  45.544  52.356  1.00  0.00     0.014 A 
ENDBRANCH  12  27
TORSDOF 4
ENDMDL
MODEL 5
REMARK VINA RESULT:      -7.7      3.381      6.237
REMARK  4 active torsions:
REMARK  status: ('A' for Active; 'I' for Inactive)
REMARK       I    between atoms: C_2  and  N_3 
REMARK    1  A    between atoms: N_3  and  C_4 
REMARK    2  A    between atoms: C_7  and  C_8 
REMARK    3  A    between atoms: C_12  and  N_13 
REMARK    4  A    between atoms: C_20  and  C_21 
ROOT
HETATM    1  C   UNL     1      24.347  43.434  50.327  1.00  0.00     0.105 C 
HETATM    2  C   UNL     1      23.456  43.662  49.106  1.00  0.00     0.067 C 
HETATM    3  C   UNL     1      23.061  42.455  48.273  1.00  0.00     0.020 C 
HETATM    4  N   UNL     1      22.732  41.452  47.581  1.00  0.00    -0.096 N 
HETATM    5  C   UNL     1      23.034  44.895  48.716  1.00  0.00     0.139 C 
HETATM    6  O   UNL     1      23.418  46.058  49.402  1.00  0.00    -0.279 OA
HETATM    7  C   UNL     1      24.349  45.905  50.337  1.00  0.00     0.175 A 
HETATM    8  C   UNL     1      24.884  44.739  50.829  1.00  0.00     0.040 A 
HETATM    9  N   UNL     1      24.985  46.931  50.949  1.00  0.00    -0.256 N 
HETATM   10  H   UNL     1      24.845  47.926  50.818  1.00  0.00     0.191 HD
HETATM   11  N   UNL     1      25.940  46.517  51.798  1.00  0.00    -0.172 NA
HETATM   12  C   UNL     1      25.899  45.171  51.734  1.00  0.00     0.099 A 
ENDROOT
BRANCH   1  13
HETATM   13  C   UNL     1      25.508  42.482  50.102  1.00  0.00    -0.044 A 
HETATM   14  C   UNL     1      26.385  42.575  49.010  1.00  0.00     0.010 A 
HETATM   15  C   UNL     1      27.486  41.715  48.897  1.00  0.00     0.030 A 
HETATM   16  C   UNL     1      27.718  40.727  49.854  1.00  0.00     0.034 A 
HETATM   17  C   UNL     1      26.809  40.585  50.907  1.00  0.00     0.030 A 
HETATM   18  C   UNL     1      25.718  41.447  51.028  1.00  0.00     0.010 A 
BRANCH  16  19
HETATM   19  N   UNL     1      28.828  39.857  49.852  1.00  0.00    -0.328 N 
HETATM   20  C   UNL     1      28.847  38.515  49.522  1.00  0.00     0.218 C 
HETATM   21  C   UNL     1      30.242  37.936  49.553  1.00  0.00     0.117 C 
HETATM   22  O   UNL     1      27.892  37.822  49.191  1.00  0.00    -0.274 OA
HETATM   23  H   UNL     1      29.719  40.284  50.069  1.00  0.00     0.169 HD
ENDBRANCH  16  19
ENDBRANCH   1  13
BRANCH   5  24
HETATM   24  N   UNL     1      22.218  45.160  47.640  1.00  0.00    -0.282 NA
HETATM   25  H   UNL     1      21.237  44.920  47.750  1.00  0.00     0.126 HD
HETATM   26  H   UNL     1      22.365  46.094  47.263  1.00  0.00     0.126 HD
ENDBRANCH   5  24
BRANCH  12  27
HETATM   27  C   UNL     1      26.870  44.380  52.483  1.00  0.00    -0.005 A 
HETATM   28  C   UNL     1      26.574  43.870  53.752  1.00  0.00     0.014 A 
HETATM   29  C   UNL     1      27.510  43.078  54.425  1.00  0.00     0.001 A 
HETATM   30  C   UNL     1      28.745  42.800  53.839  1.00  0.00     0.000 A 
HETATM   31  C   UNL     1      29.054  43.318  52.583  1.00  0.00     0.001 A 
HETATM   32  C   UNL     1      28.121  44.108  51.911  1.00  0.00     0.014 A 
ENDBRANCH  12  27
TORSDOF 4
ENDMDL
MODEL 6
REMARK VINA RESULT:      -7.6     15.068     18.347
REMARK  4 active torsions:
REMARK  status: ('A' for Active; 'I' for Inactive)
REMARK       I    between atoms: C_2  and  N_3 
REMARK    1  A    between atoms: N_3  and  C_4 
REMARK    2  A    between atoms: C_7  and  C_8 
REMARK    3  A    between atoms: C_12  and  N_13 
REMARK    4  A    between atoms: C_20  and  C_21 
ROOT
HETATM    1  C   UNL     1      40.209  40.172  65.747  1.00  0.00     0.105 C 
HETATM    2  C   UNL     1      41.231  39.160  66.265  1.00  0.00     0.067 C 
HETATM    3  C   UNL     1      41.865  39.413  67.622  1.00  0.00     0.020 C 
HETATM    4  N   UNL     1      42.391  39.624  68.750  1.00  0.00    -0.096 N 
HETATM    5  C   UNL     1      41.621  38.068  65.553  1.00  0.00     0.139 C 
HETATM    6  O   UNL     1      41.125  37.812  64.265  1.00  0.00    -0.279 OA
HETATM    7  C   UNL     1      40.396  38.777  63.716  1.00  0.00     0.175 A 
HETATM    8  C   UNL     1      39.936  39.936  64.293  1.00  0.00     0.040 A 
HETATM    9  N   UNL     1      40.014  38.794  62.418  1.00  0.00    -0.256 N 
HETATM   10  H   UNL     1      40.191  38.100  61.701  1.00  0.00     0.191 HD
HETATM   11  N   UNL     1      39.353  39.915  62.085  1.00  0.00    -0.172 NA
HETATM   12  C   UNL     1      39.300  40.635  63.225  1.00  0.00     0.099 A 
ENDROOT
BRANCH   1  13
HETATM   13  C   UNL     1      40.597  41.627  65.942  1.00  0.00    -0.044 A 
HETATM   14  C   UNL     1      41.791  42.182  65.457  1.00  0.00     0.010 A 
HETATM   15  C   UNL     1      42.058  43.551  65.600  1.00  0.00     0.030 A 
HETATM   16  C   UNL     1      41.153  44.387  66.253  1.00  0.00     0.034 A 
HETATM   17  C   UNL     1      39.994  43.828  66.798  1.00  0.00     0.030 A 
HETATM   18  C   UNL     1      39.720  42.467  66.648  1.00  0.00     0.010 A 
BRANCH  16  19
HETATM   19  N   UNL     1      41.311  45.782  66.393  1.00  0.00    -0.328 N 
HETATM   20  C   UNL     1      41.288  46.737  65.395  1.00  0.00     0.218 C 
HETATM   21  C   UNL     1      41.404  48.141  65.941  1.00  0.00     0.117 C 
HETATM   22  O   UNL     1      41.149  46.547  64.192  1.00  0.00    -0.274 OA
HETATM   23  H   UNL     1      41.400  46.119  67.342  1.00  0.00     0.169 HD
ENDBRANCH  16  19
ENDBRANCH   1  13
BRANCH   5  24
HETATM   24  N   UNL     1      42.519  37.115  65.973  1.00  0.00    -0.282 NA
HETATM   25  H   UNL     1      43.082  36.676  65.248  1.00  0.00     0.126 HD
HETATM   26  H   UNL     1      43.065  37.423  66.775  1.00  0.00     0.126 HD
ENDBRANCH   5  24
BRANCH  12  27
HETATM   27  C   UNL     1      38.711  41.970  63.211  1.00  0.00    -0.005 A 
HETATM   28  C   UNL     1      37.450  42.217  63.764  1.00  0.00     0.014 A 
HETATM   29  C   UNL     1      36.932  43.517  63.775  1.00  0.00     0.001 A 
HETATM   30  C   UNL     1      37.666  44.570  63.229  1.00  0.00     0.000 A 
HETATM   31  C   UNL     1      38.915  44.328  62.661  1.00  0.00     0.001 A 
HETATM   32  C   UNL     1      39.432  43.033  62.648  1.00  0.00     0.014 A 
ENDBRANCH  12  27
TORSDOF 4
ENDMDL
MODEL 7
REMARK VINA RESULT:      -7.3     14.987     17.287
REMARK  4 active torsions:
REMARK  status: ('A' for Active; 'I' for Inactive)
REMARK       I    between atoms: C_2  and  N_3 
REMARK    1  A    between atoms: N_3  and  C_4 
REMARK    2  A    between atoms: C_7  and  C_8 
REMARK    3  A    between atoms: C_12  and  N_13 
REMARK    4  A    between atoms: C_20  and  C_21 
ROOT
HETATM    1  C   UNL     1      37.845  45.240  64.464  1.00  0.00     0.105 C 
HETATM    2  C   UNL     1      37.499  46.568  65.137  1.00  0.00     0.067 C 
HETATM    3  C   UNL     1      38.476  47.722  64.988  1.00  0.00     0.020 C 
HETATM    4  N   UNL     1      39.287  48.680  64.864  1.00  0.00    -0.096 N 
HETATM    5  C   UNL     1      36.379  46.750  65.887  1.00  0.00     0.139 C 
HETATM    6  O   UNL     1      35.469  45.706  66.120  1.00  0.00    -0.279 OA
HETATM    7  C   UNL     1      35.849  44.499  65.718  1.00  0.00     0.175 A 
HETATM    8  C   UNL     1      36.949  44.152  64.972  1.00  0.00     0.040 A 
HETATM    9  N   UNL     1      35.203  43.354  66.040  1.00  0.00    -0.256 N 
HETATM   10  H   UNL     1      34.359  43.241  66.589  1.00  0.00     0.191 HD
HETATM   11  N   UNL     1      35.828  42.258  65.580  1.00  0.00    -0.172 NA
HETATM   12  C   UNL     1      36.909  42.727  64.925  1.00  0.00     0.099 A 
ENDROOT
BRANCH   1  13
HETATM   13  C   UNL     1      39.289  44.800  64.626  1.00  0.00    -0.044 A 
HETATM   14  C   UNL     1      40.189  44.685  63.556  1.00  0.00     0.010 A 
HETATM   15  C   UNL     1      41.532  44.349  63.777  1.00  0.00     0.030 A 
HETATM   16  C   UNL     1      41.997  44.094  65.067  1.00  0.00     0.034 A 
HETATM   17  C   UNL     1      41.090  44.140  66.130  1.00  0.00     0.030 A 
HETATM   18  C   UNL     1      39.755  44.484  65.913  1.00  0.00     0.010 A 
BRANCH  16  19
HETATM   19  N   UNL     1      43.340  43.806  65.390  1.00  0.00    -0.328 N 
HETATM   20  C   UNL     1      44.381  44.702  65.543  1.00  0.00     0.218 C 
HETATM   21  C   UNL     1      45.659  44.026  65.979  1.00  0.00     0.117 C 
HETATM   22  O   UNL     1      44.336  45.919  65.401  1.00  0.00    -0.274 OA
HETATM   23  H   UNL     1      43.545  42.834  65.581  1.00  0.00     0.169 HD
ENDBRANCH  16  19
ENDBRANCH   1  13
BRANCH   5  24
HETATM   24  N   UNL     1      36.005  47.924  66.500  1.00  0.00    -0.282 NA
HETATM   25  H   UNL     1      35.009  48.124  66.519  1.00  0.00     0.126 HD
HETATM   26  H   UNL     1      36.459  48.052  67.401  1.00  0.00     0.126 HD
ENDBRANCH   5  24
BRANCH  12  27
HETATM   27  C   UNL     1      37.873  41.791  64.354  1.00  0.00    -0.005 A 
HETATM   28  C   UNL     1      38.509  40.826  65.142  1.00  0.00     0.014 A 
HETATM   29  C   UNL     1      39.395  39.915  64.557  1.00  0.00     0.001 A 
HETATM   30  C   UNL     1      39.652  39.968  63.187  1.00  0.00     0.000 A 
HETATM   31  C   UNL     1      39.035  40.937  62.398  1.00  0.00     0.001 A 
HETATM   32  C   UNL     1      38.153  41.847  62.981  1.00  0.00     0.014 A 
ENDBRANCH  12  27
TORSDOF 4
ENDMDL
MODEL 8
REMARK VINA RESULT:      -7.2     15.778     18.597
REMARK  4 active torsions:
REMARK  status: ('A' for Active; 'I' for Inactive)
REMARK       I    between atoms: C_2  and  N_3 
REMARK    1  A    between atoms: N_3  and  C_4 
REMARK    2  A    between atoms: C_7  and  C_8 
REMARK    3  A    between atoms: C_12  and  N_13 
REMARK    4  A    between atoms: C_20  and  C_21 
ROOT
HETATM    1  C   UNL     1      41.136  46.343  65.744  1.00  0.00     0.105 C 
HETATM    2  C   UNL     1      42.572  46.442  65.227  1.00  0.00     0.067 C 
HETATM    3  C   UNL     1      43.515  47.413  65.916  1.00  0.00     0.020 C 
HETATM    4  N   UNL     1      44.299  48.220  66.488  1.00  0.00    -0.096 N 
HETATM    5  C   UNL     1      43.028  45.728  64.162  1.00  0.00     0.139 C 
HETATM    6  O   UNL     1      42.191  44.864  63.440  1.00  0.00    -0.279 OA
HETATM    7  C   UNL     1      40.898  44.914  63.741  1.00  0.00     0.175 A 
HETATM    8  C   UNL     1      40.285  45.592  64.767  1.00  0.00     0.040 A 
HETATM    9  N   UNL     1      39.926  44.314  63.016  1.00  0.00    -0.256 N 
HETATM   10  H   UNL     1      40.024  43.741  62.186  1.00  0.00     0.191 HD
HETATM   11  N   UNL     1      38.694  44.580  63.478  1.00  0.00    -0.172 NA
HETATM   12  C   UNL     1      38.892  45.371  64.553  1.00  0.00     0.099 A 
ENDROOT
BRANCH   1  13
HETATM   13  C   UNL     1      40.475  47.675  66.047  1.00  0.00    -0.044 A 
HETATM   14  C   UNL     1      40.220  48.653  65.074  1.00  0.00     0.010 A 
HETATM   15  C   UNL     1      39.535  49.832  65.400  1.00  0.00     0.030 A 
HETATM   16  C   UNL     1      39.115  50.071  66.709  1.00  0.00     0.034 A 
HETATM   17  C   UNL     1      39.425  49.131  67.696  1.00  0.00     0.030 A 
HETATM   18  C   UNL     1      40.098  47.951  67.372  1.00  0.00     0.010 A 
BRANCH  16  19
HETATM   19  N   UNL     1      38.371  51.198  67.117  1.00  0.00    -0.328 N 
HETATM   20  C   UNL     1      38.671  52.529  66.900  1.00  0.00     0.218 C 
HETATM   21  C   UNL     1      37.589  53.452  67.410  1.00  0.00     0.117 C 
HETATM   22  O   UNL     1      39.658  52.981  66.330  1.00  0.00    -0.274 OA
HETATM   23  H   UNL     1      37.492  51.000  67.576  1.00  0.00     0.169 HD
ENDBRANCH  16  19
ENDBRANCH   1  13
BRANCH   5  24
HETATM   24  N   UNL     1      44.311  45.761  63.665  1.00  0.00    -0.282 NA
HETATM   25  H   UNL     1      45.033  46.085  64.303  1.00  0.00     0.126 HD
HETATM   26  H   UNL     1      44.560  44.904  63.177  1.00  0.00     0.126 HD
ENDBRANCH   5  24
BRANCH  12  27
HETATM   27  C   UNL     1      37.745  45.922  65.267  1.00  0.00    -0.005 A 
HETATM   28  C   UNL     1      37.295  45.365  66.468  1.00  0.00     0.014 A 
HETATM   29  C   UNL     1      36.220  45.944  67.152  1.00  0.00     0.001 A 
HETATM   30  C   UNL     1      35.588  47.075  66.635  1.00  0.00     0.000 A 
HETATM   31  C   UNL     1      36.020  47.627  65.431  1.00  0.00     0.001 A 
HETATM   32  C   UNL     1      37.090  47.050  64.748  1.00  0.00     0.014 A 
ENDBRANCH  12  27
TORSDOF 4
ENDMDL
MODEL 9
REMARK VINA RESULT:      -7.2     14.341     16.067
REMARK  4 active torsions:
REMARK  status: ('A' for Active; 'I' for Inactive)
REMARK       I    between atoms: C_2  and  N_3 
REMARK    1  A    between atoms: N_3  and  C_4 
REMARK    2  A    between atoms: C_7  and  C_8 
REMARK    3  A    between atoms: C_12  and  N_13 
REMARK    4  A    between atoms: C_20  and  C_21 
ROOT
HETATM    1  C   UNL     1      28.478  47.339  38.197  1.00  0.00     0.105 C 
HETATM    2  C   UNL     1      28.266  45.835  38.376  1.00  0.00     0.067 C 
HETATM    3  C   UNL     1      26.972  45.228  37.861  1.00  0.00     0.020 C 
HETATM    4  N   UNL     1      25.897  44.725  37.433  1.00  0.00    -0.096 N 
HETATM    5  C   UNL     1      29.165  45.028  39.003  1.00  0.00     0.139 C 
HETATM    6  O   UNL     1      30.348  45.536  39.561  1.00  0.00    -0.279 OA
HETATM    7  C   UNL     1      30.458  46.859  39.597  1.00  0.00     0.175 A 
HETATM    8  C   UNL     1      29.635  47.802  39.028  1.00  0.00     0.040 A 
HETATM    9  N   UNL     1      31.422  47.523  40.277  1.00  0.00    -0.256 N 
HETATM   10  H   UNL     1      32.188  47.139  40.818  1.00  0.00     0.191 HD
HETATM   11  N   UNL     1      31.271  48.856  40.224  1.00  0.00    -0.172 NA
HETATM   12  C   UNL     1      30.172  49.049  39.465  1.00  0.00     0.099 A 
ENDROOT
BRANCH   1  13
HETATM   13  C   UNL     1      27.269  48.196  38.521  1.00  0.00    -0.044 A 
HETATM   14  C   UNL     1      26.777  49.196  37.667  1.00  0.00     0.010 A 
HETATM   15  C   UNL     1      25.609  49.903  37.985  1.00  0.00     0.030 A 
HETATM   16  C   UNL     1      24.924  49.647  39.173  1.00  0.00     0.034 A 
HETATM   17  C   UNL     1      25.447  48.701  40.059  1.00  0.00     0.030 A 
HETATM   18  C   UNL     1      26.604  47.987  39.740  1.00  0.00     0.010 A 
BRANCH  16  19
HETATM   19  N   UNL     1      23.713  50.266  39.547  1.00  0.00    -0.328 N 
HETATM   20  C   UNL     1      22.538  50.327  38.823  1.00  0.00     0.218 C 
HETATM   21  C   UNL     1      21.425  51.001  39.591  1.00  0.00     0.117 C 
HETATM   22  O   UNL     1      22.335  49.871  37.703  1.00  0.00    -0.274 OA
HETATM   23  H   UNL     1      23.696  50.666  40.476  1.00  0.00     0.169 HD
ENDBRANCH  16  19
ENDBRANCH   1  13
BRANCH   5  24
HETATM   24  N   UNL     1      29.038  43.670  39.177  1.00  0.00    -0.282 NA
HETATM   25  H   UNL     1      29.400  43.292  40.049  1.00  0.00     0.126 HD
HETATM   26  H   UNL     1      28.105  43.335  38.950  1.00  0.00     0.126 HD
ENDBRANCH   5  24
BRANCH  12  27
HETATM   27  C   UNL     1      29.662  50.401  39.260  1.00  0.00    -0.005 A 
HETATM   28  C   UNL     1      28.905  51.053  40.239  1.00  0.00     0.014 A 
HETATM   29  C   UNL     1      28.468  52.365  40.029  1.00  0.00     0.001 A 
HETATM   30  C   UNL     1      28.779  53.027  38.841  1.00  0.00     0.000 A 
HETATM   31  C   UNL     1      29.518  52.378  37.854  1.00  0.00     0.001 A 
HETATM   32  C   UNL     1      29.953  51.069  38.061  1.00  0.00     0.014 A 
ENDBRANCH  12  27
TORSDOF 4
ENDMDL
MODEL 10
REMARK VINA RESULT:      -7.1      6.767     10.295
REMARK  4 active torsions:
REMARK  status: ('A' for Active; 'I' for Inactive)
REMARK       I    between atoms: C_2  and  N_3 
REMARK    1  A    between atoms: N_3  and  C_4 
REMARK    2  A    between atoms: C_7  and  C_8 
REMARK    3  A    between atoms: C_12  and  N_13 
REMARK    4  A    between atoms: C_20  and  C_21 
ROOT
HETATM    1  C   UNL     1      22.063  45.887  47.585  1.00  0.00     0.105 C 
HETATM    2  C   UNL     1      21.775  44.385  47.612  1.00  0.00     0.067 C 
HETATM    3  C   UNL     1      20.576  43.873  46.833  1.00  0.00     0.020 C 
HETATM    4  N   UNL     1      19.580  43.447  46.186  1.00  0.00    -0.096 N 
HETATM    5  C   UNL     1      22.521  43.500  48.326  1.00  0.00     0.139 C 
HETATM    6  O   UNL     1      23.600  43.916  49.121  1.00  0.00    -0.279 OA
HETATM    7  C   UNL     1      23.744  45.228  49.273  1.00  0.00     0.175 A 
HETATM    8  C   UNL     1      23.066  46.241  48.639  1.00  0.00     0.040 A 
HETATM    9  N   UNL     1      24.590  45.801  50.160  1.00  0.00    -0.256 N 
HETATM   10  H   UNL     1      25.234  45.348  50.798  1.00  0.00     0.191 HD
HETATM   11  N   UNL     1      24.493  47.140  50.180  1.00  0.00    -0.172 NA
HETATM   12  C   UNL     1      23.555  47.432  49.255  1.00  0.00     0.099 A 
ENDROOT
BRANCH   1  13
HETATM   13  C   UNL     1      20.843  46.774  47.752  1.00  0.00    -0.044 A 
HETATM   14  C   UNL     1      19.891  46.599  48.769  1.00  0.00     0.010 A 
HETATM   15  C   UNL     1      18.826  47.498  48.920  1.00  0.00     0.030 A 
HETATM   16  C   UNL     1      18.673  48.572  48.044  1.00  0.00     0.034 A 
HETATM   17  C   UNL     1      19.579  48.713  46.989  1.00  0.00     0.030 A 
HETATM   18  C   UNL     1      20.647  47.826  46.842  1.00  0.00     0.010 A 
BRANCH  16  19
HETATM   19  N   UNL     1      17.669  49.557  48.154  1.00  0.00    -0.328 N 
HETATM   20  C   UNL     1      17.445  50.419  49.210  1.00  0.00     0.218 C 
HETATM   21  C   UNL     1      16.328  51.395  48.927  1.00  0.00     0.117 C 
HETATM   22  O   UNL     1      18.067  50.473  50.265  1.00  0.00    -0.274 OA
HETATM   23  H   UNL     1      17.080  49.673  47.340  1.00  0.00     0.169 HD
ENDBRANCH  16  19
ENDBRANCH   1  13
BRANCH   5  24
HETATM   24  N   UNL     1      22.322  42.139  48.375  1.00  0.00    -0.282 NA
HETATM   25  H   UNL     1      21.377  41.830  48.591  1.00  0.00     0.126 HD
HETATM   26  H   UNL     1      22.730  41.659  47.577  1.00  0.00     0.126 HD
ENDBRANCH   5  24
BRANCH  12  27
HETATM   27  C   UNL     1      23.133  48.815  49.063  1.00  0.00    -0.005 A 
HETATM   28  C   UNL     1      23.734  49.637  48.104  1.00  0.00     0.014 A 
HETATM   29  C   UNL     1      23.276  50.945  47.915  1.00  0.00     0.001 A 
HETATM   30  C   UNL     1      22.223  51.439  48.685  1.00  0.00     0.000 A 
HETATM   31  C   UNL     1      21.630  50.632  49.654  1.00  0.00     0.001 A 
HETATM   32  C   UNL     1      22.086  49.328  49.845  1.00  0.00     0.014 A 
ENDBRANCH  12  27
TORSDOF 4
ENDMDL
