MODEL 1
REMARK VINA RESULT:      -8.9      0.000      0.000
REMARK  6 active torsions:
REMARK  status: ('A' for Active; 'I' for Inactive)
REMARK    1  A    between atoms: C_2  and  O_3 
REMARK    2  A    between atoms: O_3  and  C_4 
REMARK    3  A    between atoms: C_7  and  C_8 
REMARK       I    between atoms: N_11  and  C_12 
REMARK       I    between atoms: C_12  and  N_13 
REMARK    4  A    between atoms: N_13  and  C_14 
REMARK    5  A    between atoms: C_14  and  C_15 
REMARK    6  A    between atoms: C_15  and  C_16 
ROOT
HETATM    1  C   UNL     1      26.435  45.115  51.777  1.00  0.00    -0.049 C 
HETATM    2  C   UNL     1      25.637  46.289  52.273  1.00  0.00     0.059 C 
HETATM    3  C   UNL     1      25.083  47.116  51.113  1.00  0.00     0.132 C 
HETATM    4  N   UNL     1      24.411  46.282  50.115  1.00  0.00    -0.331 N 
HETATM    5  C   UNL     1      23.414  46.754  49.267  1.00  0.00     0.318 C 
HETATM    6  N   UNL     1      22.832  47.930  49.643  1.00  0.00    -0.338 N 
HETATM    7  O   UNL     1      23.109  46.185  48.221  1.00  0.00    -0.247 OA
HETATM    8  C   UNL     1      25.172  45.153  49.587  1.00  0.00     0.155 C 
HETATM    9  C   UNL     1      26.201  44.624  50.545  1.00  0.00     0.001 C 
HETATM   10  H   UNL     1      22.763  48.130  50.634  1.00  0.00     0.164 HD
ENDROOT
BRANCH   6  11
HETATM   11  C   UNL     1      21.822  48.614  48.845  1.00  0.00     0.087 C 
HETATM   12  C   UNL     1      20.423  48.059  49.125  1.00  0.00     0.032 C 
BRANCH  11  13
HETATM   13  C   UNL     1      21.903  50.138  49.056  1.00  0.00     0.085 C 
BRANCH  13  14
HETATM   14  C   UNL     1      20.609  50.878  48.889  1.00  0.00     0.058 A 
HETATM   15  N   UNL     1      20.071  51.080  47.676  1.00  0.00    -0.179 NA
HETATM   16  N   UNL     1      18.928  51.737  47.933  1.00  0.00    -0.282 N 
HETATM   17  H   UNL     1      18.338  52.001  47.150  1.00  0.00     0.189 HD
HETATM   18  C   UNL     1      18.708  51.958  49.263  1.00  0.00     0.026 A 
HETATM   19  C   UNL     1      17.501  52.646  49.771  1.00  0.00     0.070 C 
HETATM   20  C   UNL     1      19.791  51.410  49.913  1.00  0.00     0.055 A 
ENDBRANCH  13  14
ENDBRANCH  11  13
ENDBRANCH   6  11
BRANCH   1  21
HETATM   21  C   UNL     1      27.506  44.562  52.628  1.00  0.00    -0.030 A 
HETATM   22  C   UNL     1      28.401  43.608  52.126  1.00  0.00     0.014 A 
HETATM   23  C   UNL     1      29.427  43.087  52.925  1.00  0.00     0.037 A 
HETATM   24  C   UNL     1      29.573  43.511  54.244  1.00  0.00     0.068 A 
HETATM   25  C   UNL     1      28.678  44.452  54.756  1.00  0.00     0.037 A 
HETATM   26  C   UNL     1      27.656  44.976  53.957  1.00  0.00     0.014 A 
BRANCH  24  27
HETATM   27  O   UNL     1      30.528  43.084  55.124  1.00  0.00    -0.352 OA
BRANCH  27  28
HETATM   28  C   UNL     1      31.009  44.040  56.069  1.00  0.00     0.171 C 
HETATM   29  C   UNL     1      31.783  43.295  57.141  1.00  0.00     0.034 C 
ENDBRANCH  27  28
ENDBRANCH  24  27
ENDBRANCH   1  21
TORSDOF 6
ENDMDL
MODEL 2
REMARK VINA RESULT:      -8.8      1.698      2.433
REMARK  6 active torsions:
REMARK  status: ('A' for Active; 'I' for Inactive)
REMARK    1  A    between atoms: C_2  and  O_3 
REMARK    2  A    between atoms: O_3  and  C_4 
REMARK    3  A    between atoms: C_7  and  C_8 
REMARK       I    between atoms: N_11  and  C_12 
REMARK       I    between atoms: C_12  and  N_13 
REMARK    4  A    between atoms: N_13  and  C_14 
REMARK    5  A    between atoms: C_14  and  C_15 
REMARK    6  A    between atoms: C_15  and  C_16 
ROOT
HETATM    1  C   UNL     1      25.973  44.606  52.376  1.00  0.00    -0.049 C 
HETATM    2  C   UNL     1      25.243  45.873  52.022  1.00  0.00     0.059 C 
HETATM    3  C   UNL     1      24.620  45.787  50.629  1.00  0.00     0.132 C 
HETATM    4  N   UNL     1      23.854  44.552  50.445  1.00  0.00    -0.331 N 
HETATM    5  C   UNL     1      22.805  44.429  49.539  1.00  0.00     0.318 C 
HETATM    6  N   UNL     1      22.281  45.604  49.084  1.00  0.00    -0.338 N 
HETATM    7  O   UNL     1      22.407  43.340  49.130  1.00  0.00    -0.247 OA
HETATM    8  C   UNL     1      24.546  43.302  50.747  1.00  0.00     0.155 C 
HETATM    9  C   UNL     1      25.634  43.452  51.772  1.00  0.00     0.001 C 
HETATM   10  H   UNL     1      22.294  46.402  49.708  1.00  0.00     0.164 HD
ENDROOT
BRANCH   6  11
HETATM   11  C   UNL     1      21.228  45.674  48.079  1.00  0.00     0.087 C 
HETATM   12  C   UNL     1      19.843  45.549  48.716  1.00  0.00     0.032 C 
BRANCH  11  13
HETATM   13  C   UNL     1      21.373  46.951  47.229  1.00  0.00     0.085 C 
BRANCH  13  14
HETATM   14  C   UNL     1      21.239  48.241  47.984  1.00  0.00     0.058 A 
HETATM   15  N   UNL     1      21.988  48.496  49.068  1.00  0.00    -0.179 NA
HETATM   16  N   UNL     1      21.611  49.731  49.440  1.00  0.00    -0.282 N 
HETATM   17  H   UNL     1      22.053  50.144  50.255  1.00  0.00     0.189 HD
HETATM   18  C   UNL     1      20.655  50.280  48.633  1.00  0.00     0.026 A 
HETATM   19  C   UNL     1      20.111  51.639  48.847  1.00  0.00     0.070 C 
HETATM   20  C   UNL     1      20.390  49.329  47.674  1.00  0.00     0.055 A 
ENDBRANCH  13  14
ENDBRANCH  11  13
ENDBRANCH   6  11
BRANCH   1  21
HETATM   21  C   UNL     1      27.094  44.666  53.334  1.00  0.00    -0.030 A 
HETATM   22  C   UNL     1      27.280  45.790  54.151  1.00  0.00     0.014 A 
HETATM   23  C   UNL     1      28.335  45.849  55.070  1.00  0.00     0.037 A 
HETATM   24  C   UNL     1      29.225  44.783  55.186  1.00  0.00     0.068 A 
HETATM   25  C   UNL     1      29.054  43.665  54.368  1.00  0.00     0.037 A 
HETATM   26  C   UNL     1      27.997  43.604  53.453  1.00  0.00     0.014 A 
BRANCH  24  27
HETATM   27  O   UNL     1      30.290  44.715  56.041  1.00  0.00    -0.352 OA
BRANCH  27  28
HETATM   28  C   UNL     1      31.086  43.532  55.987  1.00  0.00     0.171 C 
HETATM   29  C   UNL     1      31.867  43.430  57.285  1.00  0.00     0.034 C 
ENDBRANCH  27  28
ENDBRANCH  24  27
ENDBRANCH   1  21
TORSDOF 6
ENDMDL
MODEL 3
REMARK VINA RESULT:      -8.1      3.380     11.990
REMARK  6 active torsions:
REMARK  status: ('A' for Active; 'I' for Inactive)
REMARK    1  A    between atoms: C_2  and  O_3 
REMARK    2  A    between atoms: O_3  and  C_4 
REMARK    3  A    between atoms: C_7  and  C_8 
REMARK       I    between atoms: N_11  and  C_12 
REMARK       I    between atoms: C_12  and  N_13 
REMARK    4  A    between atoms: N_13  and  C_14 
REMARK    5  A    between atoms: C_14  and  C_15 
REMARK    6  A    between atoms: C_15  and  C_16 
ROOT
HETATM    1  C   UNL     1      19.508  50.952  49.117  1.00  0.00    -0.049 C 
HETATM    2  C   UNL     1      19.578  49.587  49.744  1.00  0.00     0.059 C 
HETATM    3  C   UNL     1      20.788  48.802  49.238  1.00  0.00     0.132 C 
HETATM    4  N   UNL     1      22.022  49.588  49.311  1.00  0.00    -0.331 N 
HETATM    5  C   UNL     1      23.287  49.018  49.413  1.00  0.00     0.318 C 
HETATM    6  N   UNL     1      23.314  47.711  49.805  1.00  0.00    -0.338 N 
HETATM    7  O   UNL     1      24.314  49.629  49.121  1.00  0.00    -0.247 OA
HETATM    8  C   UNL     1      21.997  50.904  48.680  1.00  0.00     0.155 C 
HETATM    9  C   UNL     1      20.629  51.522  48.636  1.00  0.00     0.001 C 
HETATM   10  H   UNL     1      22.583  47.388  50.428  1.00  0.00     0.164 HD
ENDROOT
BRANCH   6  11
HETATM   11  C   UNL     1      24.540  46.929  49.898  1.00  0.00     0.087 C 
HETATM   12  C   UNL     1      25.218  47.118  51.256  1.00  0.00     0.032 C 
BRANCH  11  13
HETATM   13  C   UNL     1      24.263  45.447  49.579  1.00  0.00     0.085 C 
BRANCH  13  14
HETATM   14  C   UNL     1      24.994  44.459  50.440  1.00  0.00     0.058 A 
HETATM   15  N   UNL     1      24.400  43.880  51.496  1.00  0.00    -0.179 NA
HETATM   16  N   UNL     1      25.341  43.056  51.986  1.00  0.00    -0.282 N 
HETATM   17  H   UNL     1      25.114  42.499  52.804  1.00  0.00     0.189 HD
HETATM   18  C   UNL     1      26.512  43.079  51.283  1.00  0.00     0.026 A 
HETATM   19  C   UNL     1      27.674  42.235  51.636  1.00  0.00     0.070 C 
HETATM   20  C   UNL     1      26.316  43.989  50.269  1.00  0.00     0.055 A 
ENDBRANCH  13  14
ENDBRANCH  11  13
ENDBRANCH   6  11
BRANCH   1  21
HETATM   21  C   UNL     1      18.196  51.614  48.981  1.00  0.00    -0.030 A 
HETATM   22  C   UNL     1      17.412  51.424  47.835  1.00  0.00     0.014 A 
HETATM   23  C   UNL     1      16.160  52.041  47.704  1.00  0.00     0.037 A 
HETATM   24  C   UNL     1      15.674  52.862  48.719  1.00  0.00     0.068 A 
HETATM   25  C   UNL     1      16.454  53.067  49.858  1.00  0.00     0.037 A 
HETATM   26  C   UNL     1      17.701  52.447  49.992  1.00  0.00     0.014 A 
BRANCH  24  27
HETATM   27  O   UNL     1      14.474  53.518  48.715  1.00  0.00    -0.352 OA
BRANCH  27  28
HETATM   28  C   UNL     1      13.890  53.803  49.987  1.00  0.00     0.171 C 
HETATM   29  C   UNL     1      12.513  54.395  49.750  1.00  0.00     0.034 C 
ENDBRANCH  27  28
ENDBRANCH  24  27
ENDBRANCH   1  21
TORSDOF 6
ENDMDL
MODEL 4
REMARK VINA RESULT:      -8.0      3.734      9.941
REMARK  6 active torsions:
REMARK  status: ('A' for Active; 'I' for Inactive)
REMARK    1  A    between atoms: C_2  and  O_3 
REMARK    2  A    between atoms: O_3  and  C_4 
REMARK    3  A    between atoms: C_7  and  C_8 
REMARK       I    between atoms: N_11  and  C_12 
REMARK       I    between atoms: C_12  and  N_13 
REMARK    4  A    between atoms: N_13  and  C_14 
REMARK    5  A    between atoms: C_14  and  C_15 
REMARK    6  A    between atoms: C_15  and  C_16 
ROOT
HETATM    1  C   UNL     1      24.028  45.949  49.538  1.00  0.00    -0.049 C 
HETATM    2  C   UNL     1      25.345  46.025  50.261  1.00  0.00     0.059 C 
HETATM    3  C   UNL     1      25.545  44.822  51.183  1.00  0.00     0.132 C 
HETATM    4  N   UNL     1      25.281  43.555  50.497  1.00  0.00    -0.331 N 
HETATM    5  C   UNL     1      25.845  42.344  50.884  1.00  0.00     0.318 C 
HETATM    6  N   UNL     1      26.934  42.437  51.701  1.00  0.00    -0.338 N 
HETATM    7  O   UNL     1      25.369  41.257  50.559  1.00  0.00    -0.247 OA
HETATM    8  C   UNL     1      23.995  43.437  49.816  1.00  0.00     0.155 C 
HETATM    9  C   UNL     1      23.437  44.753  49.356  1.00  0.00     0.001 C 
HETATM   10  H   UNL     1      27.539  43.243  51.596  1.00  0.00     0.164 HD
ENDROOT
BRANCH   6  11
HETATM   11  C   UNL     1      27.613  41.276  52.264  1.00  0.00     0.087 C 
HETATM   12  C   UNL     1      28.602  40.672  51.264  1.00  0.00     0.032 C 
BRANCH  11  13
HETATM   13  C   UNL     1      28.279  41.636  53.606  1.00  0.00     0.085 C 
BRANCH  13  14
HETATM   14  C   UNL     1      28.008  43.025  54.104  1.00  0.00     0.058 A 
HETATM   15  N   UNL     1      26.787  43.392  54.521  1.00  0.00    -0.179 NA
HETATM   16  N   UNL     1      26.945  44.669  54.908  1.00  0.00    -0.282 N 
HETATM   17  H   UNL     1      26.137  45.166  55.270  1.00  0.00     0.189 HD
HETATM   18  C   UNL     1      28.221  45.132  54.762  1.00  0.00     0.026 A 
HETATM   19  C   UNL     1      28.624  46.504  55.145  1.00  0.00     0.070 C 
HETATM   20  C   UNL     1      28.939  44.082  54.236  1.00  0.00     0.055 A 
ENDBRANCH  13  14
ENDBRANCH  11  13
ENDBRANCH   6  11
BRANCH   1  21
HETATM   21  C   UNL     1      23.376  47.198  49.097  1.00  0.00    -0.030 A 
HETATM   22  C   UNL     1      22.181  47.164  48.367  1.00  0.00     0.014 A 
HETATM   23  C   UNL     1      21.551  48.345  47.955  1.00  0.00     0.037 A 
HETATM   24  C   UNL     1      22.110  49.583  48.266  1.00  0.00     0.068 A 
HETATM   25  C   UNL     1      23.307  49.626  48.983  1.00  0.00     0.037 A 
HETATM   26  C   UNL     1      23.933  48.446  49.399  1.00  0.00     0.014 A 
BRANCH  24  27
HETATM   27  O   UNL     1      21.597  50.804  47.926  1.00  0.00    -0.352 OA
BRANCH  27  28
HETATM   28  C   UNL     1      20.174  50.923  47.903  1.00  0.00     0.171 C 
HETATM   29  C   UNL     1      19.742  51.648  49.165  1.00  0.00     0.034 C 
ENDBRANCH  27  28
ENDBRANCH  24  27
ENDBRANCH   1  21
TORSDOF 6
ENDMDL
MODEL 5
REMARK VINA RESULT:      -8.0      1.643      2.319
REMARK  6 active torsions:
REMARK  status: ('A' for Active; 'I' for Inactive)
REMARK    1  A    between atoms: C_2  and  O_3 
REMARK    2  A    between atoms: O_3  and  C_4 
REMARK    3  A    between atoms: C_7  and  C_8 
REMARK       I    between atoms: N_11  and  C_12 
REMARK       I    between atoms: C_12  and  N_13 
REMARK    4  A    between atoms: N_13  and  C_14 
REMARK    5  A    between atoms: C_14  and  C_15 
REMARK    6  A    between atoms: C_15  and  C_16 
ROOT
HETATM    1  C   UNL     1      25.903  45.588  51.186  1.00  0.00    -0.049 C 
HETATM    2  C   UNL     1      24.995  44.666  50.420  1.00  0.00     0.059 C 
HETATM    3  C   UNL     1      23.712  45.379  49.989  1.00  0.00     0.132 C 
HETATM    4  N   UNL     1      23.988  46.664  49.343  1.00  0.00    -0.331 N 
HETATM    5  C   UNL     1      23.125  47.263  48.431  1.00  0.00     0.318 C 
HETATM    6  N   UNL     1      22.181  46.441  47.888  1.00  0.00    -0.338 N 
HETATM    7  O   UNL     1      23.169  48.463  48.168  1.00  0.00    -0.247 OA
HETATM    8  C   UNL     1      24.839  47.595  50.077  1.00  0.00     0.155 C 
HETATM    9  C   UNL     1      25.803  46.920  51.010  1.00  0.00     0.001 C 
HETATM   10  H   UNL     1      22.417  45.463  47.764  1.00  0.00     0.164 HD
ENDROOT
BRANCH   6  11
HETATM   11  C   UNL     1      21.147  46.906  46.972  1.00  0.00     0.087 C 
HETATM   12  C   UNL     1      20.957  45.930  45.808  1.00  0.00     0.032 C 
BRANCH  11  13
HETATM   13  C   UNL     1      19.834  47.183  47.729  1.00  0.00     0.085 C 
BRANCH  13  14
HETATM   14  C   UNL     1      19.719  48.553  48.330  1.00  0.00     0.058 A 
HETATM   15  N   UNL     1      19.829  48.746  49.654  1.00  0.00    -0.179 NA
HETATM   16  N   UNL     1      19.702  50.076  49.800  1.00  0.00    -0.282 N 
HETATM   17  H   UNL     1      19.754  50.464  50.737  1.00  0.00     0.189 HD
HETATM   18  C   UNL     1      19.522  50.743  48.622  1.00  0.00     0.026 A 
HETATM   19  C   UNL     1      19.379  52.213  48.548  1.00  0.00     0.070 C 
HETATM   20  C   UNL     1      19.525  49.774  47.644  1.00  0.00     0.055 A 
ENDBRANCH  13  14
ENDBRANCH  11  13
ENDBRANCH   6  11
BRANCH   1  21
HETATM   21  C   UNL     1      26.846  45.017  52.167  1.00  0.00    -0.030 A 
HETATM   22  C   UNL     1      26.913  45.518  53.474  1.00  0.00     0.014 A 
HETATM   23  C   UNL     1      27.798  44.973  54.414  1.00  0.00     0.037 A 
HETATM   24  C   UNL     1      28.634  43.917  54.059  1.00  0.00     0.068 A 
HETATM   25  C   UNL     1      28.583  43.420  52.755  1.00  0.00     0.037 A 
HETATM   26  C   UNL     1      27.696  43.961  51.818  1.00  0.00     0.014 A 
BRANCH  24  27
HETATM   27  O   UNL     1      29.538  43.298  54.877  1.00  0.00    -0.352 OA
BRANCH  27  28
HETATM   28  C   UNL     1      30.406  44.142  55.634  1.00  0.00     0.171 C 
HETATM   29  C   UNL     1      31.241  43.261  56.546  1.00  0.00     0.034 C 
ENDBRANCH  27  28
ENDBRANCH  24  27
ENDBRANCH   1  21
TORSDOF 6
ENDMDL
MODEL 6
REMARK VINA RESULT:      -7.9      3.243     11.619
REMARK  6 active torsions:
REMARK  status: ('A' for Active; 'I' for Inactive)
REMARK    1  A    between atoms: C_2  and  O_3 
REMARK    2  A    between atoms: O_3  and  C_4 
REMARK    3  A    between atoms: C_7  and  C_8 
REMARK       I    between atoms: N_11  and  C_12 
REMARK       I    between atoms: C_12  and  N_13 
REMARK    4  A    between atoms: N_13  and  C_14 
REMARK    5  A    between atoms: C_14  and  C_15 
REMARK    6  A    between atoms: C_15  and  C_16 
ROOT
HETATM    1  C   UNL     1      21.570  50.051  48.308  1.00  0.00    -0.049 C 
HETATM    2  C   UNL     1      21.475  48.792  49.125  1.00  0.00     0.059 C 
HETATM    3  C   UNL     1      22.723  47.925  48.962  1.00  0.00     0.132 C 
HETATM    4  N   UNL     1      23.955  48.696  49.143  1.00  0.00    -0.331 N 
HETATM    5  C   UNL     1      25.159  48.131  49.550  1.00  0.00     0.318 C 
HETATM    6  N   UNL     1      25.065  46.896  50.122  1.00  0.00    -0.338 N 
HETATM    7  O   UNL     1      26.245  48.678  49.363  1.00  0.00    -0.247 OA
HETATM    8  C   UNL     1      24.094  49.906  48.337  1.00  0.00     0.155 C 
HETATM    9  C   UNL     1      22.780  50.529  47.960  1.00  0.00     0.001 C 
HETATM   10  H   UNL     1      24.224  46.677  50.643  1.00  0.00     0.164 HD
ENDROOT
BRANCH   6  11
HETATM   11  C   UNL     1      26.223  46.119  50.544  1.00  0.00     0.087 C 
HETATM   12  C   UNL     1      26.250  45.941  52.064  1.00  0.00     0.032 C 
BRANCH  11  13
HETATM   13  C   UNL     1      26.279  44.775  49.793  1.00  0.00     0.085 C 
BRANCH  13  14
HETATM   14  C   UNL     1      26.570  43.576  50.646  1.00  0.00     0.058 A 
HETATM   15  N   UNL     1      25.626  42.658  50.906  1.00  0.00    -0.179 NA
HETATM   16  N   UNL     1      26.261  41.743  51.658  1.00  0.00    -0.282 N 
HETATM   17  H   UNL     1      25.735  40.937  51.981  1.00  0.00     0.189 HD
HETATM   18  C   UNL     1      27.575  42.036  51.886  1.00  0.00     0.026 A 
HETATM   19  C   UNL     1      28.467  41.155  52.673  1.00  0.00     0.070 C 
HETATM   20  C   UNL     1      27.807  43.228  51.239  1.00  0.00     0.055 A 
ENDBRANCH  13  14
ENDBRANCH  11  13
ENDBRANCH   6  11
BRANCH   1  21
HETATM   21  C   UNL     1      20.329  50.704  47.846  1.00  0.00    -0.030 A 
HETATM   22  C   UNL     1      19.839  51.848  48.489  1.00  0.00     0.014 A 
HETATM   23  C   UNL     1      18.668  52.479  48.049  1.00  0.00     0.037 A 
HETATM   24  C   UNL     1      17.966  51.973  46.957  1.00  0.00     0.068 A 
HETATM   25  C   UNL     1      18.442  50.827  46.318  1.00  0.00     0.037 A 
HETATM   26  C   UNL     1      19.614  50.199  46.754  1.00  0.00     0.014 A 
BRANCH  24  27
HETATM   27  O   UNL     1      16.817  52.494  46.430  1.00  0.00    -0.352 OA
BRANCH  27  28
HETATM   28  C   UNL     1      15.602  51.806  46.728  1.00  0.00     0.171 C 
HETATM   29  C   UNL     1      14.685  51.927  45.525  1.00  0.00     0.034 C 
ENDBRANCH  27  28
ENDBRANCH  24  27
ENDBRANCH   1  21
TORSDOF 6
ENDMDL
MODEL 7
REMARK VINA RESULT:      -7.7      3.671      5.308
REMARK  6 active torsions:
REMARK  status: ('A' for Active; 'I' for Inactive)
REMARK    1  A    between atoms: C_2  and  O_3 
REMARK    2  A    between atoms: O_3  and  C_4 
REMARK    3  A    between atoms: C_7  and  C_8 
REMARK       I    between atoms: N_11  and  C_12 
REMARK       I    between atoms: C_12  and  N_13 
REMARK    4  A    between atoms: N_13  and  C_14 
REMARK    5  A    between atoms: C_14  and  C_15 
REMARK    6  A    between atoms: C_15  and  C_16 
ROOT
HETATM    1  C   UNL     1      27.461  42.705  51.873  1.00  0.00    -0.049 C 
HETATM    2  C   UNL     1      26.085  43.264  51.632  1.00  0.00     0.059 C 
HETATM    3  C   UNL     1      25.675  43.122  50.166  1.00  0.00     0.132 C 
HETATM    4  N   UNL     1      25.894  41.765  49.663  1.00  0.00    -0.331 N 
HETATM    5  C   UNL     1      25.182  41.217  48.601  1.00  0.00     0.318 C 
HETATM    6  N   UNL     1      24.023  41.861  48.277  1.00  0.00    -0.338 N 
HETATM    7  O   UNL     1      25.588  40.251  47.958  1.00  0.00    -0.247 OA
HETATM    8  C   UNL     1      27.231  41.207  49.850  1.00  0.00     0.155 C 
HETATM    9  C   UNL     1      27.956  41.772  51.038  1.00  0.00     0.001 C 
HETATM   10  H   UNL     1      23.511  42.319  49.022  1.00  0.00     0.164 HD
ENDROOT
BRANCH   6  11
HETATM   11  C   UNL     1      23.182  41.476  47.151  1.00  0.00     0.087 C 
HETATM   12  C   UNL     1      22.221  40.349  47.534  1.00  0.00     0.032 C 
BRANCH  11  13
HETATM   13  C   UNL     1      22.450  42.703  46.575  1.00  0.00     0.085 C 
BRANCH  13  14
HETATM   14  C   UNL     1      22.348  43.880  47.501  1.00  0.00     0.058 A 
HETATM   15  N   UNL     1      21.877  43.747  48.750  1.00  0.00    -0.179 NA
HETATM   16  N   UNL     1      21.965  44.985  49.265  1.00  0.00    -0.282 N 
HETATM   17  H   UNL     1      21.659  45.132  50.222  1.00  0.00     0.189 HD
HETATM   18  C   UNL     1      22.480  45.905  48.396  1.00  0.00     0.026 A 
HETATM   19  C   UNL     1      22.683  47.324  48.762  1.00  0.00     0.070 C 
HETATM   20  C   UNL     1      22.738  45.214  47.235  1.00  0.00     0.055 A 
ENDBRANCH  13  14
ENDBRANCH  11  13
ENDBRANCH   6  11
BRANCH   1  21
HETATM   21  C   UNL     1      28.270  43.240  52.986  1.00  0.00    -0.030 A 
HETATM   22  C   UNL     1      27.847  44.368  53.701  1.00  0.00     0.014 A 
HETATM   23  C   UNL     1      28.604  44.874  54.766  1.00  0.00     0.037 A 
HETATM   24  C   UNL     1      29.800  44.260  55.131  1.00  0.00     0.068 A 
HETATM   25  C   UNL     1      30.234  43.143  54.415  1.00  0.00     0.037 A 
HETATM   26  C   UNL     1      29.476  42.634  53.355  1.00  0.00     0.014 A 
BRANCH  24  27
HETATM   27  O   UNL     1      30.628  44.652  56.146  1.00  0.00    -0.352 OA
BRANCH  27  28
HETATM   28  C   UNL     1      30.183  45.740  56.957  1.00  0.00     0.171 C 
HETATM   29  C   UNL     1      30.421  45.372  58.410  1.00  0.00     0.034 C 
ENDBRANCH  27  28
ENDBRANCH  24  27
ENDBRANCH   1  21
TORSDOF 6
ENDMDL
MODEL 8
REMARK VINA RESULT:      -7.6      4.508     11.605
REMARK  6 active torsions:
REMARK  status: ('A' for Active; 'I' for Inactive)
REMARK    1  A    between atoms: C_2  and  O_3 
REMARK    2  A    between atoms: O_3  and  C_4 
REMARK    3  A    between atoms: C_7  and  C_8 
REMARK       I    between atoms: N_11  and  C_12 
REMARK       I    between atoms: C_12  and  N_13 
REMARK    4  A    between atoms: N_13  and  C_14 
REMARK    5  A    between atoms: C_14  and  C_15 
REMARK    6  A    between atoms: C_15  and  C_16 
ROOT
HETATM    1  C   UNL     1      19.149  51.123  49.107  1.00  0.00    -0.049 C 
HETATM    2  C   UNL     1      19.205  49.715  49.634  1.00  0.00     0.059 C 
HETATM    3  C   UNL     1      20.419  48.964  49.087  1.00  0.00     0.132 C 
HETATM    4  N   UNL     1      21.655  49.736  49.234  1.00  0.00    -0.331 N 
HETATM    5  C   UNL     1      22.916  49.155  49.310  1.00  0.00     0.318 C 
HETATM    6  N   UNL     1      22.933  47.823  49.605  1.00  0.00    -0.338 N 
HETATM    7  O   UNL     1      23.950  49.780  49.076  1.00  0.00    -0.247 OA
HETATM    8  C   UNL     1      21.643  51.095  48.700  1.00  0.00     0.155 C 
HETATM    9  C   UNL     1      20.278  51.721  48.684  1.00  0.00     0.001 C 
HETATM   10  H   UNL     1      22.193  47.458  50.194  1.00  0.00     0.164 HD
ENDROOT
BRANCH   6  11
HETATM   11  C   UNL     1      24.155  47.029  49.657  1.00  0.00     0.087 C 
HETATM   12  C   UNL     1      24.713  46.961  51.079  1.00  0.00     0.032 C 
BRANCH  11  13
HETATM   13  C   UNL     1      23.921  45.633  49.048  1.00  0.00     0.085 C 
BRANCH  13  14
HETATM   14  C   UNL     1      22.702  45.508  48.182  1.00  0.00     0.058 A 
HETATM   15  N   UNL     1      22.521  46.297  47.112  1.00  0.00    -0.179 NA
HETATM   16  N   UNL     1      21.358  45.873  46.589  1.00  0.00    -0.282 N 
HETATM   17  H   UNL     1      21.011  46.333  45.753  1.00  0.00     0.189 HD
HETATM   18  C   UNL     1      20.791  44.840  47.278  1.00  0.00     0.026 A 
HETATM   19  C   UNL     1      19.519  44.206  46.865  1.00  0.00     0.070 C 
HETATM   20  C   UNL     1      21.644  44.580  48.326  1.00  0.00     0.055 A 
ENDBRANCH  13  14
ENDBRANCH  11  13
ENDBRANCH   6  11
BRANCH   1  21
HETATM   21  C   UNL     1      17.841  51.799  49.003  1.00  0.00    -0.030 A 
HETATM   22  C   UNL     1      17.447  52.749  49.955  1.00  0.00     0.014 A 
HETATM   23  C   UNL     1      16.212  53.403  49.857  1.00  0.00     0.037 A 
HETATM   24  C   UNL     1      15.348  53.115  48.803  1.00  0.00     0.068 A 
HETATM   25  C   UNL     1      15.727  52.161  47.857  1.00  0.00     0.037 A 
HETATM   26  C   UNL     1      16.962  51.512  47.952  1.00  0.00     0.014 A 
BRANCH  24  27
HETATM   27  O   UNL     1      14.121  53.681  48.592  1.00  0.00    -0.352 OA
BRANCH  27  28
HETATM   28  C   UNL     1      14.035  55.100  48.721  1.00  0.00     0.171 C 
HETATM   29  C   UNL     1      13.645  55.673  47.370  1.00  0.00     0.034 C 
ENDBRANCH  27  28
ENDBRANCH  24  27
ENDBRANCH   1  21
TORSDOF 6
ENDMDL
MODEL 9
REMARK VINA RESULT:      -7.6      7.638      9.324
REMARK  6 active torsions:
REMARK  status: ('A' for Active; 'I' for Inactive)
REMARK    1  A    between atoms: C_2  and  O_3 
REMARK    2  A    between atoms: O_3  and  C_4 
REMARK    3  A    between atoms: C_7  and  C_8 
REMARK       I    between atoms: N_11  and  C_12 
REMARK       I    between atoms: C_12  and  N_13 
REMARK    4  A    between atoms: N_13  and  C_14 
REMARK    5  A    between atoms: C_14  and  C_15 
REMARK    6  A    between atoms: C_15  and  C_16 
ROOT
HETATM    1  C   UNL     1      28.392  41.719  52.333  1.00  0.00    -0.049 C 
HETATM    2  C   UNL     1      27.402  41.895  51.214  1.00  0.00     0.059 C 
HETATM    3  C   UNL     1      27.779  41.046  49.999  1.00  0.00     0.132 C 
HETATM    4  N   UNL     1      28.067  39.658  50.366  1.00  0.00    -0.331 N 
HETATM    5  C   UNL     1      27.935  38.590  49.485  1.00  0.00     0.318 C 
HETATM    6  N   UNL     1      27.182  38.835  48.374  1.00  0.00    -0.338 N 
HETATM    7  O   UNL     1      28.498  37.511  49.662  1.00  0.00    -0.247 OA
HETATM    8  C   UNL     1      29.051  39.454  51.426  1.00  0.00     0.155 C 
HETATM    9  C   UNL     1      29.132  40.596  52.398  1.00  0.00     0.001 C 
HETATM   10  H   UNL     1      26.419  39.497  48.454  1.00  0.00     0.164 HD
ENDROOT
BRANCH   6  11
HETATM   11  C   UNL     1      26.991  37.861  47.306  1.00  0.00     0.087 C 
HETATM   12  C   UNL     1      25.547  37.867  46.801  1.00  0.00     0.032 C 
BRANCH  11  13
HETATM   13  C   UNL     1      28.012  38.088  46.175  1.00  0.00     0.085 C 
BRANCH  13  14
HETATM   14  C   UNL     1      27.870  39.386  45.436  1.00  0.00     0.058 A 
HETATM   15  N   UNL     1      27.768  40.554  46.088  1.00  0.00    -0.179 NA
HETATM   16  N   UNL     1      27.689  41.469  45.107  1.00  0.00    -0.282 N 
HETATM   17  H   UNL     1      27.605  42.447  45.367  1.00  0.00     0.189 HD
HETATM   18  C   UNL     1      27.743  40.933  43.852  1.00  0.00     0.026 A 
HETATM   19  C   UNL     1      27.693  41.761  42.626  1.00  0.00     0.070 C 
HETATM   20  C   UNL     1      27.859  39.574  44.034  1.00  0.00     0.055 A 
ENDBRANCH  13  14
ENDBRANCH  11  13
ENDBRANCH   6  11
BRANCH   1  21
HETATM   21  C   UNL     1      28.579  42.814  53.305  1.00  0.00    -0.030 A 
HETATM   22  C   UNL     1      27.605  43.808  53.462  1.00  0.00     0.014 A 
HETATM   23  C   UNL     1      27.770  44.844  54.391  1.00  0.00     0.037 A 
HETATM   24  C   UNL     1      28.919  44.903  55.177  1.00  0.00     0.068 A 
HETATM   25  C   UNL     1      29.901  43.924  55.018  1.00  0.00     0.037 A 
HETATM   26  C   UNL     1      29.733  42.887  54.095  1.00  0.00     0.014 A 
BRANCH  24  27
HETATM   27  O   UNL     1      29.201  45.857  56.116  1.00  0.00    -0.352 OA
BRANCH  27  28
HETATM   28  C   UNL     1      30.435  45.723  56.822  1.00  0.00     0.171 C 
HETATM   29  C   UNL     1      30.138  45.794  58.308  1.00  0.00     0.034 C 
ENDBRANCH  27  28
ENDBRANCH  24  27
ENDBRANCH   1  21
TORSDOF 6
ENDMDL
MODEL 10
REMARK VINA RESULT:      -7.5      7.026      8.536
REMARK  6 active torsions:
REMARK  status: ('A' for Active; 'I' for Inactive)
REMARK    1  A    between atoms: C_2  and  O_3 
REMARK    2  A    between atoms: O_3  and  C_4 
REMARK    3  A    between atoms: C_7  and  C_8 
REMARK       I    between atoms: N_11  and  C_12 
REMARK       I    between atoms: C_12  and  N_13 
REMARK    4  A    between atoms: N_13  and  C_14 
REMARK    5  A    between atoms: C_14  and  C_15 
REMARK    6  A    between atoms: C_15  and  C_16 
ROOT
HETATM    1  C   UNL     1      28.021  42.351  52.115  1.00  0.00    -0.049 C 
HETATM    2  C   UNL     1      26.966  43.040  51.293  1.00  0.00     0.059 C 
HETATM    3  C   UNL     1      26.862  42.429  49.895  1.00  0.00     0.132 C 
HETATM    4  N   UNL     1      26.766  40.969  49.939  1.00  0.00    -0.331 N 
HETATM    5  C   UNL     1      26.171  40.210  48.937  1.00  0.00     0.318 C 
HETATM    6  N   UNL     1      25.360  40.899  48.081  1.00  0.00    -0.338 N 
HETATM    7  O   UNL     1      26.396  39.010  48.791  1.00  0.00    -0.247 OA
HETATM    8  C   UNL     1      27.796  40.268  50.700  1.00  0.00     0.155 C 
HETATM    9  C   UNL     1      28.381  41.089  51.815  1.00  0.00     0.001 C 
HETATM   10  H   UNL     1      24.861  41.703  48.445  1.00  0.00     0.164 HD
ENDROOT
BRANCH   6  11
HETATM   11  C   UNL     1      24.709  40.288  46.929  1.00  0.00     0.087 C 
HETATM   12  C   UNL     1      23.191  40.240  47.110  1.00  0.00     0.032 C 
BRANCH  11  13
HETATM   13  C   UNL     1      25.126  41.001  45.629  1.00  0.00     0.085 C 
BRANCH  13  14
HETATM   14  C   UNL     1      26.483  40.634  45.104  1.00  0.00     0.058 A 
HETATM   15  N   UNL     1      27.123  39.534  45.531  1.00  0.00    -0.179 NA
HETATM   16  N   UNL     1      28.267  39.529  44.826  1.00  0.00    -0.282 N 
HETATM   17  H   UNL     1      28.926  38.773  44.984  1.00  0.00     0.189 HD
HETATM   18  C   UNL     1      28.382  40.578  43.960  1.00  0.00     0.026 A 
HETATM   19  C   UNL     1      29.552  40.758  43.072  1.00  0.00     0.070 C 
HETATM   20  C   UNL     1      27.234  41.319  44.120  1.00  0.00     0.055 A 
ENDBRANCH  13  14
ENDBRANCH  11  13
ENDBRANCH   6  11
BRANCH   1  21
HETATM   21  C   UNL     1      28.690  43.099  53.198  1.00  0.00    -0.030 A 
HETATM   22  C   UNL     1      29.872  42.618  53.777  1.00  0.00     0.014 A 
HETATM   23  C   UNL     1      30.519  43.327  54.797  1.00  0.00     0.037 A 
HETATM   24  C   UNL     1      29.991  44.531  55.257  1.00  0.00     0.068 A 
HETATM   25  C   UNL     1      28.807  45.011  54.695  1.00  0.00     0.037 A 
HETATM   26  C   UNL     1      28.164  44.306  53.672  1.00  0.00     0.014 A 
BRANCH  24  27
HETATM   27  O   UNL     1      30.522  45.317  56.242  1.00  0.00    -0.352 OA
BRANCH  27  28
HETATM   28  C   UNL     1      29.612  45.847  57.206  1.00  0.00     0.171 C 
HETATM   29  C   UNL     1      30.188  45.590  58.587  1.00  0.00     0.034 C 
ENDBRANCH  27  28
ENDBRANCH  24  27
ENDBRANCH   1  21
TORSDOF 6
ENDMDL
