MODEL 1
REMARK VINA RESULT:      -9.4      0.000      0.000
REMARK  5 active torsions:
REMARK  status: ('A' for Active; 'I' for Inactive)
REMARK    1  A    between atoms: C_5  and  C_6 
REMARK    2  A    between atoms: C_13  and  C_14 
REMARK       I    between atoms: C_14  and  N_15 
REMARK    3  A    between atoms: N_15  and  C_16 
REMARK    4  A    between atoms: C_19  and  C_20 
REMARK    5  A    between atoms: C_23  and  N_24 
ROOT
HETATM    1  C   UNL     1      24.825  47.765  50.068  1.00  0.00     0.262 C 
HETATM    2  N   UNL     1      25.741  46.807  49.702  1.00  0.00    -0.301 N 
HETATM    3  O   UNL     1      24.319  47.917  51.170  1.00  0.00    -0.267 OA
HETATM    4  H   UNL     1      26.206  46.865  48.810  1.00  0.00     0.171 HD
ENDROOT
BRANCH   2   5
HETATM    5  C   UNL     1      26.186  45.839  50.553  1.00  0.00     0.173 A 
HETATM    6  S   UNL     1      25.418  44.332  50.323  1.00  0.00    -0.061 SA
HETATM    7  C   UNL     1      26.372  43.678  51.590  1.00  0.00     0.085 A 
HETATM    8  C   UNL     1      27.210  44.654  52.102  1.00  0.00     0.076 A 
HETATM    9  N   UNL     1      27.077  45.901  51.506  1.00  0.00    -0.223 NA
BRANCH   8  10
HETATM   10  C   UNL     1      28.144  44.437  53.203  1.00  0.00    -0.007 A 
HETATM   11  C   UNL     1      29.093  43.402  53.179  1.00  0.00     0.016 A 
HETATM   12  C   UNL     1      29.969  43.208  54.253  1.00  0.00     0.037 A 
HETATM   13  C   UNL     1      29.901  44.058  55.364  1.00  0.00     0.102 A 
HETATM   14  C   UNL     1      28.971  45.103  55.401  1.00  0.00     0.037 A 
HETATM   15  C   UNL     1      28.103  45.289  54.319  1.00  0.00     0.016 A 
BRANCH  13  16
HETATM   16  N   UNL     1      30.813  43.850  56.496  1.00  0.00    -0.116 N 
HETATM   17  O   UNL     1      30.745  44.646  57.443  1.00  0.00    -0.532 OA
HETATM   18  O   UNL     1      31.602  42.896  56.434  1.00  0.00    -0.532 OA
ENDBRANCH  13  16
ENDBRANCH   8  10
ENDBRANCH   2   5
BRANCH   1  19
HETATM   19  C   UNL     1      24.521  48.672  48.977  1.00  0.00     0.095 A 
HETATM   20  C   UNL     1      25.393  49.535  48.346  1.00  0.00     0.093 A 
HETATM   21  C   UNL     1      26.830  49.845  48.481  1.00  0.00     0.080 C 
HETATM   22  O   UNL     1      24.735  50.196  47.359  1.00  0.00    -0.217 OA
HETATM   23  N   UNL     1      23.427  49.768  47.309  1.00  0.00    -0.127 NA
HETATM   24  C   UNL     1      23.290  48.848  48.277  1.00  0.00     0.114 A 
BRANCH  24  25
HETATM   25  C   UNL     1      22.004  48.191  48.487  1.00  0.00     0.018 A 
HETATM   26  C   UNL     1      20.926  48.809  49.142  1.00  0.00     0.046 A 
HETATM   27 CL   UNL     1      20.991  50.443  49.715  1.00  0.00    -0.083 Cl
HETATM   28  C   UNL     1      19.718  48.123  49.310  1.00  0.00     0.025 A 
HETATM   29  C   UNL     1      19.568  46.826  48.816  1.00  0.00     0.002 A 
HETATM   30  C   UNL     1      20.623  46.212  48.149  1.00  0.00     0.001 A 
HETATM   31  C   UNL     1      21.834  46.889  47.985  1.00  0.00     0.016 A 
ENDBRANCH  24  25
ENDBRANCH   1  19
TORSDOF 5
ENDMDL
MODEL 2
REMARK VINA RESULT:      -9.1      3.079      9.718
REMARK  5 active torsions:
REMARK  status: ('A' for Active; 'I' for Inactive)
REMARK    1  A    between atoms: C_5  and  C_6 
REMARK    2  A    between atoms: C_13  and  C_14 
REMARK       I    between atoms: C_14  and  N_15 
REMARK    3  A    between atoms: N_15  and  C_16 
REMARK    4  A    between atoms: C_19  and  C_20 
REMARK    5  A    between atoms: C_23  and  N_24 
ROOT
HETATM    1  C   UNL     1      26.049  46.101  53.448  1.00  0.00     0.262 C 
HETATM    2  N   UNL     1      26.355  46.844  52.332  1.00  0.00    -0.301 N 
HETATM    3  O   UNL     1      25.059  45.406  53.621  1.00  0.00    -0.267 OA
HETATM    4  H   UNL     1      27.268  47.259  52.233  1.00  0.00     0.171 HD
ENDROOT
BRANCH   2   5
HETATM    5  C   UNL     1      25.532  46.934  51.249  1.00  0.00     0.173 A 
HETATM    6  S   UNL     1      25.736  45.654  50.138  1.00  0.00    -0.061 SA
HETATM    7  C   UNL     1      24.517  46.348  49.149  1.00  0.00     0.085 A 
HETATM    8  C   UNL     1      24.038  47.508  49.734  1.00  0.00     0.076 A 
HETATM    9  N   UNL     1      24.648  47.843  50.936  1.00  0.00    -0.223 NA
BRANCH   8  10
HETATM   10  C   UNL     1      23.004  48.357  49.148  1.00  0.00    -0.007 A 
HETATM   11  C   UNL     1      23.156  49.749  49.048  1.00  0.00     0.016 A 
HETATM   12  C   UNL     1      22.145  50.542  48.492  1.00  0.00     0.037 A 
HETATM   13  C   UNL     1      20.969  49.939  48.029  1.00  0.00     0.102 A 
HETATM   14  C   UNL     1      20.805  48.552  48.109  1.00  0.00     0.037 A 
HETATM   15  C   UNL     1      21.825  47.769  48.662  1.00  0.00     0.016 A 
BRANCH  13  16
HETATM   16  N   UNL     1      19.904  50.770  47.455  1.00  0.00    -0.116 N 
HETATM   17  O   UNL     1      19.343  50.359  46.429  1.00  0.00    -0.532 OA
HETATM   18  O   UNL     1      19.631  51.836  48.025  1.00  0.00    -0.532 OA
ENDBRANCH  13  16
ENDBRANCH   8  10
ENDBRANCH   2   5
BRANCH   1  19
HETATM   19  C   UNL     1      27.092  46.176  54.454  1.00  0.00     0.095 A 
HETATM   20  C   UNL     1      27.306  47.199  55.355  1.00  0.00     0.093 A 
HETATM   21  C   UNL     1      26.634  48.479  55.655  1.00  0.00     0.080 C 
HETATM   22  O   UNL     1      28.363  46.886  56.146  1.00  0.00    -0.217 OA
HETATM   23  N   UNL     1      28.852  45.648  55.797  1.00  0.00    -0.127 NA
HETATM   24  C   UNL     1      28.091  45.211  54.780  1.00  0.00     0.114 A 
BRANCH  24  25
HETATM   25  C   UNL     1      28.353  43.909  54.175  1.00  0.00     0.018 A 
HETATM   26  C   UNL     1      27.490  42.811  54.319  1.00  0.00     0.046 A 
HETATM   27 CL   UNL     1      25.990  42.904  55.180  1.00  0.00    -0.083 Cl
HETATM   28  C   UNL     1      27.800  41.588  53.711  1.00  0.00     0.025 A 
HETATM   29  C   UNL     1      28.959  41.455  52.945  1.00  0.00     0.002 A 
HETATM   30  C   UNL     1      29.811  42.542  52.780  1.00  0.00     0.001 A 
HETATM   31  C   UNL     1      29.511  43.762  53.391  1.00  0.00     0.016 A 
ENDBRANCH  24  25
ENDBRANCH   1  19
TORSDOF 5
ENDMDL
MODEL 3
REMARK VINA RESULT:      -9.0      2.484      3.687
REMARK  5 active torsions:
REMARK  status: ('A' for Active; 'I' for Inactive)
REMARK    1  A    between atoms: C_5  and  C_6 
REMARK    2  A    between atoms: C_13  and  C_14 
REMARK       I    between atoms: C_14  and  N_15 
REMARK    3  A    between atoms: N_15  and  C_16 
REMARK    4  A    between atoms: C_19  and  C_20 
REMARK    5  A    between atoms: C_23  and  N_24 
ROOT
HETATM    1  C   UNL     1      24.493  44.624  50.832  1.00  0.00     0.262 C 
HETATM    2  N   UNL     1      25.728  45.226  50.882  1.00  0.00    -0.301 N 
HETATM    3  O   UNL     1      23.760  44.365  51.775  1.00  0.00    -0.267 OA
HETATM    4  H   UNL     1      26.180  45.530  50.035  1.00  0.00     0.171 HD
ENDROOT
BRANCH   2   5
HETATM    5  C   UNL     1      26.333  45.586  52.050  1.00  0.00     0.173 A 
HETATM    6  S   UNL     1      25.768  47.070  52.675  1.00  0.00    -0.061 SA
HETATM    7  C   UNL     1      26.849  46.901  53.996  1.00  0.00     0.085 A 
HETATM    8  C   UNL     1      27.567  45.724  53.870  1.00  0.00     0.076 A 
HETATM    9  N   UNL     1      27.272  44.986  52.732  1.00  0.00    -0.223 NA
BRANCH   8  10
HETATM   10  C   UNL     1      28.587  45.280  54.817  1.00  0.00    -0.007 A 
HETATM   11  C   UNL     1      28.897  46.014  55.973  1.00  0.00     0.016 A 
HETATM   12  C   UNL     1      29.887  45.573  56.858  1.00  0.00     0.037 A 
HETATM   13  C   UNL     1      30.575  44.383  56.590  1.00  0.00     0.102 A 
HETATM   14  C   UNL     1      30.271  43.631  55.450  1.00  0.00     0.037 A 
HETATM   15  C   UNL     1      29.276  44.080  54.574  1.00  0.00     0.016 A 
BRANCH  13  16
HETATM   16  N   UNL     1      31.620  43.924  57.513  1.00  0.00    -0.116 N 
HETATM   17  O   UNL     1      32.290  42.937  57.177  1.00  0.00    -0.532 OA
HETATM   18  O   UNL     1      31.768  44.546  58.574  1.00  0.00    -0.532 OA
ENDBRANCH  13  16
ENDBRANCH   8  10
ENDBRANCH   2   5
BRANCH   1  19
HETATM   19  C   UNL     1      24.080  44.345  49.469  1.00  0.00     0.095 A 
HETATM   20  C   UNL     1      24.249  43.164  48.774  1.00  0.00     0.093 A 
HETATM   21  C   UNL     1      24.828  41.844  49.092  1.00  0.00     0.080 C 
HETATM   22  O   UNL     1      23.706  43.291  47.536  1.00  0.00    -0.217 OA
HETATM   23  N   UNL     1      23.153  44.544  47.400  1.00  0.00    -0.127 NA
HETATM   24  C   UNL     1      23.371  45.185  48.559  1.00  0.00     0.114 A 
BRANCH  24  25
HETATM   25  C   UNL     1      22.900  46.554  48.740  1.00  0.00     0.018 A 
HETATM   26  C   UNL     1      21.544  46.911  48.681  1.00  0.00     0.046 A 
HETATM   27 CL   UNL     1      20.279  45.750  48.448  1.00  0.00    -0.083 Cl
HETATM   28  C   UNL     1      21.157  48.244  48.864  1.00  0.00     0.025 A 
HETATM   29  C   UNL     1      22.115  49.227  49.121  1.00  0.00     0.002 A 
HETATM   30  C   UNL     1      23.460  48.882  49.201  1.00  0.00     0.001 A 
HETATM   31  C   UNL     1      23.851  47.554  49.012  1.00  0.00     0.016 A 
ENDBRANCH  24  25
ENDBRANCH   1  19
TORSDOF 5
ENDMDL
MODEL 4
REMARK VINA RESULT:      -8.9      4.779      7.094
REMARK  5 active torsions:
REMARK  status: ('A' for Active; 'I' for Inactive)
REMARK    1  A    between atoms: C_5  and  C_6 
REMARK    2  A    between atoms: C_13  and  C_14 
REMARK       I    between atoms: C_14  and  N_15 
REMARK    3  A    between atoms: N_15  and  C_16 
REMARK    4  A    between atoms: C_19  and  C_20 
REMARK    5  A    between atoms: C_23  and  N_24 
ROOT
HETATM    1  C   UNL     1      26.221  42.646  49.637  1.00  0.00     0.262 C 
HETATM    2  N   UNL     1      25.744  42.776  50.920  1.00  0.00    -0.301 N 
HETATM    3  O   UNL     1      27.244  43.130  49.179  1.00  0.00    -0.267 OA
HETATM    4  H   UNL     1      24.970  42.212  51.234  1.00  0.00     0.171 HD
ENDROOT
BRANCH   2   5
HETATM    5  C   UNL     1      26.363  43.532  51.871  1.00  0.00     0.173 A 
HETATM    6  S   UNL     1      25.809  45.146  51.918  1.00  0.00    -0.061 SA
HETATM    7  C   UNL     1      26.904  45.461  53.200  1.00  0.00     0.085 A 
HETATM    8  C   UNL     1      27.617  44.315  53.505  1.00  0.00     0.076 A 
HETATM    9  N   UNL     1      27.308  43.215  52.716  1.00  0.00    -0.223 NA
BRANCH   8  10
HETATM   10  C   UNL     1      28.646  44.238  54.539  1.00  0.00    -0.007 A 
HETATM   11  C   UNL     1      28.829  45.264  55.480  1.00  0.00     0.016 A 
HETATM   12  C   UNL     1      29.830  45.173  56.454  1.00  0.00     0.037 A 
HETATM   13  C   UNL     1      30.657  44.044  56.492  1.00  0.00     0.102 A 
HETATM   14  C   UNL     1      30.481  43.005  55.571  1.00  0.00     0.037 A 
HETATM   15  C   UNL     1      29.474  43.106  54.604  1.00  0.00     0.016 A 
BRANCH  13  16
HETATM   16  N   UNL     1      31.714  43.950  57.507  1.00  0.00    -0.116 N 
HETATM   17  O   UNL     1      31.732  44.811  58.399  1.00  0.00    -0.532 OA
HETATM   18  O   UNL     1      32.529  43.022  57.409  1.00  0.00    -0.532 OA
ENDBRANCH  13  16
ENDBRANCH   8  10
ENDBRANCH   2   5
BRANCH   1  19
HETATM   19  C   UNL     1      25.375  41.788  48.827  1.00  0.00     0.095 A 
HETATM   20  C   UNL     1      24.138  42.097  48.301  1.00  0.00     0.093 A 
HETATM   21  C   UNL     1      23.270  43.291  48.316  1.00  0.00     0.080 C 
HETATM   22  O   UNL     1      23.680  41.041  47.582  1.00  0.00    -0.217 OA
HETATM   23  N   UNL     1      24.611  40.027  47.604  1.00  0.00    -0.127 NA
HETATM   24  C   UNL     1      25.636  40.469  48.350  1.00  0.00     0.114 A 
BRANCH  24  25
HETATM   25  C   UNL     1      26.802  39.619  48.570  1.00  0.00     0.018 A 
HETATM   26  C   UNL     1      28.003  39.768  47.858  1.00  0.00     0.046 A 
HETATM   27 CL   UNL     1      28.249  41.019  46.686  1.00  0.00    -0.083 Cl
HETATM   28  C   UNL     1      29.086  38.919  48.118  1.00  0.00     0.025 A 
HETATM   29  C   UNL     1      28.986  37.927  49.097  1.00  0.00     0.002 A 
HETATM   30  C   UNL     1      27.807  37.784  49.821  1.00  0.00     0.001 A 
HETATM   31  C   UNL     1      26.721  38.624  49.560  1.00  0.00     0.016 A 
ENDBRANCH  24  25
ENDBRANCH   1  19
TORSDOF 5
ENDMDL
MODEL 5
REMARK VINA RESULT:      -8.7      3.737      9.720
REMARK  5 active torsions:
REMARK  status: ('A' for Active; 'I' for Inactive)
REMARK    1  A    between atoms: C_5  and  C_6 
REMARK    2  A    between atoms: C_13  and  C_14 
REMARK       I    between atoms: C_14  and  N_15 
REMARK    3  A    between atoms: N_15  and  C_16 
REMARK    4  A    between atoms: C_19  and  C_20 
REMARK    5  A    between atoms: C_23  and  N_24 
ROOT
HETATM    1  C   UNL     1      25.352  44.480  51.277  1.00  0.00     0.262 C 
HETATM    2  N   UNL     1      25.976  45.223  50.303  1.00  0.00    -0.301 N 
HETATM    3  O   UNL     1      24.340  44.776  51.894  1.00  0.00    -0.267 OA
HETATM    4  H   UNL     1      26.718  44.819  49.753  1.00  0.00     0.171 HD
ENDROOT
BRANCH   2   5
HETATM    5  C   UNL     1      25.545  46.458  49.918  1.00  0.00     0.173 A 
HETATM    6  S   UNL     1      26.818  47.547  49.594  1.00  0.00    -0.061 SA
HETATM    7  C   UNL     1      25.659  48.753  49.210  1.00  0.00     0.085 A 
HETATM    8  C   UNL     1      24.381  48.242  49.355  1.00  0.00     0.076 A 
HETATM    9  N   UNL     1      24.332  46.922  49.783  1.00  0.00    -0.223 NA
BRANCH   8  10
HETATM   10  C   UNL     1      23.160  49.008  49.123  1.00  0.00    -0.007 A 
HETATM   11  C   UNL     1      23.178  50.403  48.961  1.00  0.00     0.016 A 
HETATM   12  C   UNL     1      21.993  51.116  48.752  1.00  0.00     0.037 A 
HETATM   13  C   UNL     1      20.772  50.431  48.701  1.00  0.00     0.102 A 
HETATM   14  C   UNL     1      20.735  49.039  48.848  1.00  0.00     0.037 A 
HETATM   15  C   UNL     1      21.928  48.337  49.053  1.00  0.00     0.016 A 
BRANCH  13  16
HETATM   16  N   UNL     1      19.526  51.178  48.492  1.00  0.00    -0.116 N 
HETATM   17  O   UNL     1      18.481  50.527  48.359  1.00  0.00    -0.532 OA
HETATM   18  O   UNL     1      19.594  52.415  48.454  1.00  0.00    -0.532 OA
ENDBRANCH  13  16
ENDBRANCH   8  10
ENDBRANCH   2   5
BRANCH   1  19
HETATM   19  C   UNL     1      26.012  43.206  51.495  1.00  0.00     0.095 A 
HETATM   20  C   UNL     1      25.845  42.047  50.766  1.00  0.00     0.093 A 
HETATM   21  C   UNL     1      25.042  41.666  49.587  1.00  0.00     0.080 C 
HETATM   22  O   UNL     1      26.657  41.081  51.267  1.00  0.00    -0.217 OA
HETATM   23  N   UNL     1      27.386  41.589  52.318  1.00  0.00    -0.127 NA
HETATM   24  C   UNL     1      27.006  42.869  52.461  1.00  0.00     0.114 A 
BRANCH  24  25
HETATM   25  C   UNL     1      27.603  43.698  53.504  1.00  0.00     0.018 A 
HETATM   26  C   UNL     1      28.983  43.732  53.759  1.00  0.00     0.046 A 
HETATM   27 CL   UNL     1      30.131  42.838  52.819  1.00  0.00    -0.083 Cl
HETATM   28  C   UNL     1      29.492  44.551  54.774  1.00  0.00     0.025 A 
HETATM   29  C   UNL     1      28.634  45.351  55.532  1.00  0.00     0.002 A 
HETATM   30  C   UNL     1      27.267  45.339  55.275  1.00  0.00     0.001 A 
HETATM   31  C   UNL     1      26.753  44.519  54.267  1.00  0.00     0.016 A 
ENDBRANCH  24  25
ENDBRANCH   1  19
TORSDOF 5
ENDMDL
MODEL 6
REMARK VINA RESULT:      -8.5      3.018      3.754
REMARK  5 active torsions:
REMARK  status: ('A' for Active; 'I' for Inactive)
REMARK    1  A    between atoms: C_5  and  C_6 
REMARK    2  A    between atoms: C_13  and  C_14 
REMARK       I    between atoms: C_14  and  N_15 
REMARK    3  A    between atoms: N_15  and  C_16 
REMARK    4  A    between atoms: C_19  and  C_20 
REMARK    5  A    between atoms: C_23  and  N_24 
ROOT
HETATM    1  C   UNL     1      25.316  45.596  49.752  1.00  0.00     0.262 C 
HETATM    2  N   UNL     1      25.189  44.843  50.895  1.00  0.00    -0.301 N 
HETATM    3  O   UNL     1      26.353  45.918  49.192  1.00  0.00    -0.267 OA
HETATM    4  H   UNL     1      24.284  44.510  51.186  1.00  0.00     0.171 HD
ENDROOT
BRANCH   2   5
HETATM    5  C   UNL     1      26.259  44.375  51.600  1.00  0.00     0.173 A 
HETATM    6  S   UNL     1      26.938  42.958  50.936  1.00  0.00    -0.061 SA
HETATM    7  C   UNL     1      28.100  42.950  52.198  1.00  0.00     0.085 A 
HETATM    8  C   UNL     1      27.890  44.028  53.040  1.00  0.00     0.076 A 
HETATM    9  N   UNL     1      26.811  44.831  52.693  1.00  0.00    -0.223 NA
BRANCH   8  10
HETATM   10  C   UNL     1      28.692  44.311  54.227  1.00  0.00    -0.007 A 
HETATM   11  C   UNL     1      29.792  43.516  54.587  1.00  0.00     0.016 A 
HETATM   12  C   UNL     1      30.538  43.801  55.736  1.00  0.00     0.037 A 
HETATM   13  C   UNL     1      30.184  44.894  56.537  1.00  0.00     0.102 A 
HETATM   14  C   UNL     1      29.099  45.706  56.188  1.00  0.00     0.037 A 
HETATM   15  C   UNL     1      28.364  45.413  55.034  1.00  0.00     0.016 A 
BRANCH  13  16
HETATM   16  N   UNL     1      30.959  45.189  57.748  1.00  0.00    -0.116 N 
HETATM   17  O   UNL     1      30.790  46.293  58.284  1.00  0.00    -0.532 OA
HETATM   18  O   UNL     1      31.741  44.320  58.160  1.00  0.00    -0.532 OA
ENDBRANCH  13  16
ENDBRANCH   8  10
ENDBRANCH   2   5
BRANCH   1  19
HETATM   19  C   UNL     1      24.026  45.966  49.199  1.00  0.00     0.095 A 
HETATM   20  C   UNL     1      23.426  47.208  49.246  1.00  0.00     0.093 A 
HETATM   21  C   UNL     1      23.806  48.527  49.789  1.00  0.00     0.080 C 
HETATM   22  O   UNL     1      22.236  47.156  48.595  1.00  0.00    -0.217 OA
HETATM   23  N   UNL     1      22.039  45.890  48.091  1.00  0.00    -0.127 NA
HETATM   24  C   UNL     1      23.113  45.167  48.448  1.00  0.00     0.114 A 
BRANCH  24  25
HETATM   25  C   UNL     1      23.213  43.764  48.061  1.00  0.00     0.018 A 
HETATM   26  C   UNL     1      23.282  43.341  46.724  1.00  0.00     0.046 A 
HETATM   27 CL   UNL     1      23.317  44.449  45.393  1.00  0.00    -0.083 Cl
HETATM   28  C   UNL     1      23.378  41.978  46.421  1.00  0.00     0.025 A 
HETATM   29  C   UNL     1      23.421  41.028  47.443  1.00  0.00     0.002 A 
HETATM   30  C   UNL     1      23.374  41.437  48.772  1.00  0.00     0.001 A 
HETATM   31  C   UNL     1      23.270  42.796  49.081  1.00  0.00     0.016 A 
ENDBRANCH  24  25
ENDBRANCH   1  19
TORSDOF 5
ENDMDL
MODEL 7
REMARK VINA RESULT:      -8.4      3.300      9.295
REMARK  5 active torsions:
REMARK  status: ('A' for Active; 'I' for Inactive)
REMARK    1  A    between atoms: C_5  and  C_6 
REMARK    2  A    between atoms: C_13  and  C_14 
REMARK       I    between atoms: C_14  and  N_15 
REMARK    3  A    between atoms: N_15  and  C_16 
REMARK    4  A    between atoms: C_19  and  C_20 
REMARK    5  A    between atoms: C_23  and  N_24 
ROOT
HETATM    1  C   UNL     1      26.103  46.876  52.656  1.00  0.00     0.262 C 
HETATM    2  N   UNL     1      26.382  46.817  51.311  1.00  0.00    -0.301 N 
HETATM    3  O   UNL     1      25.320  47.631  53.213  1.00  0.00    -0.267 OA
HETATM    4  H   UNL     1      26.929  46.058  50.939  1.00  0.00     0.171 HD
ENDROOT
BRANCH   2   5
HETATM    5  C   UNL     1      25.823  47.661  50.397  1.00  0.00     0.173 A 
HETATM    6  S   UNL     1      26.976  48.488  49.448  1.00  0.00    -0.061 SA
HETATM    7  C   UNL     1      25.696  49.274  48.619  1.00  0.00     0.085 A 
HETATM    8  C   UNL     1      24.477  48.853  49.123  1.00  0.00     0.076 A 
HETATM    9  N   UNL     1      24.568  47.936  50.162  1.00  0.00    -0.223 NA
BRANCH   8  10
HETATM   10  C   UNL     1      23.183  49.338  48.652  1.00  0.00    -0.007 A 
HETATM   11  C   UNL     1      22.235  48.479  48.073  1.00  0.00     0.016 A 
HETATM   12  C   UNL     1      21.005  48.970  47.619  1.00  0.00     0.037 A 
HETATM   13  C   UNL     1      20.716  50.335  47.745  1.00  0.00     0.102 A 
HETATM   14  C   UNL     1      21.643  51.204  48.331  1.00  0.00     0.037 A 
HETATM   15  C   UNL     1      22.868  50.700  48.785  1.00  0.00     0.016 A 
BRANCH  13  16
HETATM   16  N   UNL     1      19.432  50.854  47.260  1.00  0.00    -0.116 N 
HETATM   17  O   UNL     1      19.016  50.432  46.171  1.00  0.00    -0.532 OA
HETATM   18  O   UNL     1      18.842  51.686  47.964  1.00  0.00    -0.532 OA
ENDBRANCH  13  16
ENDBRANCH   8  10
ENDBRANCH   2   5
BRANCH   1  19
HETATM   19  C   UNL     1      26.830  45.869  53.406  1.00  0.00     0.095 A 
HETATM   20  C   UNL     1      27.595  46.066  54.537  1.00  0.00     0.093 A 
HETATM   21  C   UNL     1      27.937  47.234  55.372  1.00  0.00     0.080 C 
HETATM   22  O   UNL     1      28.090  44.873  54.957  1.00  0.00    -0.217 OA
HETATM   23  N   UNL     1      27.646  43.870  54.126  1.00  0.00    -0.127 NA
HETATM   24  C   UNL     1      26.884  44.460  53.191  1.00  0.00     0.114 A 
BRANCH  24  25
HETATM   25  C   UNL     1      26.253  43.658  52.147  1.00  0.00     0.018 A 
HETATM   26  C   UNL     1      26.943  42.687  51.405  1.00  0.00     0.046 A 
HETATM   27 CL   UNL     1      28.606  42.294  51.695  1.00  0.00    -0.083 Cl
HETATM   28  C   UNL     1      26.279  41.951  50.417  1.00  0.00     0.025 A 
HETATM   29  C   UNL     1      24.921  42.165  50.171  1.00  0.00     0.002 A 
HETATM   30  C   UNL     1      24.222  43.112  50.914  1.00  0.00     0.001 A 
HETATM   31  C   UNL     1      24.883  43.854  51.896  1.00  0.00     0.016 A 
ENDBRANCH  24  25
ENDBRANCH   1  19
TORSDOF 5
ENDMDL
MODEL 8
REMARK VINA RESULT:      -8.2      3.894      9.422
REMARK  5 active torsions:
REMARK  status: ('A' for Active; 'I' for Inactive)
REMARK    1  A    between atoms: C_5  and  C_6 
REMARK    2  A    between atoms: C_13  and  C_14 
REMARK       I    between atoms: C_14  and  N_15 
REMARK    3  A    between atoms: N_15  and  C_16 
REMARK    4  A    between atoms: C_19  and  C_20 
REMARK    5  A    between atoms: C_23  and  N_24 
ROOT
HETATM    1  C   UNL     1      26.649  43.189  49.860  1.00  0.00     0.262 C 
HETATM    2  N   UNL     1      25.306  42.929  49.727  1.00  0.00    -0.301 N 
HETATM    3  O   UNL     1      27.240  44.206  49.528  1.00  0.00    -0.267 OA
HETATM    4  H   UNL     1      24.898  42.121  50.171  1.00  0.00     0.171 HD
ENDROOT
BRANCH   2   5
HETATM    5  C   UNL     1      24.434  43.799  49.142  1.00  0.00     0.173 A 
HETATM    6  S   UNL     1      23.761  43.207  47.690  1.00  0.00    -0.061 SA
HETATM    7  C   UNL     1      22.866  44.663  47.537  1.00  0.00     0.085 A 
HETATM    8  C   UNL     1      23.142  45.501  48.604  1.00  0.00     0.076 A 
HETATM    9  N   UNL     1      24.064  44.996  49.512  1.00  0.00    -0.223 NA
BRANCH   8  10
HETATM   10  C   UNL     1      22.560  46.829  48.777  1.00  0.00    -0.007 A 
HETATM   11  C   UNL     1      21.216  47.095  48.470  1.00  0.00     0.016 A 
HETATM   12  C   UNL     1      20.684  48.380  48.633  1.00  0.00     0.037 A 
HETATM   13  C   UNL     1      21.503  49.412  49.109  1.00  0.00     0.102 A 
HETATM   14  C   UNL     1      22.841  49.163  49.432  1.00  0.00     0.037 A 
HETATM   15  C   UNL     1      23.360  47.873  49.269  1.00  0.00     0.016 A 
BRANCH  13  16
HETATM   16  N   UNL     1      20.950  50.762  49.271  1.00  0.00    -0.116 N 
HETATM   17  O   UNL     1      20.699  51.408  48.243  1.00  0.00    -0.532 OA
HETATM   18  O   UNL     1      20.773  51.180  50.424  1.00  0.00    -0.532 OA
ENDBRANCH  13  16
ENDBRANCH   8  10
ENDBRANCH   2   5
BRANCH   1  19
HETATM   19  C   UNL     1      27.351  42.100  50.516  1.00  0.00     0.095 A 
HETATM   20  C   UNL     1      27.729  40.898  49.955  1.00  0.00     0.093 A 
HETATM   21  C   UNL     1      27.614  40.293  48.613  1.00  0.00     0.080 C 
HETATM   22  O   UNL     1      28.386  40.157  50.884  1.00  0.00    -0.217 OA
HETATM   23  N   UNL     1      28.471  40.862  52.063  1.00  0.00    -0.127 NA
HETATM   24  C   UNL     1      27.853  42.035  51.850  1.00  0.00     0.114 A 
BRANCH  24  25
HETATM   25  C   UNL     1      27.770  43.025  52.919  1.00  0.00     0.018 A 
HETATM   26  C   UNL     1      28.893  43.485  53.625  1.00  0.00     0.046 A 
HETATM   27 CL   UNL     1      30.506  42.971  53.257  1.00  0.00    -0.083 Cl
HETATM   28  C   UNL     1      28.745  44.437  54.640  1.00  0.00     0.025 A 
HETATM   29  C   UNL     1      27.483  44.949  54.950  1.00  0.00     0.002 A 
HETATM   30  C   UNL     1      26.366  44.514  54.244  1.00  0.00     0.001 A 
HETATM   31  C   UNL     1      26.508  43.558  53.234  1.00  0.00     0.016 A 
ENDBRANCH  24  25
ENDBRANCH   1  19
TORSDOF 5
ENDMDL
MODEL 9
REMARK VINA RESULT:      -8.1      1.862      2.572
REMARK  5 active torsions:
REMARK  status: ('A' for Active; 'I' for Inactive)
REMARK    1  A    between atoms: C_5  and  C_6 
REMARK    2  A    between atoms: C_13  and  C_14 
REMARK       I    between atoms: C_14  and  N_15 
REMARK    3  A    between atoms: N_15  and  C_16 
REMARK    4  A    between atoms: C_19  and  C_20 
REMARK    5  A    between atoms: C_23  and  N_24 
ROOT
HETATM    1  C   UNL     1      23.992  48.423  49.125  1.00  0.00     0.262 C 
HETATM    2  N   UNL     1      23.619  47.504  50.077  1.00  0.00    -0.301 N 
HETATM    3  O   UNL     1      25.126  48.665  48.739  1.00  0.00    -0.267 OA
HETATM    4  H   UNL     1      22.646  47.279  50.211  1.00  0.00     0.171 HD
ENDROOT
BRANCH   2   5
HETATM    5  C   UNL     1      24.514  46.743  50.769  1.00  0.00     0.173 A 
HETATM    6  S   UNL     1      24.751  45.195  50.091  1.00  0.00    -0.061 SA
HETATM    7  C   UNL     1      25.873  44.844  51.341  1.00  0.00     0.085 A 
HETATM    8  C   UNL     1      25.989  45.931  52.190  1.00  0.00     0.076 A 
HETATM    9  N   UNL     1      25.184  47.013  51.857  1.00  0.00    -0.223 NA
BRANCH   8  10
HETATM   10  C   UNL     1      26.850  45.963  53.370  1.00  0.00    -0.007 A 
HETATM   11  C   UNL     1      26.951  47.102  54.184  1.00  0.00     0.016 A 
HETATM   12  C   UNL     1      27.792  47.111  55.302  1.00  0.00     0.037 A 
HETATM   13  C   UNL     1      28.540  45.969  55.615  1.00  0.00     0.102 A 
HETATM   14  C   UNL     1      28.442  44.820  54.823  1.00  0.00     0.037 A 
HETATM   15  C   UNL     1      27.595  44.822  53.709  1.00  0.00     0.016 A 
BRANCH  13  16
HETATM   16  N   UNL     1      29.430  45.980  56.783  1.00  0.00    -0.116 N 
HETATM   17  O   UNL     1      30.643  45.824  56.582  1.00  0.00    -0.532 OA
HETATM   18  O   UNL     1      28.917  46.138  57.899  1.00  0.00    -0.532 OA
ENDBRANCH  13  16
ENDBRANCH   8  10
ENDBRANCH   2   5
BRANCH   1  19
HETATM   19  C   UNL     1      22.847  49.098  48.542  1.00  0.00     0.095 A 
HETATM   20  C   UNL     1      22.685  50.457  48.364  1.00  0.00     0.093 A 
HETATM   21  C   UNL     1      23.513  51.648  48.634  1.00  0.00     0.080 C 
HETATM   22  O   UNL     1      21.490  50.690  47.762  1.00  0.00    -0.217 OA
HETATM   23  N   UNL     1      20.854  49.494  47.516  1.00  0.00    -0.127 NA
HETATM   24  C   UNL     1      21.666  48.530  47.980  1.00  0.00     0.114 A 
BRANCH  24  25
HETATM   25  C   UNL     1      21.276  47.127  47.868  1.00  0.00     0.018 A 
HETATM   26  C   UNL     1      20.183  46.579  48.557  1.00  0.00     0.046 A 
HETATM   27 CL   UNL     1      19.142  47.525  49.568  1.00  0.00    -0.083 Cl
HETATM   28  C   UNL     1      19.862  45.225  48.405  1.00  0.00     0.025 A 
HETATM   29  C   UNL     1      20.616  44.412  47.555  1.00  0.00     0.002 A 
HETATM   30  C   UNL     1      21.689  44.950  46.852  1.00  0.00     0.001 A 
HETATM   31  C   UNL     1      22.018  46.299  47.007  1.00  0.00     0.016 A 
ENDBRANCH  24  25
ENDBRANCH   1  19
TORSDOF 5
ENDMDL
MODEL 10
REMARK VINA RESULT:      -8.0      3.205      4.543
REMARK  5 active torsions:
REMARK  status: ('A' for Active; 'I' for Inactive)
REMARK    1  A    between atoms: C_5  and  C_6 
REMARK    2  A    between atoms: C_13  and  C_14 
REMARK       I    between atoms: C_14  and  N_15 
REMARK    3  A    between atoms: N_15  and  C_16 
REMARK    4  A    between atoms: C_19  and  C_20 
REMARK    5  A    between atoms: C_23  and  N_24 
ROOT
HETATM    1  C   UNL     1      20.848  46.218  47.908  1.00  0.00     0.262 C 
HETATM    2  N   UNL     1      22.201  46.386  47.735  1.00  0.00    -0.301 N 
HETATM    3  O   UNL     1      20.290  45.604  48.805  1.00  0.00    -0.267 OA
HETATM    4  H   UNL     1      22.549  47.035  47.048  1.00  0.00     0.171 HD
ENDROOT
BRANCH   2   5
HETATM    5  C   UNL     1      23.132  45.826  48.560  1.00  0.00     0.173 A 
HETATM    6  S   UNL     1      23.594  44.252  48.089  1.00  0.00    -0.061 SA
HETATM    7  C   UNL     1      24.663  44.189  49.429  1.00  0.00     0.085 A 
HETATM    8  C   UNL     1      24.595  45.372  50.144  1.00  0.00     0.076 A 
HETATM    9  N   UNL     1      23.691  46.300  49.642  1.00  0.00    -0.223 NA
BRANCH   8  10
HETATM   10  C   UNL     1      25.365  45.645  51.355  1.00  0.00    -0.007 A 
HETATM   11  C   UNL     1      26.174  44.668  51.956  1.00  0.00     0.016 A 
HETATM   12  C   UNL     1      26.893  44.951  53.123  1.00  0.00     0.037 A 
HETATM   13  C   UNL     1      26.806  46.225  53.697  1.00  0.00     0.102 A 
HETATM   14  C   UNL     1      26.015  47.216  53.105  1.00  0.00     0.037 A 
HETATM   15  C   UNL     1      25.304  46.922  51.936  1.00  0.00     0.016 A 
BRANCH  13  16
HETATM   16  N   UNL     1      27.552  46.521  54.926  1.00  0.00    -0.116 N 
HETATM   17  O   UNL     1      27.163  47.471  55.620  1.00  0.00    -0.532 OA
HETATM   18  O   UNL     1      28.529  45.808  55.195  1.00  0.00    -0.532 OA
ENDBRANCH  13  16
ENDBRANCH   8  10
ENDBRANCH   2   5
BRANCH   1  19
HETATM   19  C   UNL     1      20.080  46.916  46.893  1.00  0.00     0.095 A 
HETATM   20  C   UNL     1      19.619  46.402  45.699  1.00  0.00     0.093 A 
HETATM   21  C   UNL     1      19.683  45.082  45.040  1.00  0.00     0.080 C 
HETATM   22  O   UNL     1      18.920  47.360  45.038  1.00  0.00    -0.217 OA
HETATM   23  N   UNL     1      18.891  48.513  45.790  1.00  0.00    -0.127 NA
HETATM   24  C   UNL     1      19.584  48.254  46.911  1.00  0.00     0.114 A 
BRANCH  24  25
HETATM   25  C   UNL     1      19.741  49.286  47.931  1.00  0.00     0.018 A 
HETATM   26  C   UNL     1      19.025  49.282  49.139  1.00  0.00     0.046 A 
HETATM   27 CL   UNL     1      17.925  48.016  49.573  1.00  0.00    -0.083 Cl
HETATM   28  C   UNL     1      19.223  50.303  50.077  1.00  0.00     0.025 A 
HETATM   29  C   UNL     1      20.142  51.323  49.827  1.00  0.00     0.002 A 
HETATM   30  C   UNL     1      20.871  51.325  48.641  1.00  0.00     0.001 A 
HETATM   31  C   UNL     1      20.672  50.313  47.699  1.00  0.00     0.016 A 
ENDBRANCH  24  25
ENDBRANCH   1  19
TORSDOF 5
ENDMDL
