MODEL 1
REMARK VINA RESULT:      -8.3      0.000      0.000
REMARK  5 active torsions:
REMARK  status: ('A' for Active; 'I' for Inactive)
REMARK    1  A    between atoms: C_4  and  N_5 
REMARK       I    between atoms: N_5  and  C_6 
REMARK    2  A    between atoms: C_6  and  C_7 
REMARK    3  A    between atoms: C_7  and  N_8 
REMARK    4  A    between atoms: N_8  and  C_11 
REMARK    5  A    between atoms: C_11  and  C_12 
ROOT
HETATM    1  N   UNL     1      29.144  42.821  52.905  1.00  0.00    -0.324 N 
HETATM    2  C   UNL     1      28.601  41.570  52.788  1.00  0.00     0.248 C 
HETATM    3  O   UNL     1      28.312  40.789  53.693  1.00  0.00    -0.271 OA
HETATM    4  H   UNL     1      29.417  43.356  52.077  1.00  0.00     0.169 HD
ENDROOT
BRANCH   1   5
HETATM    5  C   UNL     1      29.498  43.520  54.089  1.00  0.00     0.065 A 
HETATM    6  C   UNL     1      30.544  43.139  54.937  1.00  0.00     0.038 A 
HETATM    7  C   UNL     1      30.828  43.886  56.085  1.00  0.00    -0.059 A 
HETATM    8  C   UNL     1      31.943  43.489  57.010  1.00  0.00     0.048 C 
HETATM    9  C   UNL     1      30.059  45.019  56.369  1.00  0.00     0.020 A 
HETATM   10  C   UNL     1      29.009  45.405  55.520  1.00  0.00    -0.005 A 
HETATM   11  C   UNL     1      28.715  44.650  54.368  1.00  0.00     0.093 A 
HETATM   12  C   UNL     1      28.229  46.538  55.781  1.00  0.00     0.015 A 
HETATM   13  N   UNL     1      27.711  44.984  53.518  1.00  0.00    -0.258 NA
HETATM   14  C   UNL     1      26.984  46.087  53.809  1.00  0.00     0.117 A 
HETATM   15  C   UNL     1      27.201  46.887  54.914  1.00  0.00     0.020 A 
ENDBRANCH   1   5
BRANCH   2  16
HETATM   16  C   UNL     1      28.368  41.127  51.343  1.00  0.00     0.335 C 
BRANCH  16  17
HETATM   17  N   UNL     1      28.918  39.738  51.109  1.00  0.00    -0.059 N 
HETATM   18  H   UNL     1      29.914  39.682  51.367  1.00  0.00     0.278 HD
HETATM   19  H   UNL     1      28.408  39.109  51.758  1.00  0.00     0.278 HD
BRANCH  17  20
HETATM   20  C   UNL     1      28.705  39.184  49.703  1.00  0.00     0.349 C 
BRANCH  20  21
HETATM   21  C   UNL     1      29.636  37.999  49.419  1.00  0.00     0.411 C 
HETATM   22  F   UNL     1      29.290  37.436  48.238  1.00  0.00    -0.169 F 
HETATM   23  F   UNL     1      30.909  38.433  49.305  1.00  0.00    -0.169 F 
HETATM   24  F   UNL     1      29.571  37.067  50.381  1.00  0.00    -0.169 F 
ENDBRANCH  20  21
ENDBRANCH  17  20
ENDBRANCH  16  17
ENDBRANCH   2  16
TORSDOF 5
ENDMDL
MODEL 2
REMARK VINA RESULT:      -7.9      2.861      3.253
REMARK  5 active torsions:
REMARK  status: ('A' for Active; 'I' for Inactive)
REMARK    1  A    between atoms: C_4  and  N_5 
REMARK       I    between atoms: N_5  and  C_6 
REMARK    2  A    between atoms: C_6  and  C_7 
REMARK    3  A    between atoms: C_7  and  N_8 
REMARK    4  A    between atoms: N_8  and  C_11 
REMARK    5  A    between atoms: C_11  and  C_12 
ROOT
HETATM    1  N   UNL     1      28.969  42.807  52.959  1.00  0.00    -0.324 N 
HETATM    2  C   UNL     1      28.259  41.638  52.905  1.00  0.00     0.248 C 
HETATM    3  O   UNL     1      27.851  40.962  53.847  1.00  0.00    -0.271 OA
HETATM    4  H   UNL     1      29.326  43.247  52.107  1.00  0.00     0.169 HD
ENDROOT
BRANCH   1   5
HETATM    5  C   UNL     1      29.398  43.524  54.107  1.00  0.00     0.065 A 
HETATM    6  C   UNL     1      30.463  43.125  54.923  1.00  0.00     0.038 A 
HETATM    7  C   UNL     1      30.822  43.892  56.036  1.00  0.00    -0.059 A 
HETATM    8  C   UNL     1      31.959  43.478  56.926  1.00  0.00     0.048 C 
HETATM    9  C   UNL     1      30.109  45.061  56.318  1.00  0.00     0.020 A 
HETATM   10  C   UNL     1      29.040  45.465  55.502  1.00  0.00    -0.005 A 
HETATM   11  C   UNL     1      28.671  44.691  54.385  1.00  0.00     0.093 A 
HETATM   12  C   UNL     1      28.315  46.635  55.762  1.00  0.00     0.015 A 
HETATM   13  N   UNL     1      27.646  45.040  53.567  1.00  0.00    -0.258 NA
HETATM   14  C   UNL     1      26.973  46.179  53.855  1.00  0.00     0.117 A 
HETATM   15  C   UNL     1      27.267  46.999  54.927  1.00  0.00     0.020 A 
ENDBRANCH   1   5
BRANCH   2  16
HETATM   16  C   UNL     1      27.990  41.141  51.483  1.00  0.00     0.335 C 
BRANCH  16  17
HETATM   17  N   UNL     1      26.532  41.308  51.120  1.00  0.00    -0.059 N 
HETATM   18  H   UNL     1      26.318  40.859  50.218  1.00  0.00     0.278 HD
HETATM   19  H   UNL     1      25.990  40.796  51.842  1.00  0.00     0.278 HD
BRANCH  17  20
HETATM   20  C   UNL     1      26.022  42.748  51.128  1.00  0.00     0.349 C 
BRANCH  20  21
HETATM   21  C   UNL     1      26.560  43.541  49.930  1.00  0.00     0.411 C 
HETATM   22  F   UNL     1      25.614  44.416  49.518  1.00  0.00    -0.169 F 
HETATM   23  F   UNL     1      27.641  44.257  50.303  1.00  0.00    -0.169 F 
HETATM   24  F   UNL     1      26.890  42.741  48.906  1.00  0.00    -0.169 F 
ENDBRANCH  20  21
ENDBRANCH  17  20
ENDBRANCH  16  17
ENDBRANCH   2  16
TORSDOF 5
ENDMDL
MODEL 3
REMARK VINA RESULT:      -7.8      1.377      3.249
REMARK  5 active torsions:
REMARK  status: ('A' for Active; 'I' for Inactive)
REMARK    1  A    between atoms: C_4  and  N_5 
REMARK       I    between atoms: N_5  and  C_6 
REMARK    2  A    between atoms: C_6  and  C_7 
REMARK    3  A    between atoms: C_7  and  N_8 
REMARK    4  A    between atoms: N_8  and  C_11 
REMARK    5  A    between atoms: C_11  and  C_12 
ROOT
HETATM    1  N   UNL     1      27.567  42.932  53.065  1.00  0.00    -0.324 N 
HETATM    2  C   UNL     1      27.630  42.714  51.715  1.00  0.00     0.248 C 
HETATM    3  O   UNL     1      27.827  43.542  50.828  1.00  0.00    -0.271 OA
HETATM    4  H   UNL     1      27.321  42.177  53.709  1.00  0.00     0.169 HD
ENDROOT
BRANCH   1   5
HETATM    5  C   UNL     1      27.719  44.157  53.766  1.00  0.00     0.065 A 
HETATM    6  C   UNL     1      26.847  45.243  53.637  1.00  0.00     0.038 A 
HETATM    7  C   UNL     1      27.069  46.415  54.368  1.00  0.00    -0.059 A 
HETATM    8  C   UNL     1      26.145  47.593  54.240  1.00  0.00     0.048 C 
HETATM    9  C   UNL     1      28.167  46.484  55.230  1.00  0.00     0.020 A 
HETATM   10  C   UNL     1      29.045  45.396  55.363  1.00  0.00    -0.005 A 
HETATM   11  C   UNL     1      28.829  44.217  54.622  1.00  0.00     0.093 A 
HETATM   12  C   UNL     1      30.149  45.440  56.224  1.00  0.00     0.015 A 
HETATM   13  N   UNL     1      29.649  43.140  54.717  1.00  0.00    -0.258 NA
HETATM   14  C   UNL     1      30.703  43.226  55.562  1.00  0.00     0.117 A 
HETATM   15  C   UNL     1      30.991  44.340  56.327  1.00  0.00     0.020 A 
ENDBRANCH   1   5
BRANCH   2  16
HETATM   16  C   UNL     1      27.396  41.257  51.310  1.00  0.00     0.335 C 
BRANCH  16  17
HETATM   17  N   UNL     1      28.693  40.595  50.904  1.00  0.00    -0.059 N 
HETATM   18  H   UNL     1      29.369  41.285  50.545  1.00  0.00     0.278 HD
HETATM   19  H   UNL     1      29.105  40.201  51.771  1.00  0.00     0.278 HD
BRANCH  17  20
HETATM   20  C   UNL     1      28.550  39.436  49.920  1.00  0.00     0.349 C 
BRANCH  20  21
HETATM   21  C   UNL     1      29.421  38.242  50.328  1.00  0.00     0.411 C 
HETATM   22  F   UNL     1      29.822  38.404  51.609  1.00  0.00    -0.169 F 
HETATM   23  F   UNL     1      28.698  37.104  50.269  1.00  0.00    -0.169 F 
HETATM   24  F   UNL     1      30.504  38.119  49.546  1.00  0.00    -0.169 F 
ENDBRANCH  20  21
ENDBRANCH  17  20
ENDBRANCH  16  17
ENDBRANCH   2  16
TORSDOF 5
ENDMDL
MODEL 4
REMARK VINA RESULT:      -7.8      2.386      3.950
REMARK  5 active torsions:
REMARK  status: ('A' for Active; 'I' for Inactive)
REMARK    1  A    between atoms: C_4  and  N_5 
REMARK       I    between atoms: N_5  and  C_6 
REMARK    2  A    between atoms: C_6  and  C_7 
REMARK    3  A    between atoms: C_7  and  N_8 
REMARK    4  A    between atoms: N_8  and  C_11 
REMARK    5  A    between atoms: C_11  and  C_12 
ROOT
HETATM    1  N   UNL     1      26.753  44.072  53.127  1.00  0.00    -0.324 N 
HETATM    2  C   UNL     1      26.602  44.151  51.769  1.00  0.00     0.248 C 
HETATM    3  O   UNL     1      26.832  45.116  51.042  1.00  0.00    -0.271 OA
HETATM    4  H   UNL     1      26.456  43.239  53.642  1.00  0.00     0.169 HD
ENDROOT
BRANCH   1   5
HETATM    5  C   UNL     1      27.218  45.072  54.021  1.00  0.00     0.065 A 
HETATM    6  C   UNL     1      26.543  46.273  54.267  1.00  0.00     0.038 A 
HETATM    7  C   UNL     1      27.070  47.206  55.166  1.00  0.00    -0.059 A 
HETATM    8  C   UNL     1      26.362  48.502  55.439  1.00  0.00     0.048 C 
HETATM    9  C   UNL     1      28.273  46.920  55.818  1.00  0.00     0.020 A 
HETATM   10  C   UNL     1      28.954  45.716  55.574  1.00  0.00    -0.005 A 
HETATM   11  C   UNL     1      28.429  44.778  54.664  1.00  0.00     0.093 A 
HETATM   12  C   UNL     1      30.157  45.406  56.220  1.00  0.00     0.015 A 
HETATM   13  N   UNL     1      29.050  43.601  54.396  1.00  0.00    -0.258 NA
HETATM   14  C   UNL     1      30.210  43.342  55.043  1.00  0.00     0.117 A 
HETATM   15  C   UNL     1      30.796  44.202  55.952  1.00  0.00     0.020 A 
ENDBRANCH   1   5
BRANCH   2  16
HETATM   16  C   UNL     1      26.052  42.875  51.130  1.00  0.00     0.335 C 
BRANCH  16  17
HETATM   17  N   UNL     1      26.514  41.651  51.888  1.00  0.00    -0.059 N 
HETATM   18  H   UNL     1      26.701  41.872  52.876  1.00  0.00     0.278 HD
HETATM   19  H   UNL     1      25.719  40.984  51.879  1.00  0.00     0.278 HD
BRANCH  17  20
HETATM   20  C   UNL     1      27.706  40.919  51.276  1.00  0.00     0.349 C 
BRANCH  20  21
HETATM   21  C   UNL     1      28.802  40.662  52.317  1.00  0.00     0.411 C 
HETATM   22  F   UNL     1      29.428  39.499  52.023  1.00  0.00    -0.169 F 
HETATM   23  F   UNL     1      29.726  41.645  52.263  1.00  0.00    -0.169 F 
HETATM   24  F   UNL     1      28.307  40.587  53.560  1.00  0.00    -0.169 F 
ENDBRANCH  20  21
ENDBRANCH  17  20
ENDBRANCH  16  17
ENDBRANCH   2  16
TORSDOF 5
ENDMDL
MODEL 5
REMARK VINA RESULT:      -7.6      1.654      1.982
REMARK  5 active torsions:
REMARK  status: ('A' for Active; 'I' for Inactive)
REMARK    1  A    between atoms: C_4  and  N_5 
REMARK       I    between atoms: N_5  and  C_6 
REMARK    2  A    between atoms: C_6  and  C_7 
REMARK    3  A    between atoms: C_7  and  N_8 
REMARK    4  A    between atoms: N_8  and  C_11 
REMARK    5  A    between atoms: C_11  and  C_12 
ROOT
HETATM    1  N   UNL     1      26.996  42.830  52.991  1.00  0.00    -0.324 N 
HETATM    2  C   UNL     1      27.278  42.314  51.754  1.00  0.00     0.248 C 
HETATM    3  O   UNL     1      28.329  42.407  51.124  1.00  0.00    -0.271 OA
HETATM    4  H   UNL     1      26.056  42.756  53.390  1.00  0.00     0.169 HD
ENDROOT
BRANCH   1   5
HETATM    5  C   UNL     1      27.843  43.585  53.844  1.00  0.00     0.065 A 
HETATM    6  C   UNL     1      29.010  43.081  54.429  1.00  0.00     0.038 A 
HETATM    7  C   UNL     1      29.790  43.895  55.257  1.00  0.00    -0.059 A 
HETATM    8  C   UNL     1      31.043  43.371  55.898  1.00  0.00     0.048 C 
HETATM    9  C   UNL     1      29.392  45.216  55.487  1.00  0.00     0.020 A 
HETATM   10  C   UNL     1      28.221  45.725  54.902  1.00  0.00    -0.005 A 
HETATM   11  C   UNL     1      27.430  44.906  54.074  1.00  0.00     0.093 A 
HETATM   12  C   UNL     1      27.806  47.045  55.113  1.00  0.00     0.015 A 
HETATM   13  N   UNL     1      26.291  45.352  53.486  1.00  0.00    -0.258 NA
HETATM   14  C   UNL     1      25.928  46.636  53.716  1.00  0.00     0.117 A 
HETATM   15  C   UNL     1      26.643  47.510  54.512  1.00  0.00     0.020 A 
ENDBRANCH   1   5
BRANCH   2  16
HETATM   16  C   UNL     1      26.108  41.567  51.112  1.00  0.00     0.335 C 
BRANCH  16  17
HETATM   17  N   UNL     1      26.360  40.077  51.102  1.00  0.00    -0.059 N 
HETATM   18  H   UNL     1      27.007  39.802  51.856  1.00  0.00     0.278 HD
HETATM   19  H   UNL     1      25.451  39.624  51.314  1.00  0.00     0.278 HD
BRANCH  17  20
HETATM   20  C   UNL     1      26.833  39.506  49.767  1.00  0.00     0.349 C 
BRANCH  20  21
HETATM   21  C   UNL     1      28.264  38.965  49.862  1.00  0.00     0.411 C 
HETATM   22  F   UNL     1      28.829  39.404  51.010  1.00  0.00    -0.169 F 
HETATM   23  F   UNL     1      28.242  37.616  49.910  1.00  0.00    -0.169 F 
HETATM   24  F   UNL     1      29.021  39.358  48.827  1.00  0.00    -0.169 F 
ENDBRANCH  20  21
ENDBRANCH  17  20
ENDBRANCH  16  17
ENDBRANCH   2  16
TORSDOF 5
ENDMDL
MODEL 6
REMARK VINA RESULT:      -7.5      2.735      4.032
REMARK  5 active torsions:
REMARK  status: ('A' for Active; 'I' for Inactive)
REMARK    1  A    between atoms: C_4  and  N_5 
REMARK       I    between atoms: N_5  and  C_6 
REMARK    2  A    between atoms: C_6  and  C_7 
REMARK    3  A    between atoms: C_7  and  N_8 
REMARK    4  A    between atoms: N_8  and  C_11 
REMARK    5  A    between atoms: C_11  and  C_12 
ROOT
HETATM    1  N   UNL     1      29.224  43.104  53.558  1.00  0.00    -0.324 N 
HETATM    2  C   UNL     1      28.465  41.968  53.465  1.00  0.00     0.248 C 
HETATM    3  O   UNL     1      27.452  41.687  54.104  1.00  0.00    -0.271 OA
HETATM    4  H   UNL     1      30.095  43.199  53.029  1.00  0.00     0.169 HD
ENDROOT
BRANCH   1   5
HETATM    5  C   UNL     1      29.026  44.229  54.400  1.00  0.00     0.065 A 
HETATM    6  C   UNL     1      28.093  45.240  54.145  1.00  0.00     0.038 A 
HETATM    7  C   UNL     1      27.960  46.315  55.030  1.00  0.00    -0.059 A 
HETATM    8  C   UNL     1      26.967  47.412  54.770  1.00  0.00     0.048 C 
HETATM    9  C   UNL     1      28.765  46.362  56.172  1.00  0.00     0.020 A 
HETATM   10  C   UNL     1      29.702  45.349  56.433  1.00  0.00    -0.005 A 
HETATM   11  C   UNL     1      29.844  44.269  55.539  1.00  0.00     0.093 A 
HETATM   12  C   UNL     1      30.515  45.372  57.573  1.00  0.00     0.015 A 
HETATM   13  N   UNL     1      30.735  43.267  55.748  1.00  0.00    -0.258 NA
HETATM   14  C   UNL     1      31.499  43.329  56.863  1.00  0.00     0.117 A 
HETATM   15  C   UNL     1      31.427  44.347  57.794  1.00  0.00     0.020 A 
ENDBRANCH   1   5
BRANCH   2  16
HETATM   16  C   UNL     1      28.994  40.948  52.455  1.00  0.00     0.335 C 
BRANCH  16  17
HETATM   17  N   UNL     1      27.897  40.498  51.518  1.00  0.00    -0.059 N 
HETATM   18  H   UNL     1      27.932  39.480  51.363  1.00  0.00     0.278 HD
HETATM   19  H   UNL     1      27.000  40.692  52.003  1.00  0.00     0.278 HD
BRANCH  17  20
HETATM   20  C   UNL     1      27.841  41.234  50.182  1.00  0.00     0.349 C 
BRANCH  20  21
HETATM   21  C   UNL     1      26.906  42.448  50.248  1.00  0.00     0.411 C 
HETATM   22  F   UNL     1      27.620  43.538  50.609  1.00  0.00    -0.169 F 
HETATM   23  F   UNL     1      26.383  42.691  49.027  1.00  0.00    -0.169 F 
HETATM   24  F   UNL     1      25.911  42.268  51.128  1.00  0.00    -0.169 F 
ENDBRANCH  20  21
ENDBRANCH  17  20
ENDBRANCH  16  17
ENDBRANCH   2  16
TORSDOF 5
ENDMDL
MODEL 7
REMARK VINA RESULT:      -7.5      7.056      8.862
REMARK  5 active torsions:
REMARK  status: ('A' for Active; 'I' for Inactive)
REMARK    1  A    between atoms: C_4  and  N_5 
REMARK       I    between atoms: N_5  and  C_6 
REMARK    2  A    between atoms: C_6  and  C_7 
REMARK    3  A    between atoms: C_7  and  N_8 
REMARK    4  A    between atoms: N_8  and  C_11 
REMARK    5  A    between atoms: C_11  and  C_12 
ROOT
HETATM    1  N   UNL     1      24.771  46.538  51.254  1.00  0.00    -0.324 N 
HETATM    2  C   UNL     1      24.797  47.446  50.229  1.00  0.00     0.248 C 
HETATM    3  O   UNL     1      25.599  48.361  50.056  1.00  0.00    -0.271 OA
HETATM    4  H   UNL     1      24.007  45.863  51.339  1.00  0.00     0.169 HD
ENDROOT
BRANCH   1   5
HETATM    5  C   UNL     1      25.661  46.427  52.355  1.00  0.00     0.065 A 
HETATM    6  C   UNL     1      25.702  47.336  53.418  1.00  0.00     0.038 A 
HETATM    7  C   UNL     1      26.610  47.151  54.466  1.00  0.00    -0.059 A 
HETATM    8  C   UNL     1      26.673  48.118  55.614  1.00  0.00     0.048 C 
HETATM    9  C   UNL     1      27.468  46.047  54.439  1.00  0.00     0.020 A 
HETATM   10  C   UNL     1      27.429  45.133  53.374  1.00  0.00    -0.005 A 
HETATM   11  C   UNL     1      26.521  45.320  52.313  1.00  0.00     0.093 A 
HETATM   12  C   UNL     1      28.274  44.018  53.328  1.00  0.00     0.015 A 
HETATM   13  N   UNL     1      26.446  44.465  51.263  1.00  0.00    -0.258 NA
HETATM   14  C   UNL     1      27.281  43.399  51.260  1.00  0.00     0.117 A 
HETATM   15  C   UNL     1      28.200  43.136  52.257  1.00  0.00     0.020 A 
ENDBRANCH   1   5
BRANCH   2  16
HETATM   16  C   UNL     1      23.659  47.277  49.221  1.00  0.00     0.335 C 
BRANCH  16  17
HETATM   17  N   UNL     1      22.485  48.158  49.581  1.00  0.00    -0.059 N 
HETATM   18  H   UNL     1      21.640  47.598  49.769  1.00  0.00     0.278 HD
HETATM   19  H   UNL     1      22.733  48.627  50.473  1.00  0.00     0.278 HD
BRANCH  17  20
HETATM   20  C   UNL     1      22.171  49.265  48.576  1.00  0.00     0.349 C 
BRANCH  20  21
HETATM   21  C   UNL     1      22.547  50.646  49.127  1.00  0.00     0.411 C 
HETATM   22  F   UNL     1      21.952  51.599  48.375  1.00  0.00    -0.169 F 
HETATM   23  F   UNL     1      22.086  50.777  50.389  1.00  0.00    -0.169 F 
HETATM   24  F   UNL     1      23.873  50.848  49.116  1.00  0.00    -0.169 F 
ENDBRANCH  20  21
ENDBRANCH  17  20
ENDBRANCH  16  17
ENDBRANCH   2  16
TORSDOF 5
ENDMDL
MODEL 8
REMARK VINA RESULT:      -7.4      8.849     10.729
REMARK  5 active torsions:
REMARK  status: ('A' for Active; 'I' for Inactive)
REMARK    1  A    between atoms: C_4  and  N_5 
REMARK       I    between atoms: N_5  and  C_6 
REMARK    2  A    between atoms: C_6  and  C_7 
REMARK    3  A    between atoms: C_7  and  N_8 
REMARK    4  A    between atoms: N_8  and  C_11 
REMARK    5  A    between atoms: C_11  and  C_12 
ROOT
HETATM    1  N   UNL     1      22.732  47.532  49.528  1.00  0.00    -0.324 N 
HETATM    2  C   UNL     1      22.016  47.242  48.398  1.00  0.00     0.248 C 
HETATM    3  O   UNL     1      22.404  46.649  47.393  1.00  0.00    -0.271 OA
HETATM    4  H   UNL     1      22.327  48.101  50.276  1.00  0.00     0.169 HD
ENDROOT
BRANCH   1   5
HETATM    5  C   UNL     1      24.085  47.215  49.818  1.00  0.00     0.065 A 
HETATM    6  C   UNL     1      24.486  46.066  50.509  1.00  0.00     0.038 A 
HETATM    7  C   UNL     1      25.843  45.829  50.752  1.00  0.00    -0.059 A 
HETATM    8  C   UNL     1      26.292  44.604  51.496  1.00  0.00     0.048 C 
HETATM    9  C   UNL     1      26.790  46.748  50.291  1.00  0.00     0.020 A 
HETATM   10  C   UNL     1      26.391  47.902  49.597  1.00  0.00    -0.005 A 
HETATM   11  C   UNL     1      25.025  48.148  49.358  1.00  0.00     0.093 A 
HETATM   12  C   UNL     1      27.322  48.834  49.121  1.00  0.00     0.015 A 
HETATM   13  N   UNL     1      24.592  49.248  48.692  1.00  0.00    -0.258 NA
HETATM   14  C   UNL     1      25.526  50.122  48.249  1.00  0.00     0.117 A 
HETATM   15  C   UNL     1      26.885  49.961  48.436  1.00  0.00     0.020 A 
ENDBRANCH   1   5
BRANCH   2  16
HETATM   16  C   UNL     1      20.577  47.761  48.424  1.00  0.00     0.335 C 
BRANCH  16  17
HETATM   17  N   UNL     1      20.314  48.557  49.682  1.00  0.00    -0.059 N 
HETATM   18  H   UNL     1      19.819  47.990  50.386  1.00  0.00     0.278 HD
HETATM   19  H   UNL     1      21.243  48.783  50.086  1.00  0.00     0.278 HD
BRANCH  17  20
HETATM   20  C   UNL     1      19.592  49.886  49.471  1.00  0.00     0.349 C 
BRANCH  20  21
HETATM   21  C   UNL     1      20.568  51.068  49.515  1.00  0.00     0.411 C 
HETATM   22  F   UNL     1      21.617  50.807  48.702  1.00  0.00    -0.169 F 
HETATM   23  F   UNL     1      19.962  52.181  49.052  1.00  0.00    -0.169 F 
HETATM   24  F   UNL     1      21.026  51.296  50.755  1.00  0.00    -0.169 F 
ENDBRANCH  20  21
ENDBRANCH  17  20
ENDBRANCH  16  17
ENDBRANCH   2  16
TORSDOF 5
ENDMDL
MODEL 9
REMARK VINA RESULT:      -7.4      9.040     11.120
REMARK  5 active torsions:
REMARK  status: ('A' for Active; 'I' for Inactive)
REMARK    1  A    between atoms: C_4  and  N_5 
REMARK       I    between atoms: N_5  and  C_6 
REMARK    2  A    between atoms: C_6  and  C_7 
REMARK    3  A    between atoms: C_7  and  N_8 
REMARK    4  A    between atoms: N_8  and  C_11 
REMARK    5  A    between atoms: C_11  and  C_12 
ROOT
HETATM    1  N   UNL     1      22.773  47.750  49.529  1.00  0.00    -0.324 N 
HETATM    2  C   UNL     1      21.901  47.847  48.478  1.00  0.00     0.248 C 
HETATM    3  O   UNL     1      22.173  47.958  47.284  1.00  0.00    -0.271 OA
HETATM    4  H   UNL     1      22.435  47.739  50.495  1.00  0.00     0.169 HD
ENDROOT
BRANCH   1   5
HETATM    5  C   UNL     1      24.193  47.747  49.498  1.00  0.00     0.065 A 
HETATM    6  C   UNL     1      24.967  48.853  49.133  1.00  0.00     0.038 A 
HETATM    7  C   UNL     1      26.363  48.765  49.131  1.00  0.00    -0.059 A 
HETATM    8  C   UNL     1      27.212  49.941  48.738  1.00  0.00     0.048 C 
HETATM    9  C   UNL     1      26.972  47.562  49.503  1.00  0.00     0.020 A 
HETATM   10  C   UNL     1      26.198  46.450  49.869  1.00  0.00    -0.005 A 
HETATM   11  C   UNL     1      24.792  46.533  49.865  1.00  0.00     0.093 A 
HETATM   12  C   UNL     1      26.785  45.237  50.251  1.00  0.00     0.015 A 
HETATM   13  N   UNL     1      24.002  45.485  50.212  1.00  0.00    -0.258 NA
HETATM   14  C   UNL     1      24.612  44.333  50.574  1.00  0.00     0.117 A 
HETATM   15  C   UNL     1      25.982  44.161  50.609  1.00  0.00     0.020 A 
ENDBRANCH   1   5
BRANCH   2  16
HETATM   16  C   UNL     1      20.429  47.838  48.891  1.00  0.00     0.335 C 
BRANCH  16  17
HETATM   17  N   UNL     1      20.183  48.798  50.032  1.00  0.00    -0.059 N 
HETATM   18  H   UNL     1      19.920  48.297  50.893  1.00  0.00     0.278 HD
HETATM   19  H   UNL     1      21.091  49.262  50.226  1.00  0.00     0.278 HD
BRANCH  17  20
HETATM   20  C   UNL     1      19.176  49.909  49.741  1.00  0.00     0.349 C 
BRANCH  20  21
HETATM   21  C   UNL     1      19.835  51.293  49.797  1.00  0.00     0.411 C 
HETATM   22  F   UNL     1      20.829  51.273  50.714  1.00  0.00    -0.169 F 
HETATM   23  F   UNL     1      20.390  51.585  48.602  1.00  0.00    -0.169 F 
HETATM   24  F   UNL     1      18.959  52.254  50.125  1.00  0.00    -0.169 F 
ENDBRANCH  20  21
ENDBRANCH  17  20
ENDBRANCH  16  17
ENDBRANCH   2  16
TORSDOF 5
ENDMDL
MODEL 10
REMARK VINA RESULT:      -7.2      2.441      3.960
REMARK  5 active torsions:
REMARK  status: ('A' for Active; 'I' for Inactive)
REMARK    1  A    between atoms: C_4  and  N_5 
REMARK       I    between atoms: N_5  and  C_6 
REMARK    2  A    between atoms: C_6  and  C_7 
REMARK    3  A    between atoms: C_7  and  N_8 
REMARK    4  A    between atoms: N_8  and  C_11 
REMARK    5  A    between atoms: C_11  and  C_12 
ROOT
HETATM    1  N   UNL     1      27.035  44.450  52.423  1.00  0.00    -0.324 N 
HETATM    2  C   UNL     1      25.792  43.950  52.136  1.00  0.00     0.248 C 
HETATM    3  O   UNL     1      24.766  44.059  52.805  1.00  0.00    -0.271 OA
HETATM    4  H   UNL     1      27.839  44.232  51.829  1.00  0.00     0.169 HD
ENDROOT
BRANCH   1   5
HETATM    5  C   UNL     1      27.437  45.215  53.548  1.00  0.00     0.065 A 
HETATM    6  C   UNL     1      26.785  46.377  53.975  1.00  0.00     0.038 A 
HETATM    7  C   UNL     1      27.247  47.072  55.098  1.00  0.00    -0.059 A 
HETATM    8  C   UNL     1      26.563  48.324  55.568  1.00  0.00     0.048 C 
HETATM    9  C   UNL     1      28.362  46.587  55.789  1.00  0.00     0.020 A 
HETATM   10  C   UNL     1      29.019  45.421  55.364  1.00  0.00    -0.005 A 
HETATM   11  C   UNL     1      28.561  44.724  54.229  1.00  0.00     0.093 A 
HETATM   12  C   UNL     1      30.134  44.914  56.043  1.00  0.00     0.015 A 
HETATM   13  N   UNL     1      29.162  43.593  53.781  1.00  0.00    -0.258 NA
HETATM   14  C   UNL     1      30.236  43.138  54.468  1.00  0.00     0.117 A 
HETATM   15  C   UNL     1      30.752  43.755  55.591  1.00  0.00     0.020 A 
ENDBRANCH   1   5
BRANCH   2  16
HETATM   16  C   UNL     1      25.731  43.148  50.835  1.00  0.00     0.335 C 
BRANCH  16  17
HETATM   17  N   UNL     1      25.404  41.698  51.110  1.00  0.00    -0.059 N 
HETATM   18  H   UNL     1      24.980  41.581  52.042  1.00  0.00     0.278 HD
HETATM   19  H   UNL     1      24.679  41.426  50.419  1.00  0.00     0.278 HD
BRANCH  17  20
HETATM   20  C   UNL     1      26.567  40.725  50.933  1.00  0.00     0.349 C 
BRANCH  20  21
HETATM   21  C   UNL     1      26.671  40.232  49.484  1.00  0.00     0.411 C 
HETATM   22  F   UNL     1      27.151  38.968  49.480  1.00  0.00    -0.169 F 
HETATM   23  F   UNL     1      25.445  40.204  48.920  1.00  0.00    -0.169 F 
HETATM   24  F   UNL     1      27.479  41.007  48.747  1.00  0.00    -0.169 F 
ENDBRANCH  20  21
ENDBRANCH  17  20
ENDBRANCH  16  17
ENDBRANCH   2  16
TORSDOF 5
ENDMDL
