MODEL 1
REMARK VINA RESULT:      -9.9      0.000      0.000
REMARK  6 active torsions:
REMARK  status: ('A' for Active; 'I' for Inactive)
REMARK    1  A    between atoms: C_2  and  C_3 
REMARK       I    between atoms: C_3  and  N_4 
REMARK    2  A    between atoms: N_4  and  C_5 
REMARK    3  A    between atoms: C_16  and  N_17 
REMARK    4  A    between atoms: C_20  and  N_21 
REMARK    5  A    between atoms: N_21  and  C_24 
REMARK    6  A    between atoms: C_24  and  C_25 
ROOT
HETATM    1  C   UNL     1      23.002  47.071  48.921  1.00  0.00     0.019 A 
HETATM    2  C   UNL     1      23.395  48.394  48.732  1.00  0.00     0.032 A 
HETATM    3  C   UNL     1      24.632  48.823  49.215  1.00  0.00     0.019 A 
HETATM    4  C   UNL     1      25.478  47.914  49.867  1.00  0.00     0.030 A 
HETATM    5  C   UNL     1      25.114  46.572  50.054  1.00  0.00     0.030 A 
HETATM    6  C   UNL     1      23.850  46.179  49.582  1.00  0.00     0.030 A 
ENDROOT
BRANCH   5   7
HETATM    7  N   UNL     1      25.971  45.628  50.611  1.00  0.00    -0.381 N 
HETATM    8  C   UNL     1      26.158  45.630  52.057  1.00  0.00     0.125 C 
HETATM    9  C   UNL     1      26.241  44.182  52.525  1.00  0.00     0.053 C 
HETATM   10  C   UNL     1      27.293  43.384  51.752  1.00  0.00     0.189 C 
HETATM   11  C   UNL     1      27.127  43.534  50.236  1.00  0.00     0.053 C 
HETATM   12  C   UNL     1      26.995  44.991  49.793  1.00  0.00     0.125 C 
BRANCH  10  13
HETATM   13  N   UNL     1      28.693  43.790  52.132  1.00  0.00    -0.067 N 
HETATM   14  H   UNL     1      29.252  43.902  51.274  1.00  0.00     0.277 HD
HETATM   15  H   UNL     1      28.705  44.717  52.576  1.00  0.00     0.277 HD
BRANCH  13  16
HETATM   16  C   UNL     1      29.454  42.839  52.999  1.00  0.00     0.271 C 
BRANCH  16  17
HETATM   17  C   UNL     1      29.808  43.496  54.302  1.00  0.00    -0.030 A 
HETATM   18  C   UNL     1      29.023  44.549  54.800  1.00  0.00     0.048 A 
HETATM   19  C   UNL     1      29.362  45.087  56.024  1.00  0.00     0.105 A 
HETATM   20  C   UNL     1      30.425  44.619  56.755  1.00  0.00     0.105 A 
HETATM   21  O   UNL     1      28.713  46.107  56.644  1.00  0.00    -0.323 OA
HETATM   22  O   UNL     1      30.581  45.286  57.927  1.00  0.00    -0.323 OA
HETATM   23  C   UNL     1      31.214  43.585  56.304  1.00  0.00     0.040 A 
HETATM   24  C   UNL     1      29.514  46.254  57.841  1.00  0.00     0.352 A 
HETATM   25  C   UNL     1      30.901  43.018  55.064  1.00  0.00     0.012 A 
ENDBRANCH  16  17
ENDBRANCH  13  16
ENDBRANCH  10  13
ENDBRANCH   5   7
BRANCH   2  26
HETATM   26  C   UNL     1      22.523  49.278  47.925  1.00  0.00     0.252 C 
HETATM   27  N   UNL     1      21.169  49.078  48.040  1.00  0.00    -0.344 N 
HETATM   28  H   UNL     1      20.835  48.262  48.535  1.00  0.00     0.163 HD
HETATM   29  O   UNL     1      23.037  50.112  47.187  1.00  0.00    -0.268 OA
BRANCH  27  30
HETATM   30  C   UNL     1      20.158  49.912  47.387  1.00  0.00     0.171 C 
HETATM   31  C   UNL     1      19.583  51.000  48.314  1.00  0.00     0.220 C 
HETATM   32  O   UNL     1      20.134  52.091  48.449  1.00  0.00    -0.278 OA
HETATM   33  N   UNL     1      18.539  50.616  49.127  1.00  0.00    -0.261 NA
HETATM   34  C   UNL     1      17.269  50.299  48.509  1.00  0.00     0.095 C 
HETATM   35  H   UNL     1      18.842  49.836  49.716  1.00  0.00     0.130 HD
HETATM   36  C   UNL     1      17.118  48.822  48.163  1.00  0.00     0.015 C 
HETATM   37  C   UNL     1      18.189  48.193  47.267  1.00  0.00     0.004 C 
HETATM   38  C   UNL     1      19.134  49.144  46.541  1.00  0.00     0.034 C 
ENDBRANCH  27  30
ENDBRANCH   2  26
TORSDOF 6
ENDMDL
MODEL 2
REMARK VINA RESULT:      -9.8      3.942      7.088
REMARK  6 active torsions:
REMARK  status: ('A' for Active; 'I' for Inactive)
REMARK    1  A    between atoms: C_2  and  C_3 
REMARK       I    between atoms: C_3  and  N_4 
REMARK    2  A    between atoms: N_4  and  C_5 
REMARK    3  A    between atoms: C_16  and  N_17 
REMARK    4  A    between atoms: C_20  and  N_21 
REMARK    5  A    between atoms: N_21  and  C_24 
REMARK    6  A    between atoms: C_24  and  C_25 
ROOT
HETATM    1  C   UNL     1      17.969  51.146  50.318  1.00  0.00     0.019 A 
HETATM    2  C   UNL     1      17.643  52.190  49.456  1.00  0.00     0.032 A 
HETATM    3  C   UNL     1      18.583  52.637  48.526  1.00  0.00     0.019 A 
HETATM    4  C   UNL     1      19.838  52.017  48.451  1.00  0.00     0.030 A 
HETATM    5  C   UNL     1      20.184  50.950  49.296  1.00  0.00     0.030 A 
HETATM    6  C   UNL     1      19.227  50.544  50.241  1.00  0.00     0.030 A 
ENDROOT
BRANCH   5   7
HETATM    7  N   UNL     1      21.384  50.255  49.180  1.00  0.00    -0.381 N 
HETATM    8  C   UNL     1      21.338  48.800  49.109  1.00  0.00     0.125 C 
HETATM    9  C   UNL     1      22.391  48.341  48.108  1.00  0.00     0.053 C 
HETATM   10  C   UNL     1      23.775  48.915  48.421  1.00  0.00     0.189 C 
HETATM   11  C   UNL     1      23.733  50.434  48.621  1.00  0.00     0.053 C 
HETATM   12  C   UNL     1      22.637  50.877  49.590  1.00  0.00     0.125 C 
BRANCH  10  13
HETATM   13  N   UNL     1      24.380  48.278  49.644  1.00  0.00    -0.067 N 
HETATM   14  H   UNL     1      24.274  48.921  50.442  1.00  0.00     0.277 HD
HETATM   15  H   UNL     1      23.865  47.432  49.918  1.00  0.00     0.277 HD
BRANCH  13  16
HETATM   16  C   UNL     1      25.837  47.945  49.574  1.00  0.00     0.271 C 
BRANCH  16  17
HETATM   17  C   UNL     1      26.143  46.776  50.466  1.00  0.00    -0.030 A 
HETATM   18  C   UNL     1      25.651  46.740  51.780  1.00  0.00     0.048 A 
HETATM   19  C   UNL     1      25.921  45.623  52.542  1.00  0.00     0.105 A 
HETATM   20  C   UNL     1      26.639  44.562  52.050  1.00  0.00     0.105 A 
HETATM   21  O   UNL     1      25.524  45.430  53.828  1.00  0.00    -0.323 OA
HETATM   22  O   UNL     1      26.786  43.568  52.963  1.00  0.00    -0.323 OA
HETATM   23  C   UNL     1      27.131  44.557  50.764  1.00  0.00     0.040 A 
HETATM   24  C   UNL     1      26.106  44.135  54.103  1.00  0.00     0.352 A 
HETATM   25  C   UNL     1      26.880  45.676  49.964  1.00  0.00     0.012 A 
ENDBRANCH  16  17
ENDBRANCH  13  16
ENDBRANCH  10  13
ENDBRANCH   5   7
BRANCH   2  26
HETATM   26  C   UNL     1      16.261  52.724  49.488  1.00  0.00     0.252 C 
HETATM   27  N   UNL     1      16.009  53.726  50.393  1.00  0.00    -0.344 N 
HETATM   28  H   UNL     1      16.712  53.947  51.086  1.00  0.00     0.163 HD
HETATM   29  O   UNL     1      15.418  52.240  48.741  1.00  0.00    -0.268 OA
BRANCH  27  30
HETATM   30  C   UNL     1      14.730  54.429  50.503  1.00  0.00     0.171 C 
HETATM   31  C   UNL     1      14.570  55.557  49.466  1.00  0.00     0.220 C 
HETATM   32  O   UNL     1      14.145  55.337  48.333  1.00  0.00    -0.278 OA
HETATM   33  N   UNL     1      15.111  56.777  49.808  1.00  0.00    -0.261 NA
HETATM   34  C   UNL     1      14.500  57.520  50.889  1.00  0.00     0.095 C 
HETATM   35  H   UNL     1      16.111  56.662  49.987  1.00  0.00     0.130 HD
HETATM   36  C   UNL     1      15.123  57.227  52.249  1.00  0.00     0.015 C 
HETATM   37  C   UNL     1      15.159  55.767  52.711  1.00  0.00     0.004 C 
HETATM   38  C   UNL     1      14.302  54.771  51.936  1.00  0.00     0.034 C 
ENDBRANCH  27  30
ENDBRANCH   2  26
TORSDOF 6
ENDMDL
MODEL 3
REMARK VINA RESULT:      -9.6      1.205      1.703
REMARK  6 active torsions:
REMARK  status: ('A' for Active; 'I' for Inactive)
REMARK    1  A    between atoms: C_2  and  C_3 
REMARK       I    between atoms: C_3  and  N_4 
REMARK    2  A    between atoms: N_4  and  C_5 
REMARK    3  A    between atoms: C_16  and  N_17 
REMARK    4  A    between atoms: C_20  and  N_21 
REMARK    5  A    between atoms: N_21  and  C_24 
REMARK    6  A    between atoms: C_24  and  C_25 
ROOT
HETATM    1  C   UNL     1      22.579  46.443  48.431  1.00  0.00     0.019 A 
HETATM    2  C   UNL     1      22.888  47.761  48.758  1.00  0.00     0.032 A 
HETATM    3  C   UNL     1      23.899  48.025  49.683  1.00  0.00     0.019 A 
HETATM    4  C   UNL     1      24.612  46.963  50.257  1.00  0.00     0.030 A 
HETATM    5  C   UNL     1      24.334  45.626  49.930  1.00  0.00     0.030 A 
HETATM    6  C   UNL     1      23.290  45.393  49.019  1.00  0.00     0.030 A 
ENDROOT
BRANCH   5   7
HETATM    7  N   UNL     1      25.087  44.560  50.411  1.00  0.00    -0.381 N 
HETATM    8  C   UNL     1      24.383  43.380  50.901  1.00  0.00     0.125 C 
HETATM    9  C   UNL     1      25.168  42.148  50.470  1.00  0.00     0.053 C 
HETATM   10  C   UNL     1      26.639  42.225  50.884  1.00  0.00     0.189 C 
HETATM   11  C   UNL     1      27.286  43.548  50.460  1.00  0.00     0.053 C 
HETATM   12  C   UNL     1      26.458  44.770  50.858  1.00  0.00     0.125 C 
BRANCH  10  13
HETATM   13  N   UNL     1      26.811  42.052  52.371  1.00  0.00    -0.067 N 
HETATM   14  H   UNL     1      26.365  42.846  52.852  1.00  0.00     0.277 HD
HETATM   15  H   UNL     1      26.308  41.223  52.711  1.00  0.00     0.277 HD
BRANCH  13  16
HETATM   16  C   UNL     1      28.215  41.998  52.881  1.00  0.00     0.271 C 
BRANCH  16  17
HETATM   17  C   UNL     1      28.441  43.087  53.890  1.00  0.00    -0.030 A 
HETATM   18  C   UNL     1      29.704  43.252  54.482  1.00  0.00     0.048 A 
HETATM   19  C   UNL     1      29.872  44.297  55.368  1.00  0.00     0.105 A 
HETATM   20  C   UNL     1      28.853  45.166  55.669  1.00  0.00     0.105 A 
HETATM   21  O   UNL     1      31.022  44.594  56.028  1.00  0.00    -0.323 OA
HETATM   22  O   UNL     1      29.233  46.119  56.558  1.00  0.00    -0.323 OA
HETATM   23  C   UNL     1      27.604  45.041  55.104  1.00  0.00     0.040 A 
HETATM   24  C   UNL     1      30.601  45.735  56.811  1.00  0.00     0.352 A 
HETATM   25  C   UNL     1      27.397  43.989  54.205  1.00  0.00     0.012 A 
ENDBRANCH  16  17
ENDBRANCH  13  16
ENDBRANCH  10  13
ENDBRANCH   5   7
BRANCH   2  26
HETATM   26  C   UNL     1      22.194  48.848  48.028  1.00  0.00     0.252 C 
HETATM   27  N   UNL     1      20.822  48.797  48.008  1.00  0.00    -0.344 N 
HETATM   28  H   UNL     1      20.358  47.966  48.348  1.00  0.00     0.163 HD
HETATM   29  O   UNL     1      22.861  49.709  47.465  1.00  0.00    -0.268 OA
BRANCH  27  30
HETATM   30  C   UNL     1      19.972  49.829  47.412  1.00  0.00     0.171 C 
HETATM   31  C   UNL     1      19.654  50.984  48.380  1.00  0.00     0.220 C 
HETATM   32  O   UNL     1      20.414  51.943  48.513  1.00  0.00    -0.278 OA
HETATM   33  N   UNL     1      18.585  50.790  49.227  1.00  0.00    -0.261 NA
HETATM   34  C   UNL     1      17.257  50.744  48.655  1.00  0.00     0.095 C 
HETATM   35  H   UNL     1      18.750  49.952  49.789  1.00  0.00     0.130 HD
HETATM   36  C   UNL     1      16.807  49.334  48.288  1.00  0.00     0.015 C 
HETATM   37  C   UNL     1      17.700  48.531  47.339  1.00  0.00     0.004 C 
HETATM   38  C   UNL     1      18.787  49.298  46.593  1.00  0.00     0.034 C 
ENDBRANCH  27  30
ENDBRANCH   2  26
TORSDOF 6
ENDMDL
MODEL 4
REMARK VINA RESULT:      -9.4      1.494      2.072
REMARK  6 active torsions:
REMARK  status: ('A' for Active; 'I' for Inactive)
REMARK    1  A    between atoms: C_2  and  C_3 
REMARK       I    between atoms: C_3  and  N_4 
REMARK    2  A    between atoms: N_4  and  C_5 
REMARK    3  A    between atoms: C_16  and  N_17 
REMARK    4  A    between atoms: C_20  and  N_21 
REMARK    5  A    between atoms: N_21  and  C_24 
REMARK    6  A    between atoms: C_24  and  C_25 
ROOT
HETATM    1  C   UNL     1      22.675  47.676  48.836  1.00  0.00     0.019 A 
HETATM    2  C   UNL     1      21.676  46.915  48.234  1.00  0.00     0.032 A 
HETATM    3  C   UNL     1      21.731  45.522  48.303  1.00  0.00     0.019 A 
HETATM    4  C   UNL     1      22.780  44.900  48.997  1.00  0.00     0.030 A 
HETATM    5  C   UNL     1      23.788  45.644  49.629  1.00  0.00     0.030 A 
HETATM    6  C   UNL     1      23.720  47.043  49.516  1.00  0.00     0.030 A 
ENDROOT
BRANCH   5   7
HETATM    7  N   UNL     1      24.785  45.059  50.404  1.00  0.00    -0.381 N 
HETATM    8  C   UNL     1      25.018  45.583  51.744  1.00  0.00     0.125 C 
HETATM    9  C   UNL     1      25.315  44.407  52.667  1.00  0.00     0.053 C 
HETATM   10  C   UNL     1      26.439  43.519  52.130  1.00  0.00     0.189 C 
HETATM   11  C   UNL     1      26.203  43.114  50.671  1.00  0.00     0.053 C 
HETATM   12  C   UNL     1      25.858  44.302  49.772  1.00  0.00     0.125 C 
BRANCH  10  13
HETATM   13  N   UNL     1      27.783  44.193  52.238  1.00  0.00    -0.067 N 
HETATM   14  H   UNL     1      28.035  44.581  51.318  1.00  0.00     0.277 HD
HETATM   15  H   UNL     1      27.743  45.006  52.865  1.00  0.00     0.277 HD
BRANCH  13  16
HETATM   16  C   UNL     1      28.932  43.330  52.652  1.00  0.00     0.271 C 
BRANCH  16  17
HETATM   17  C   UNL     1      29.463  43.780  53.983  1.00  0.00    -0.030 A 
HETATM   18  C   UNL     1      28.840  44.832  54.674  1.00  0.00     0.048 A 
HETATM   19  C   UNL     1      29.337  45.176  55.914  1.00  0.00     0.105 A 
HETATM   20  C   UNL     1      30.402  44.518  56.479  1.00  0.00     0.105 A 
HETATM   21  O   UNL     1      28.857  46.167  56.710  1.00  0.00    -0.323 OA
HETATM   22  O   UNL     1      30.726  45.013  57.701  1.00  0.00    -0.323 OA
HETATM   23  C   UNL     1      31.033  43.478  55.836  1.00  0.00     0.040 A 
HETATM   24  C   UNL     1      29.766  46.083  57.832  1.00  0.00     0.352 A 
HETATM   25  C   UNL     1      30.558  43.106  54.574  1.00  0.00     0.012 A 
ENDBRANCH  16  17
ENDBRANCH  13  16
ENDBRANCH  10  13
ENDBRANCH   5   7
BRANCH   2  26
HETATM   26  C   UNL     1      20.525  47.621  47.626  1.00  0.00     0.252 C 
HETATM   27  N   UNL     1      19.895  48.558  48.408  1.00  0.00    -0.344 N 
HETATM   28  H   UNL     1      20.135  48.618  49.388  1.00  0.00     0.163 HD
HETATM   29  O   UNL     1      20.177  47.326  46.487  1.00  0.00    -0.268 OA
BRANCH  27  30
HETATM   30  C   UNL     1      18.800  49.412  47.944  1.00  0.00     0.171 C 
HETATM   31  C   UNL     1      19.280  50.601  47.092  1.00  0.00     0.220 C 
HETATM   32  O   UNL     1      19.469  50.495  45.881  1.00  0.00    -0.278 OA
HETATM   33  N   UNL     1      19.676  51.725  47.785  1.00  0.00    -0.261 NA
HETATM   34  C   UNL     1      18.668  52.483  48.494  1.00  0.00     0.095 C 
HETATM   35  H   UNL     1      20.435  51.475  48.424  1.00  0.00     0.130 HD
HETATM   36  C   UNL     1      18.492  52.045  49.943  1.00  0.00     0.015 C 
HETATM   37  C   UNL     1      18.166  50.572  50.203  1.00  0.00     0.004 C 
HETATM   38  C   UNL     1      17.737  49.733  49.003  1.00  0.00     0.034 C 
ENDBRANCH  27  30
ENDBRANCH   2  26
TORSDOF 6
ENDMDL
MODEL 5
REMARK VINA RESULT:      -9.2      1.564      2.303
REMARK  6 active torsions:
REMARK  status: ('A' for Active; 'I' for Inactive)
REMARK    1  A    between atoms: C_2  and  C_3 
REMARK       I    between atoms: C_3  and  N_4 
REMARK    2  A    between atoms: N_4  and  C_5 
REMARK    3  A    between atoms: C_16  and  N_17 
REMARK    4  A    between atoms: C_20  and  N_21 
REMARK    5  A    between atoms: N_21  and  C_24 
REMARK    6  A    between atoms: C_24  and  C_25 
ROOT
HETATM    1  C   UNL     1      23.447  48.543  49.211  1.00  0.00     0.019 A 
HETATM    2  C   UNL     1      22.294  48.332  48.459  1.00  0.00     0.032 A 
HETATM    3  C   UNL     1      21.923  47.032  48.113  1.00  0.00     0.019 A 
HETATM    4  C   UNL     1      22.701  45.947  48.545  1.00  0.00     0.030 A 
HETATM    5  C   UNL     1      23.856  46.132  49.320  1.00  0.00     0.030 A 
HETATM    6  C   UNL     1      24.219  47.455  49.626  1.00  0.00     0.030 A 
ENDROOT
BRANCH   5   7
HETATM    7  N   UNL     1      24.592  45.072  49.842  1.00  0.00    -0.381 N 
HETATM    8  C   UNL     1      23.871  43.912  50.349  1.00  0.00     0.125 C 
HETATM    9  C   UNL     1      24.654  42.662  49.964  1.00  0.00     0.053 C 
HETATM   10  C   UNL     1      26.118  42.739  50.403  1.00  0.00     0.189 C 
HETATM   11  C   UNL     1      26.782  44.046  49.956  1.00  0.00     0.053 C 
HETATM   12  C   UNL     1      25.957  45.284  50.308  1.00  0.00     0.125 C 
BRANCH  10  13
HETATM   13  N   UNL     1      26.261  42.604  51.896  1.00  0.00    -0.067 N 
HETATM   14  H   UNL     1      26.109  43.525  52.330  1.00  0.00     0.277 HD
HETATM   15  H   UNL     1      25.526  42.003  52.289  1.00  0.00     0.277 HD
BRANCH  13  16
HETATM   16  C   UNL     1      27.585  42.125  52.400  1.00  0.00     0.271 C 
BRANCH  16  17
HETATM   17  C   UNL     1      28.128  43.084  53.420  1.00  0.00    -0.030 A 
HETATM   18  C   UNL     1      29.282  42.762  54.153  1.00  0.00     0.048 A 
HETATM   19  C   UNL     1      29.766  43.697  55.043  1.00  0.00     0.105 A 
HETATM   20  C   UNL     1      29.161  44.916  55.219  1.00  0.00     0.105 A 
HETATM   21  O   UNL     1      30.864  43.543  55.829  1.00  0.00    -0.323 OA
HETATM   22  O   UNL     1      29.801  45.684  56.138  1.00  0.00    -0.323 OA
HETATM   23  C   UNL     1      28.033  45.272  54.514  1.00  0.00     0.040 A 
HETATM   24  C   UNL     1      30.863  44.798  56.550  1.00  0.00     0.352 A 
HETATM   25  C   UNL     1      27.512  44.346  53.605  1.00  0.00     0.012 A 
ENDBRANCH  16  17
ENDBRANCH  13  16
ENDBRANCH  10  13
ENDBRANCH   5   7
BRANCH   2  26
HETATM   26  C   UNL     1      21.439  49.499  48.139  1.00  0.00     0.252 C 
HETATM   27  N   UNL     1      20.096  49.366  48.393  1.00  0.00    -0.344 N 
HETATM   28  H   UNL     1      19.732  48.454  48.636  1.00  0.00     0.163 HD
HETATM   29  O   UNL     1      21.953  50.498  47.648  1.00  0.00    -0.268 OA
BRANCH  27  30
HETATM   30  C   UNL     1      19.118  50.442  48.222  1.00  0.00     0.171 C 
HETATM   31  C   UNL     1      17.923  50.331  49.187  1.00  0.00     0.220 C 
HETATM   32  O   UNL     1      17.966  50.797  50.325  1.00  0.00    -0.278 OA
HETATM   33  N   UNL     1      16.888  49.516  48.782  1.00  0.00    -0.261 NA
HETATM   34  C   UNL     1      16.090  49.933  47.650  1.00  0.00     0.095 C 
HETATM   35  H   UNL     1      17.247  48.572  48.625  1.00  0.00     0.130 HD
HETATM   36  C   UNL     1      16.605  49.397  46.319  1.00  0.00     0.015 C 
HETATM   37  C   UNL     1      18.057  49.707  45.945  1.00  0.00     0.004 C 
HETATM   38  C   UNL     1      18.773  50.776  46.765  1.00  0.00     0.034 C 
ENDBRANCH  27  30
ENDBRANCH   2  26
TORSDOF 6
ENDMDL
MODEL 6
REMARK VINA RESULT:      -8.7      1.632      2.410
REMARK  6 active torsions:
REMARK  status: ('A' for Active; 'I' for Inactive)
REMARK    1  A    between atoms: C_2  and  C_3 
REMARK       I    between atoms: C_3  and  N_4 
REMARK    2  A    between atoms: N_4  and  C_5 
REMARK    3  A    between atoms: C_16  and  N_17 
REMARK    4  A    between atoms: C_20  and  N_21 
REMARK    5  A    between atoms: N_21  and  C_24 
REMARK    6  A    between atoms: C_24  and  C_25 
ROOT
HETATM    1  C   UNL     1      21.154  47.597  48.038  1.00  0.00     0.019 A 
HETATM    2  C   UNL     1      21.239  48.965  48.288  1.00  0.00     0.032 A 
HETATM    3  C   UNL     1      22.316  49.468  49.019  1.00  0.00     0.019 A 
HETATM    4  C   UNL     1      23.316  48.596  49.476  1.00  0.00     0.030 A 
HETATM    5  C   UNL     1      23.264  47.217  49.221  1.00  0.00     0.030 A 
HETATM    6  C   UNL     1      22.151  46.738  48.509  1.00  0.00     0.030 A 
ENDROOT
BRANCH   5   7
HETATM    7  N   UNL     1      24.287  46.345  49.579  1.00  0.00    -0.381 N 
HETATM    8  C   UNL     1      23.983  44.922  49.672  1.00  0.00     0.125 C 
HETATM    9  C   UNL     1      25.174  44.146  49.123  1.00  0.00     0.053 C 
HETATM   10  C   UNL     1      26.489  44.558  49.789  1.00  0.00     0.189 C 
HETATM   11  C   UNL     1      26.685  46.078  49.781  1.00  0.00     0.053 C 
HETATM   12  C   UNL     1      25.460  46.838  50.288  1.00  0.00     0.125 C 
BRANCH  10  13
HETATM   13  N   UNL     1      26.575  44.062  51.209  1.00  0.00    -0.067 N 
HETATM   14  H   UNL     1      26.750  44.864  51.831  1.00  0.00     0.277 HD
HETATM   15  H   UNL     1      25.677  43.676  51.525  1.00  0.00     0.277 HD
BRANCH  13  16
HETATM   16  C   UNL     1      27.651  43.067  51.507  1.00  0.00     0.271 C 
BRANCH  16  17
HETATM   17  C   UNL     1      28.421  43.488  52.726  1.00  0.00    -0.030 A 
HETATM   18  C   UNL     1      27.951  44.538  53.532  1.00  0.00     0.048 A 
HETATM   19  C   UNL     1      28.670  44.854  54.666  1.00  0.00     0.105 A 
HETATM   20  C   UNL     1      29.806  44.171  55.022  1.00  0.00     0.105 A 
HETATM   21  O   UNL     1      28.358  45.839  55.549  1.00  0.00    -0.323 OA
HETATM   22  O   UNL     1      30.354  44.641  56.172  1.00  0.00    -0.323 OA
HETATM   23  C   UNL     1      30.293  43.132  54.262  1.00  0.00     0.040 A 
HETATM   24  C   UNL     1      29.453  45.723  56.487  1.00  0.00     0.352 A 
HETATM   25  C   UNL     1      29.592  42.787  53.101  1.00  0.00     0.012 A 
ENDBRANCH  16  17
ENDBRANCH  13  16
ENDBRANCH  10  13
ENDBRANCH   5   7
BRANCH   2  26
HETATM   26  C   UNL     1      20.228  49.856  47.674  1.00  0.00     0.252 C 
HETATM   27  N   UNL     1      19.117  49.249  47.139  1.00  0.00    -0.344 N 
HETATM   28  H   UNL     1      19.105  48.242  47.050  1.00  0.00     0.163 HD
HETATM   29  O   UNL     1      20.434  51.064  47.647  1.00  0.00    -0.268 OA
BRANCH  27  30
HETATM   30  C   UNL     1      17.979  49.975  46.572  1.00  0.00     0.171 C 
HETATM   31  C   UNL     1      16.929  50.371  47.627  1.00  0.00     0.220 C 
HETATM   32  O   UNL     1      17.031  51.406  48.284  1.00  0.00    -0.278 OA
HETATM   33  N   UNL     1      15.986  49.414  47.935  1.00  0.00    -0.261 NA
HETATM   34  C   UNL     1      15.014  49.060  46.924  1.00  0.00     0.095 C 
HETATM   35  H   UNL     1      16.460  48.572  48.270  1.00  0.00     0.130 HD
HETATM   36  C   UNL     1      15.450  47.887  46.052  1.00  0.00     0.015 C 
HETATM   37  C   UNL     1      16.790  48.009  45.321  1.00  0.00     0.004 C 
HETATM   38  C   UNL     1      17.428  49.393  45.264  1.00  0.00     0.034 C 
ENDBRANCH  27  30
ENDBRANCH   2  26
TORSDOF 6
ENDMDL
MODEL 7
REMARK VINA RESULT:      -8.7      2.052      3.087
REMARK  6 active torsions:
REMARK  status: ('A' for Active; 'I' for Inactive)
REMARK    1  A    between atoms: C_2  and  C_3 
REMARK       I    between atoms: C_3  and  N_4 
REMARK    2  A    between atoms: N_4  and  C_5 
REMARK    3  A    between atoms: C_16  and  N_17 
REMARK    4  A    between atoms: C_20  and  N_21 
REMARK    5  A    between atoms: N_21  and  C_24 
REMARK    6  A    between atoms: C_24  and  C_25 
ROOT
HETATM    1  C   UNL     1      21.131  46.399  46.879  1.00  0.00     0.019 A 
HETATM    2  C   UNL     1      20.461  47.576  47.205  1.00  0.00     0.032 A 
HETATM    3  C   UNL     1      20.918  48.362  48.264  1.00  0.00     0.019 A 
HETATM    4  C   UNL     1      22.063  47.974  48.975  1.00  0.00     0.030 A 
HETATM    5  C   UNL     1      22.768  46.803  48.655  1.00  0.00     0.030 A 
HETATM    6  C   UNL     1      22.264  46.018  47.604  1.00  0.00     0.030 A 
ENDROOT
BRANCH   5   7
HETATM    7  N   UNL     1      23.957  46.444  49.281  1.00  0.00    -0.381 N 
HETATM    8  C   UNL     1      24.190  45.034  49.570  1.00  0.00     0.125 C 
HETATM    9  C   UNL     1      25.662  44.735  49.314  1.00  0.00     0.053 C 
HETATM   10  C   UNL     1      26.586  45.696  50.065  1.00  0.00     0.189 C 
HETATM   11  C   UNL     1      26.204  47.161  49.830  1.00  0.00     0.053 C 
HETATM   12  C   UNL     1      24.714  47.429  50.043  1.00  0.00     0.125 C 
BRANCH  10  13
HETATM   13  N   UNL     1      26.589  45.424  51.547  1.00  0.00    -0.067 N 
HETATM   14  H   UNL     1      27.345  45.971  51.984  1.00  0.00     0.277 HD
HETATM   15  H   UNL     1      25.728  45.766  51.991  1.00  0.00     0.277 HD
BRANCH  13  16
HETATM   16  C   UNL     1      26.809  44.006  51.967  1.00  0.00     0.271 C 
BRANCH  16  17
HETATM   17  C   UNL     1      27.988  43.919  52.894  1.00  0.00    -0.030 A 
HETATM   18  C   UNL     1      28.047  44.724  54.043  1.00  0.00     0.048 A 
HETATM   19  C   UNL     1      29.128  44.572  54.886  1.00  0.00     0.105 A 
HETATM   20  C   UNL     1      30.124  43.661  54.635  1.00  0.00     0.105 A 
HETATM   21  O   UNL     1      29.340  45.271  56.032  1.00  0.00    -0.323 OA
HETATM   22  O   UNL     1      31.089  43.672  55.590  1.00  0.00    -0.323 OA
HETATM   23  C   UNL     1      30.098  42.849  53.523  1.00  0.00     0.040 A 
HETATM   24  C   UNL     1      30.607  44.719  56.459  1.00  0.00     0.352 A 
HETATM   25  C   UNL     1      29.018  42.980  52.644  1.00  0.00     0.012 A 
ENDBRANCH  16  17
ENDBRANCH  13  16
ENDBRANCH  10  13
ENDBRANCH   5   7
BRANCH   2  26
HETATM   26  C   UNL     1      19.337  48.007  46.341  1.00  0.00     0.252 C 
HETATM   27  N   UNL     1      18.471  48.931  46.873  1.00  0.00    -0.344 N 
HETATM   28  H   UNL     1      18.542  49.159  47.856  1.00  0.00     0.163 HD
HETATM   29  O   UNL     1      19.217  47.511  45.226  1.00  0.00    -0.268 OA
BRANCH  27  30
HETATM   30  C   UNL     1      17.360  49.534  46.135  1.00  0.00     0.171 C 
HETATM   31  C   UNL     1      17.674  50.951  45.621  1.00  0.00     0.220 C 
HETATM   32  O   UNL     1      18.249  51.138  44.550  1.00  0.00    -0.278 OA
HETATM   33  N   UNL     1      17.459  51.982  46.510  1.00  0.00    -0.261 NA
HETATM   34  C   UNL     1      16.096  52.290  46.886  1.00  0.00     0.095 C 
HETATM   35  H   UNL     1      18.023  51.825  47.349  1.00  0.00     0.130 HD
HETATM   36  C   UNL     1      15.633  51.546  48.134  1.00  0.00     0.015 C 
HETATM   37  C   UNL     1      15.730  50.018  48.125  1.00  0.00     0.004 C 
HETATM   38  C   UNL     1      15.979  49.346  46.778  1.00  0.00     0.034 C 
ENDBRANCH  27  30
ENDBRANCH   2  26
TORSDOF 6
ENDMDL
MODEL 8
REMARK VINA RESULT:      -8.5     14.249     15.896
REMARK  6 active torsions:
REMARK  status: ('A' for Active; 'I' for Inactive)
REMARK    1  A    between atoms: C_2  and  C_3 
REMARK       I    between atoms: C_3  and  N_4 
REMARK    2  A    between atoms: N_4  and  C_5 
REMARK    3  A    between atoms: C_16  and  N_17 
REMARK    4  A    between atoms: C_20  and  N_21 
REMARK    5  A    between atoms: N_21  and  C_24 
REMARK    6  A    between atoms: C_24  and  C_25 
ROOT
HETATM    1  C   UNL     1      32.988  51.426  43.699  1.00  0.00     0.019 A 
HETATM    2  C   UNL     1      32.833  50.540  42.635  1.00  0.00     0.032 A 
HETATM    3  C   UNL     1      33.921  50.254  41.810  1.00  0.00     0.019 A 
HETATM    4  C   UNL     1      35.167  50.841  42.073  1.00  0.00     0.030 A 
HETATM    5  C   UNL     1      35.355  51.722  43.149  1.00  0.00     0.030 A 
HETATM    6  C   UNL     1      34.233  52.013  43.942  1.00  0.00     0.030 A 
ENDROOT
BRANCH   5   7
HETATM    7  N   UNL     1      36.600  52.244  43.489  1.00  0.00    -0.381 N 
HETATM    8  C   UNL     1      36.661  53.276  44.516  1.00  0.00     0.125 C 
HETATM    9  C   UNL     1      37.899  53.024  45.367  1.00  0.00     0.053 C 
HETATM   10  C   UNL     1      39.167  52.898  44.520  1.00  0.00     0.189 C 
HETATM   11  C   UNL     1      38.993  51.898  43.371  1.00  0.00     0.053 C 
HETATM   12  C   UNL     1      37.719  52.138  42.562  1.00  0.00     0.125 C 
BRANCH  10  13
HETATM   13  N   UNL     1      39.592  54.227  43.950  1.00  0.00    -0.067 N 
HETATM   14  H   UNL     1      40.213  54.060  43.145  1.00  0.00     0.277 HD
HETATM   15  H   UNL     1      38.791  54.740  43.562  1.00  0.00     0.277 HD
BRANCH  13  16
HETATM   16  C   UNL     1      40.342  55.139  44.868  1.00  0.00     0.271 C 
BRANCH  16  17
HETATM   17  C   UNL     1      39.796  56.535  44.767  1.00  0.00    -0.030 A 
HETATM   18  C   UNL     1      40.663  57.621  44.570  1.00  0.00     0.048 A 
HETATM   19  C   UNL     1      40.108  58.877  44.437  1.00  0.00     0.105 A 
HETATM   20  C   UNL     1      38.752  59.082  44.483  1.00  0.00     0.105 A 
HETATM   21  O   UNL     1      40.801  60.030  44.245  1.00  0.00    -0.323 OA
HETATM   22  O   UNL     1      38.420  60.389  44.328  1.00  0.00    -0.323 OA
HETATM   23  C   UNL     1      37.869  58.041  44.668  1.00  0.00     0.040 A 
HETATM   24  C   UNL     1      39.724  60.995  44.211  1.00  0.00     0.352 A 
HETATM   25  C   UNL     1      38.398  56.754  44.811  1.00  0.00     0.012 A 
ENDBRANCH  16  17
ENDBRANCH  13  16
ENDBRANCH  10  13
ENDBRANCH   5   7
BRANCH   2  26
HETATM   26  C   UNL     1      31.532  49.849  42.481  1.00  0.00     0.252 C 
HETATM   27  N   UNL     1      30.590  50.477  41.703  1.00  0.00    -0.344 N 
HETATM   28  H   UNL     1      30.758  51.428  41.403  1.00  0.00     0.163 HD
HETATM   29  O   UNL     1      31.349  48.785  43.062  1.00  0.00    -0.268 OA
BRANCH  27  30
HETATM   30  C   UNL     1      29.286  49.902  41.370  1.00  0.00     0.171 C 
HETATM   31  C   UNL     1      29.346  48.908  40.195  1.00  0.00     0.220 C 
HETATM   32  O   UNL     1      29.624  47.721  40.366  1.00  0.00    -0.278 OA
HETATM   33  N   UNL     1      29.272  49.454  38.932  1.00  0.00    -0.261 NA
HETATM   34  C   UNL     1      28.023  50.054  38.517  1.00  0.00     0.095 C 
HETATM   35  H   UNL     1      30.036  50.123  38.811  1.00  0.00     0.130 HD
HETATM   36  C   UNL     1      27.942  51.547  38.816  1.00  0.00     0.015 C 
HETATM   37  C   UNL     1      28.159  51.990  40.266  1.00  0.00     0.004 C 
HETATM   38  C   UNL     1      28.125  50.906  41.337  1.00  0.00     0.034 C 
ENDBRANCH  27  30
ENDBRANCH   2  26
TORSDOF 6
ENDMDL
MODEL 9
REMARK VINA RESULT:      -8.5     14.345     15.392
REMARK  6 active torsions:
REMARK  status: ('A' for Active; 'I' for Inactive)
REMARK    1  A    between atoms: C_2  and  C_3 
REMARK       I    between atoms: C_3  and  N_4 
REMARK    2  A    between atoms: N_4  and  C_5 
REMARK    3  A    between atoms: C_16  and  N_17 
REMARK    4  A    between atoms: C_20  and  N_21 
REMARK    5  A    between atoms: N_21  and  C_24 
REMARK    6  A    between atoms: C_24  and  C_25 
ROOT
HETATM    1  C   UNL     1      33.357  51.768  43.993  1.00  0.00     0.019 A 
HETATM    2  C   UNL     1      33.224  50.945  42.877  1.00  0.00     0.032 A 
HETATM    3  C   UNL     1      34.341  50.661  42.091  1.00  0.00     0.019 A 
HETATM    4  C   UNL     1      35.593  51.186  42.443  1.00  0.00     0.030 A 
HETATM    5  C   UNL     1      35.758  52.002  43.573  1.00  0.00     0.030 A 
HETATM    6  C   UNL     1      34.608  52.295  44.326  1.00  0.00     0.030 A 
ENDROOT
BRANCH   5   7
HETATM    7  N   UNL     1      37.001  52.459  43.999  1.00  0.00    -0.381 N 
HETATM    8  C   UNL     1      38.094  51.499  44.099  1.00  0.00     0.125 C 
HETATM    9  C   UNL     1      39.371  52.183  43.627  1.00  0.00     0.053 C 
HETATM   10  C   UNL     1      39.621  53.506  44.355  1.00  0.00     0.189 C 
HETATM   11  C   UNL     1      38.388  54.415  44.333  1.00  0.00     0.053 C 
HETATM   12  C   UNL     1      37.109  53.695  44.761  1.00  0.00     0.125 C 
BRANCH  10  13
HETATM   13  N   UNL     1      40.039  53.285  45.786  1.00  0.00    -0.067 N 
HETATM   14  H   UNL     1      39.303  52.751  46.269  1.00  0.00     0.277 HD
HETATM   15  H   UNL     1      40.875  52.692  45.843  1.00  0.00     0.277 HD
BRANCH  13  16
HETATM   16  C   UNL     1      40.268  54.510  46.612  1.00  0.00     0.271 C 
BRANCH  16  17
HETATM   17  C   UNL     1      41.642  54.476  47.217  1.00  0.00    -0.030 A 
HETATM   18  C   UNL     1      42.330  53.258  47.343  1.00  0.00     0.048 A 
HETATM   19  C   UNL     1      43.608  53.286  47.861  1.00  0.00     0.105 A 
HETATM   20  C   UNL     1      44.214  54.458  48.239  1.00  0.00     0.105 A 
HETATM   21  O   UNL     1      44.406  52.203  48.053  1.00  0.00    -0.323 OA
HETATM   22  O   UNL     1      45.469  54.261  48.718  1.00  0.00    -0.323 OA
HETATM   23  C   UNL     1      43.576  55.673  48.124  1.00  0.00     0.040 A 
HETATM   24  C   UNL     1      45.577  52.825  48.631  1.00  0.00     0.352 A 
HETATM   25  C   UNL     1      42.276  55.680  47.606  1.00  0.00     0.012 A 
ENDBRANCH  16  17
ENDBRANCH  13  16
ENDBRANCH  10  13
ENDBRANCH   5   7
BRANCH   2  26
HETATM   26  C   UNL     1      31.909  50.312  42.624  1.00  0.00     0.252 C 
HETATM   27  N   UNL     1      31.027  51.017  41.841  1.00  0.00    -0.344 N 
HETATM   28  H   UNL     1      31.243  51.976  41.603  1.00  0.00     0.163 HD
HETATM   29  O   UNL     1      31.661  49.225  43.134  1.00  0.00    -0.268 OA
BRANCH  27  30
HETATM   30  C   UNL     1      29.722  50.510  41.416  1.00  0.00     0.171 C 
HETATM   31  C   UNL     1      29.800  49.608  40.170  1.00  0.00     0.220 C 
HETATM   32  O   UNL     1      30.037  48.404  40.257  1.00  0.00    -0.278 OA
HETATM   33  N   UNL     1      29.791  50.252  38.951  1.00  0.00    -0.261 NA
HETATM   34  C   UNL     1      28.576  50.921  38.539  1.00  0.00     0.095 C 
HETATM   35  H   UNL     1      30.577  50.905  38.911  1.00  0.00     0.130 HD
HETATM   36  C   UNL     1      28.525  52.388  38.952  1.00  0.00     0.015 C 
HETATM   37  C   UNL     1      28.698  52.712  40.438  1.00  0.00     0.004 C 
HETATM   38  C   UNL     1      28.592  51.549  41.420  1.00  0.00     0.034 C 
ENDBRANCH  27  30
ENDBRANCH   2  26
TORSDOF 6
ENDMDL
MODEL 10
REMARK VINA RESULT:      -8.5     13.405     14.610
REMARK  6 active torsions:
REMARK  status: ('A' for Active; 'I' for Inactive)
REMARK    1  A    between atoms: C_2  and  C_3 
REMARK       I    between atoms: C_3  and  N_4 
REMARK    2  A    between atoms: N_4  and  C_5 
REMARK    3  A    between atoms: C_16  and  N_17 
REMARK    4  A    between atoms: C_20  and  N_21 
REMARK    5  A    between atoms: N_21  and  C_24 
REMARK    6  A    between atoms: C_24  and  C_25 
ROOT
HETATM    1  C   UNL     1      33.652  50.159  42.096  1.00  0.00     0.019 A 
HETATM    2  C   UNL     1      32.544  50.422  42.897  1.00  0.00     0.032 A 
HETATM    3  C   UNL     1      32.647  51.345  43.939  1.00  0.00     0.019 A 
HETATM    4  C   UNL     1      33.859  52.017  44.156  1.00  0.00     0.030 A 
HETATM    5  C   UNL     1      34.985  51.785  43.351  1.00  0.00     0.030 A 
HETATM    6  C   UNL     1      34.857  50.828  42.330  1.00  0.00     0.030 A 
ENDROOT
BRANCH   5   7
HETATM    7  N   UNL     1      36.169  52.505  43.482  1.00  0.00    -0.381 N 
HETATM    8  C   UNL     1      36.928  52.815  42.277  1.00  0.00     0.125 C 
HETATM    9  C   UNL     1      37.491  54.223  42.422  1.00  0.00     0.053 C 
HETATM   10  C   UNL     1      38.271  54.404  43.726  1.00  0.00     0.189 C 
HETATM   11  C   UNL     1      37.470  53.931  44.944  1.00  0.00     0.053 C 
HETATM   12  C   UNL     1      36.872  52.536  44.758  1.00  0.00     0.125 C 
BRANCH  10  13
HETATM   13  N   UNL     1      39.588  53.673  43.694  1.00  0.00    -0.067 N 
HETATM   14  H   UNL     1      39.423  52.703  43.390  1.00  0.00     0.277 HD
HETATM   15  H   UNL     1      40.217  54.068  42.985  1.00  0.00     0.277 HD
BRANCH  13  16
HETATM   16  C   UNL     1      40.331  53.578  44.988  1.00  0.00     0.271 C 
BRANCH  16  17
HETATM   17  C   UNL     1      40.841  52.180  45.190  1.00  0.00    -0.030 A 
HETATM   18  C   UNL     1      40.064  51.079  44.793  1.00  0.00     0.048 A 
HETATM   19  C   UNL     1      40.598  49.818  44.956  1.00  0.00     0.105 A 
HETATM   20  C   UNL     1      41.851  49.620  45.479  1.00  0.00     0.105 A 
HETATM   21  O   UNL     1      39.981  48.652  44.630  1.00  0.00    -0.323 OA
HETATM   22  O   UNL     1      42.181  48.305  45.549  1.00  0.00    -0.323 OA
HETATM   23  C   UNL     1      42.646  50.673  45.872  1.00  0.00     0.040 A 
HETATM   24  C   UNL     1      40.979  47.689  45.041  1.00  0.00     0.352 A 
HETATM   25  C   UNL     1      42.134  51.967  45.725  1.00  0.00     0.012 A 
ENDBRANCH  16  17
ENDBRANCH  13  16
ENDBRANCH  10  13
ENDBRANCH   5   7
BRANCH   2  26
HETATM   26  C   UNL     1      31.254  49.783  42.546  1.00  0.00     0.252 C 
HETATM   27  N   UNL     1      30.394  50.520  41.768  1.00  0.00    -0.344 N 
HETATM   28  H   UNL     1      30.601  51.495  41.600  1.00  0.00     0.163 HD
HETATM   29  O   UNL     1      31.007  48.662  42.976  1.00  0.00    -0.268 OA
BRANCH  27  30
HETATM   30  C   UNL     1      29.120  50.018  41.253  1.00  0.00     0.171 C 
HETATM   31  C   UNL     1      29.282  49.106  40.023  1.00  0.00     0.220 C 
HETATM   32  O   UNL     1      29.504  47.901  40.136  1.00  0.00    -0.278 OA
HETATM   33  N   UNL     1      29.364  49.741  38.803  1.00  0.00    -0.261 NA
HETATM   34  C   UNL     1      28.187  50.414  38.299  1.00  0.00     0.095 C 
HETATM   35  H   UNL     1      30.156  50.389  38.815  1.00  0.00     0.130 HD
HETATM   36  C   UNL     1      28.117  51.884  38.696  1.00  0.00     0.015 C 
HETATM   37  C   UNL     1      28.184  52.218  40.189  1.00  0.00     0.004 C 
HETATM   38  C   UNL     1      27.999  51.063  41.168  1.00  0.00     0.034 C 
ENDBRANCH  27  30
ENDBRANCH   2  26
TORSDOF 6
ENDMDL
