MODEL 1
REMARK VINA RESULT:      -8.8      0.000      0.000
REMARK  8 active torsions:
REMARK  status: ('A' for Active; 'I' for Inactive)
REMARK    1  A    between atoms: C_5  and  O_6 
REMARK    2  A    between atoms: O_6  and  C_7 
REMARK    3  A    between atoms: C_7  and  C_8 
REMARK    4  A    between atoms: C_8  and  C_9 
REMARK    5  A    between atoms: C_9  and  C_10 
REMARK    6  A    between atoms: C_10  and  N_11 
REMARK       I    between atoms: N_11  and  C_12 
REMARK    7  A    between atoms: C_12  and  C_13 
REMARK    8  A    between atoms: C_17  and  C_18 
ROOT
HETATM    1  C   UNL     1      26.097  45.827  53.074  1.00  0.00     0.120 A 
HETATM    2  N   UNL     1      26.036  46.954  53.845  1.00  0.00    -0.272 N 
HETATM    3  H   UNL     1      25.401  47.737  53.726  1.00  0.00     0.189 HD
HETATM    4  N   UNL     1      26.932  46.989  54.842  1.00  0.00    -0.174 NA
HETATM    5  C   UNL     1      27.600  45.830  54.740  1.00  0.00     0.089 A 
HETATM    6  C   UNL     1      27.110  45.075  53.637  1.00  0.00     0.071 A 
ENDROOT
BRANCH   1   7
HETATM    7  C   UNL     1      25.217  45.631  51.956  1.00  0.00     0.270 C 
HETATM    8  N   UNL     1      25.531  46.345  50.829  1.00  0.00    -0.345 N 
HETATM    9  H   UNL     1      26.349  46.935  50.807  1.00  0.00     0.163 HD
HETATM   10  O   UNL     1      24.251  44.874  52.008  1.00  0.00    -0.266 OA
BRANCH   8  11
HETATM   11  C   UNL     1      24.747  46.213  49.631  1.00  0.00     0.217 C 
BRANCH  11  12
HETATM   12  C   UNL     1      23.882  47.452  49.460  1.00  0.00    -0.085 C 
BRANCH  12  13
HETATM   13  C   UNL     1      23.140  48.514  49.314  1.00  0.00    -0.078 C 
BRANCH  13  14
HETATM   14  C   UNL     1      22.275  49.751  49.143  1.00  0.00     0.269 C 
BRANCH  14  15
HETATM   15  O   UNL     1      20.936  49.419  49.498  1.00  0.00    -0.338 OA
BRANCH  15  16
HETATM   16  C   UNL     1      20.007  50.412  49.385  1.00  0.00     0.087 A 
HETATM   17  C   UNL     1      18.864  50.271  50.167  1.00  0.00     0.152 A 
HETATM   18  N   UNL     1      17.834  51.152  50.192  1.00  0.00    -0.270 NA
HETATM   19  C   UNL     1      17.950  52.232  49.395  1.00  0.00     0.116 A 
HETATM   20  C   UNL     1      19.045  52.469  48.578  1.00  0.00     0.022 A 
HETATM   21  C   UNL     1      20.088  51.542  48.576  1.00  0.00     0.040 A 
ENDBRANCH  15  16
ENDBRANCH  14  15
ENDBRANCH  13  14
ENDBRANCH  12  13
ENDBRANCH  11  12
ENDBRANCH   8  11
ENDBRANCH   1   7
BRANCH   5  22
HETATM   22  C   UNL     1      28.675  45.475  55.673  1.00  0.00    -0.003 A 
HETATM   23  C   UNL     1      29.589  44.455  55.361  1.00  0.00     0.053 A 
HETATM   24  C   UNL     1      30.582  44.166  56.276  1.00  0.00     0.106 A 
HETATM   25  C   UNL     1      30.698  44.843  57.466  1.00  0.00     0.105 A 
HETATM   26  O   UNL     1      31.539  43.210  56.128  1.00  0.00    -0.323 OA
HETATM   27  O   UNL     1      31.742  44.401  58.216  1.00  0.00    -0.323 OA
HETATM   28  C   UNL     1      29.823  45.848  57.812  1.00  0.00     0.040 A 
HETATM   29  C   UNL     1      32.268  43.363  57.364  1.00  0.00     0.352 A 
HETATM   30  C   UNL     1      28.803  46.161  56.905  1.00  0.00     0.017 A 
ENDBRANCH   5  22
TORSDOF 8
ENDMDL
MODEL 2
REMARK VINA RESULT:      -8.7      3.241      4.132
REMARK  8 active torsions:
REMARK  status: ('A' for Active; 'I' for Inactive)
REMARK    1  A    between atoms: C_5  and  O_6 
REMARK    2  A    between atoms: O_6  and  C_7 
REMARK    3  A    between atoms: C_7  and  C_8 
REMARK    4  A    between atoms: C_8  and  C_9 
REMARK    5  A    between atoms: C_9  and  C_10 
REMARK    6  A    between atoms: C_10  and  N_11 
REMARK       I    between atoms: N_11  and  C_12 
REMARK    7  A    between atoms: C_12  and  C_13 
REMARK    8  A    between atoms: C_17  and  C_18 
ROOT
HETATM    1  C   UNL     1      26.442  43.867  51.796  1.00  0.00     0.120 A 
HETATM    2  N   UNL     1      27.647  43.707  51.172  1.00  0.00    -0.272 N 
HETATM    3  H   UNL     1      27.802  43.543  50.182  1.00  0.00     0.189 HD
HETATM    4  N   UNL     1      28.706  43.771  51.992  1.00  0.00    -0.174 NA
HETATM    5  C   UNL     1      28.182  44.003  53.206  1.00  0.00     0.089 A 
HETATM    6  C   UNL     1      26.762  44.062  53.125  1.00  0.00     0.071 A 
ENDROOT
BRANCH   1   7
HETATM    7  C   UNL     1      25.205  43.815  51.068  1.00  0.00     0.270 C 
HETATM    8  N   UNL     1      25.327  43.753  49.705  1.00  0.00    -0.345 N 
HETATM    9  H   UNL     1      26.238  43.715  49.273  1.00  0.00     0.163 HD
HETATM   10  O   UNL     1      24.114  43.825  51.632  1.00  0.00    -0.266 OA
BRANCH   8  11
HETATM   11  C   UNL     1      24.164  43.665  48.864  1.00  0.00     0.217 C 
BRANCH  11  12
HETATM   12  C   UNL     1      23.520  45.038  48.755  1.00  0.00    -0.085 C 
BRANCH  12  13
HETATM   13  C   UNL     1      22.967  46.215  48.660  1.00  0.00    -0.078 C 
BRANCH  13  14
HETATM   14  C   UNL     1      22.323  47.587  48.552  1.00  0.00     0.269 C 
BRANCH  14  15
HETATM   15  O   UNL     1      23.008  48.479  49.426  1.00  0.00    -0.338 OA
BRANCH  15  16
HETATM   16  C   UNL     1      24.281  48.823  49.077  1.00  0.00     0.087 A 
HETATM   17  C   UNL     1      24.401  49.792  48.085  1.00  0.00     0.152 A 
HETATM   18  N   UNL     1      25.579  50.263  47.607  1.00  0.00    -0.270 NA
HETATM   19  C   UNL     1      26.697  49.740  48.147  1.00  0.00     0.116 A 
HETATM   20  C   UNL     1      26.689  48.773  49.140  1.00  0.00     0.022 A 
HETATM   21  C   UNL     1      25.460  48.309  49.610  1.00  0.00     0.040 A 
ENDBRANCH  15  16
ENDBRANCH  14  15
ENDBRANCH  13  14
ENDBRANCH  12  13
ENDBRANCH  11  12
ENDBRANCH   8  11
ENDBRANCH   1   7
BRANCH   5  22
HETATM   22  C   UNL     1      29.028  44.153  54.395  1.00  0.00    -0.003 A 
HETATM   23  C   UNL     1      28.801  45.192  55.312  1.00  0.00     0.053 A 
HETATM   24  C   UNL     1      29.627  45.283  56.415  1.00  0.00     0.106 A 
HETATM   25  C   UNL     1      30.651  44.393  56.635  1.00  0.00     0.105 A 
HETATM   26  O   UNL     1      29.542  46.228  57.390  1.00  0.00    -0.323 OA
HETATM   27  O   UNL     1      31.338  44.664  57.776  1.00  0.00    -0.323 OA
HETATM   28  C   UNL     1      30.910  43.362  55.761  1.00  0.00     0.040 A 
HETATM   29  C   UNL     1      30.633  45.830  58.247  1.00  0.00     0.352 A 
HETATM   30  C   UNL     1      30.090  43.247  54.632  1.00  0.00     0.017 A 
ENDBRANCH   5  22
TORSDOF 8
ENDMDL
MODEL 3
REMARK VINA RESULT:      -8.4      2.009      2.582
REMARK  8 active torsions:
REMARK  status: ('A' for Active; 'I' for Inactive)
REMARK    1  A    between atoms: C_5  and  O_6 
REMARK    2  A    between atoms: O_6  and  C_7 
REMARK    3  A    between atoms: C_7  and  C_8 
REMARK    4  A    between atoms: C_8  and  C_9 
REMARK    5  A    between atoms: C_9  and  C_10 
REMARK    6  A    between atoms: C_10  and  N_11 
REMARK       I    between atoms: N_11  and  C_12 
REMARK    7  A    between atoms: C_12  and  C_13 
REMARK    8  A    between atoms: C_17  and  C_18 
ROOT
HETATM    1  C   UNL     1      25.720  43.336  51.555  1.00  0.00     0.120 A 
HETATM    2  N   UNL     1      26.400  42.151  51.586  1.00  0.00    -0.272 N 
HETATM    3  H   UNL     1      26.200  41.322  51.034  1.00  0.00     0.189 HD
HETATM    4  N   UNL     1      27.421  42.123  52.455  1.00  0.00    -0.174 NA
HETATM    5  C   UNL     1      27.430  43.345  53.009  1.00  0.00     0.089 A 
HETATM    6  C   UNL     1      26.372  44.135  52.475  1.00  0.00     0.071 A 
ENDROOT
BRANCH   1   7
HETATM    7  C   UNL     1      24.592  43.536  50.689  1.00  0.00     0.270 C 
HETATM    8  N   UNL     1      24.843  44.264  49.555  1.00  0.00    -0.345 N 
HETATM    9  H   UNL     1      25.775  44.595  49.355  1.00  0.00     0.163 HD
HETATM   10  O   UNL     1      23.480  43.084  50.949  1.00  0.00    -0.266 OA
BRANCH   8  11
HETATM   11  C   UNL     1      23.805  44.507  48.591  1.00  0.00     0.217 C 
BRANCH  11  12
HETATM   12  C   UNL     1      23.283  45.924  48.764  1.00  0.00    -0.085 C 
BRANCH  12  13
HETATM   13  C   UNL     1      22.836  47.140  48.911  1.00  0.00    -0.078 C 
BRANCH  13  14
HETATM   14  C   UNL     1      22.315  48.557  49.083  1.00  0.00     0.269 C 
BRANCH  14  15
HETATM   15  O   UNL     1      20.900  48.504  49.236  1.00  0.00    -0.338 OA
BRANCH  15  16
HETATM   16  C   UNL     1      20.242  49.698  49.275  1.00  0.00     0.087 A 
HETATM   17  C   UNL     1      19.153  49.767  50.139  1.00  0.00     0.152 A 
HETATM   18  N   UNL     1      18.378  50.865  50.316  1.00  0.00    -0.270 NA
HETATM   19  C   UNL     1      18.707  51.953  49.593  1.00  0.00     0.116 A 
HETATM   20  C   UNL     1      19.771  51.992  48.706  1.00  0.00     0.022 A 
HETATM   21  C   UNL     1      20.549  50.844  48.547  1.00  0.00     0.040 A 
ENDBRANCH  15  16
ENDBRANCH  14  15
ENDBRANCH  13  14
ENDBRANCH  12  13
ENDBRANCH  11  12
ENDBRANCH   8  11
ENDBRANCH   1   7
BRANCH   5  22
HETATM   22  C   UNL     1      28.423  43.726  54.019  1.00  0.00    -0.003 A 
HETATM   23  C   UNL     1      28.188  44.807  54.884  1.00  0.00     0.053 A 
HETATM   24  C   UNL     1      29.157  45.119  55.818  1.00  0.00     0.106 A 
HETATM   25  C   UNL     1      30.327  44.405  55.921  1.00  0.00     0.105 A 
HETATM   26  O   UNL     1      29.085  46.133  56.723  1.00  0.00    -0.323 OA
HETATM   27  O   UNL     1      31.139  44.879  56.903  1.00  0.00    -0.323 OA
HETATM   28  C   UNL     1      30.598  43.341  55.092  1.00  0.00     0.040 A 
HETATM   29  C   UNL     1      30.348  45.976  57.405  1.00  0.00     0.352 A 
HETATM   30  C   UNL     1      29.635  43.004  54.133  1.00  0.00     0.017 A 
ENDBRANCH   5  22
TORSDOF 8
ENDMDL
MODEL 4
REMARK VINA RESULT:      -8.2      1.881      2.481
REMARK  8 active torsions:
REMARK  status: ('A' for Active; 'I' for Inactive)
REMARK    1  A    between atoms: C_5  and  O_6 
REMARK    2  A    between atoms: O_6  and  C_7 
REMARK    3  A    between atoms: C_7  and  C_8 
REMARK    4  A    between atoms: C_8  and  C_9 
REMARK    5  A    between atoms: C_9  and  C_10 
REMARK    6  A    between atoms: C_10  and  N_11 
REMARK       I    between atoms: N_11  and  C_12 
REMARK    7  A    between atoms: C_12  and  C_13 
REMARK    8  A    between atoms: C_17  and  C_18 
ROOT
HETATM    1  C   UNL     1      26.657  44.041  51.872  1.00  0.00     0.120 A 
HETATM    2  N   UNL     1      27.792  43.475  51.364  1.00  0.00    -0.272 N 
HETATM    3  H   UNL     1      27.918  43.102  50.428  1.00  0.00     0.189 HD
HETATM    4  N   UNL     1      28.815  43.420  52.228  1.00  0.00    -0.174 NA
HETATM    5  C   UNL     1      28.346  43.990  53.349  1.00  0.00     0.089 A 
HETATM    6  C   UNL     1      26.990  44.386  53.167  1.00  0.00     0.071 A 
ENDROOT
BRANCH   1   7
HETATM    7  C   UNL     1      25.462  44.169  51.086  1.00  0.00     0.270 C 
HETATM    8  N   UNL     1      25.141  45.448  50.711  1.00  0.00    -0.345 N 
HETATM    9  H   UNL     1      25.740  46.221  50.958  1.00  0.00     0.163 HD
HETATM   10  O   UNL     1      24.777  43.200  50.772  1.00  0.00    -0.266 OA
BRANCH   8  11
HETATM   11  C   UNL     1      23.986  45.708  49.894  1.00  0.00     0.217 C 
BRANCH  11  12
HETATM   12  C   UNL     1      23.978  47.174  49.491  1.00  0.00    -0.085 C 
BRANCH  12  13
HETATM   13  C   UNL     1      23.971  48.431  49.146  1.00  0.00    -0.078 C 
BRANCH  13  14
HETATM   14  C   UNL     1      23.963  49.897  48.744  1.00  0.00     0.269 C 
BRANCH  14  15
HETATM   15  O   UNL     1      23.178  50.620  49.687  1.00  0.00    -0.338 OA
BRANCH  15  16
HETATM   16  C   UNL     1      21.853  50.765  49.399  1.00  0.00     0.087 A 
HETATM   17  C   UNL     1      21.500  50.623  48.061  1.00  0.00     0.152 A 
HETATM   18  N   UNL     1      20.236  50.731  47.581  1.00  0.00    -0.270 NA
HETATM   19  C   UNL     1      19.273  50.995  48.485  1.00  0.00     0.116 A 
HETATM   20  C   UNL     1      19.516  51.153  49.841  1.00  0.00     0.022 A 
HETATM   21  C   UNL     1      20.828  51.036  50.302  1.00  0.00     0.040 A 
ENDBRANCH  15  16
ENDBRANCH  14  15
ENDBRANCH  13  14
ENDBRANCH  12  13
ENDBRANCH  11  12
ENDBRANCH   8  11
ENDBRANCH   1   7
BRANCH   5  22
HETATM   22  C   UNL     1      29.179  44.136  54.547  1.00  0.00    -0.003 A 
HETATM   23  C   UNL     1      28.965  45.193  55.446  1.00  0.00     0.053 A 
HETATM   24  C   UNL     1      29.778  45.279  56.559  1.00  0.00     0.106 A 
HETATM   25  C   UNL     1      30.776  44.367  56.806  1.00  0.00     0.105 A 
HETATM   26  O   UNL     1      29.704  46.240  57.519  1.00  0.00    -0.323 OA
HETATM   27  O   UNL     1      31.454  44.637  57.953  1.00  0.00    -0.323 OA
HETATM   28  C   UNL     1      31.021  43.317  55.951  1.00  0.00     0.040 A 
HETATM   29  C   UNL     1      30.773  45.828  58.398  1.00  0.00     0.352 A 
HETATM   30  C   UNL     1      30.214  43.206  54.812  1.00  0.00     0.017 A 
ENDBRANCH   5  22
TORSDOF 8
ENDMDL
MODEL 5
REMARK VINA RESULT:      -8.0      2.579      4.303
REMARK  8 active torsions:
REMARK  status: ('A' for Active; 'I' for Inactive)
REMARK    1  A    between atoms: C_5  and  O_6 
REMARK    2  A    between atoms: O_6  and  C_7 
REMARK    3  A    between atoms: C_7  and  C_8 
REMARK    4  A    between atoms: C_8  and  C_9 
REMARK    5  A    between atoms: C_9  and  C_10 
REMARK    6  A    between atoms: C_10  and  N_11 
REMARK       I    between atoms: N_11  and  C_12 
REMARK    7  A    between atoms: C_12  and  C_13 
REMARK    8  A    between atoms: C_17  and  C_18 
ROOT
HETATM    1  C   UNL     1      24.047  47.307  49.703  1.00  0.00     0.120 A 
HETATM    2  N   UNL     1      23.641  46.017  49.903  1.00  0.00    -0.272 N 
HETATM    3  H   UNL     1      22.905  45.527  49.403  1.00  0.00     0.189 HD
HETATM    4  N   UNL     1      24.306  45.374  50.874  1.00  0.00    -0.174 NA
HETATM    5  C   UNL     1      25.201  46.268  51.323  1.00  0.00     0.089 A 
HETATM    6  C   UNL     1      25.065  47.497  50.617  1.00  0.00     0.071 A 
ENDROOT
BRANCH   1   7
HETATM    7  C   UNL     1      23.434  48.143  48.709  1.00  0.00     0.270 C 
HETATM    8  N   UNL     1      23.704  49.483  48.822  1.00  0.00    -0.345 N 
HETATM    9  H   UNL     1      24.320  49.823  49.544  1.00  0.00     0.163 HD
HETATM   10  O   UNL     1      22.719  47.688  47.821  1.00  0.00    -0.266 OA
BRANCH   8  11
HETATM   11  C   UNL     1      23.177  50.423  47.870  1.00  0.00     0.217 C 
BRANCH  11  12
HETATM   12  C   UNL     1      21.823  50.919  48.354  1.00  0.00    -0.085 C 
BRANCH  12  13
HETATM   13  C   UNL     1      20.663  51.345  48.769  1.00  0.00    -0.078 C 
BRANCH  13  14
HETATM   14  C   UNL     1      19.311  51.840  49.253  1.00  0.00     0.269 C 
BRANCH  14  15
HETATM   15  O   UNL     1      18.716  50.822  50.052  1.00  0.00    -0.338 OA
BRANCH  15  16
HETATM   16  C   UNL     1      17.864  49.965  49.419  1.00  0.00     0.087 A 
HETATM   17  C   UNL     1      18.083  48.610  49.643  1.00  0.00     0.152 A 
HETATM   18  N   UNL     1      17.342  47.610  49.104  1.00  0.00    -0.270 NA
HETATM   19  C   UNL     1      16.328  47.983  48.298  1.00  0.00     0.116 A 
HETATM   20  C   UNL     1      16.024  49.304  48.010  1.00  0.00     0.022 A 
HETATM   21  C   UNL     1      16.806  50.309  48.581  1.00  0.00     0.040 A 
ENDBRANCH  15  16
ENDBRANCH  14  15
ENDBRANCH  13  14
ENDBRANCH  12  13
ENDBRANCH  11  12
ENDBRANCH   8  11
ENDBRANCH   1   7
BRANCH   5  22
HETATM   22  C   UNL     1      26.145  45.941  52.397  1.00  0.00    -0.003 A 
HETATM   23  C   UNL     1      26.339  46.821  53.474  1.00  0.00     0.053 A 
HETATM   24  C   UNL     1      27.238  46.460  54.459  1.00  0.00     0.106 A 
HETATM   25  C   UNL     1      27.936  45.277  54.412  1.00  0.00     0.105 A 
HETATM   26  O   UNL     1      27.542  47.199  55.560  1.00  0.00    -0.323 OA
HETATM   27  O   UNL     1      28.764  45.120  55.477  1.00  0.00    -0.323 OA
HETATM   28  C   UNL     1      27.777  44.387  53.374  1.00  0.00     0.040 A 
HETATM   29  C   UNL     1      28.513  46.343  56.199  1.00  0.00     0.352 A 
HETATM   30  C   UNL     1      26.874  44.728  52.360  1.00  0.00     0.017 A 
ENDBRANCH   5  22
TORSDOF 8
ENDMDL
MODEL 6
REMARK VINA RESULT:      -7.9      3.115     12.403
REMARK  8 active torsions:
REMARK  status: ('A' for Active; 'I' for Inactive)
REMARK    1  A    between atoms: C_5  and  O_6 
REMARK    2  A    between atoms: O_6  and  C_7 
REMARK    3  A    between atoms: C_7  and  C_8 
REMARK    4  A    between atoms: C_8  and  C_9 
REMARK    5  A    between atoms: C_9  and  C_10 
REMARK    6  A    between atoms: C_10  and  N_11 
REMARK       I    between atoms: N_11  and  C_12 
REMARK    7  A    between atoms: C_12  and  C_13 
REMARK    8  A    between atoms: C_17  and  C_18 
ROOT
HETATM    1  C   UNL     1      22.928  49.710  48.616  1.00  0.00     0.120 A 
HETATM    2  N   UNL     1      22.188  48.759  49.259  1.00  0.00    -0.272 N 
HETATM    3  H   UNL     1      22.527  47.882  49.645  1.00  0.00     0.189 HD
HETATM    4  N   UNL     1      20.883  49.050  49.360  1.00  0.00    -0.174 NA
HETATM    5  C   UNL     1      20.757  50.253  48.777  1.00  0.00     0.089 A 
HETATM    6  C   UNL     1      22.019  50.697  48.290  1.00  0.00     0.071 A 
ENDROOT
BRANCH   1   7
HETATM    7  C   UNL     1      24.342  49.552  48.410  1.00  0.00     0.270 C 
HETATM    8  N   UNL     1      24.981  48.750  49.319  1.00  0.00    -0.345 N 
HETATM    9  H   UNL     1      24.463  48.290  50.052  1.00  0.00     0.163 HD
HETATM   10  O   UNL     1      24.933  50.099  47.484  1.00  0.00    -0.266 OA
BRANCH   8  11
HETATM   11  C   UNL     1      26.390  48.487  49.206  1.00  0.00     0.217 C 
BRANCH  11  12
HETATM   12  C   UNL     1      26.658  47.033  49.561  1.00  0.00    -0.085 C 
BRANCH  12  13
HETATM   13  C   UNL     1      26.887  45.786  49.867  1.00  0.00    -0.078 C 
BRANCH  13  14
HETATM   14  C   UNL     1      27.155  44.334  50.222  1.00  0.00     0.269 C 
BRANCH  14  15
HETATM   15  O   UNL     1      26.708  44.104  51.555  1.00  0.00    -0.338 OA
BRANCH  15  16
HETATM   16  C   UNL     1      27.671  44.010  52.517  1.00  0.00     0.087 A 
HETATM   17  C   UNL     1      27.542  44.880  53.596  1.00  0.00     0.152 A 
HETATM   18  N   UNL     1      28.397  44.935  54.647  1.00  0.00    -0.270 NA
HETATM   19  C   UNL     1      29.435  44.077  54.621  1.00  0.00     0.116 A 
HETATM   20  C   UNL     1      29.655  43.170  53.596  1.00  0.00     0.022 A 
HETATM   21  C   UNL     1      28.756  43.139  52.528  1.00  0.00     0.040 A 
ENDBRANCH  15  16
ENDBRANCH  14  15
ENDBRANCH  13  14
ENDBRANCH  12  13
ENDBRANCH  11  12
ENDBRANCH   8  11
ENDBRANCH   1   7
BRANCH   5  22
HETATM   22  C   UNL     1      19.462  50.937  48.692  1.00  0.00    -0.003 A 
HETATM   23  C   UNL     1      18.654  50.804  47.552  1.00  0.00     0.053 A 
HETATM   24  C   UNL     1      17.443  51.469  47.528  1.00  0.00     0.106 A 
HETATM   25  C   UNL     1      17.016  52.245  48.579  1.00  0.00     0.105 A 
HETATM   26  O   UNL     1      16.550  51.447  46.502  1.00  0.00    -0.323 OA
HETATM   27  O   UNL     1      15.801  52.807  48.349  1.00  0.00    -0.323 OA
HETATM   28  C   UNL     1      17.778  52.404  49.714  1.00  0.00     0.040 A 
HETATM   29  C   UNL     1      15.512  52.301  47.030  1.00  0.00     0.352 A 
HETATM   30  C   UNL     1      19.012  51.744  49.765  1.00  0.00     0.017 A 
ENDBRANCH   5  22
TORSDOF 8
ENDMDL
MODEL 7
REMARK VINA RESULT:      -7.9      1.944      2.958
REMARK  8 active torsions:
REMARK  status: ('A' for Active; 'I' for Inactive)
REMARK    1  A    between atoms: C_5  and  O_6 
REMARK    2  A    between atoms: O_6  and  C_7 
REMARK    3  A    between atoms: C_7  and  C_8 
REMARK    4  A    between atoms: C_8  and  C_9 
REMARK    5  A    between atoms: C_9  and  C_10 
REMARK    6  A    between atoms: C_10  and  N_11 
REMARK       I    between atoms: N_11  and  C_12 
REMARK    7  A    between atoms: C_12  and  C_13 
REMARK    8  A    between atoms: C_17  and  C_18 
ROOT
HETATM    1  C   UNL     1      24.665  46.718  50.652  1.00  0.00     0.120 A 
HETATM    2  N   UNL     1      24.242  45.501  51.105  1.00  0.00    -0.272 N 
HETATM    3  H   UNL     1      23.443  44.971  50.769  1.00  0.00     0.189 HD
HETATM    4  N   UNL     1      24.983  44.994  52.101  1.00  0.00    -0.174 NA
HETATM    5  C   UNL     1      25.948  45.905  52.304  1.00  0.00     0.089 A 
HETATM    6  C   UNL     1      25.778  47.007  51.417  1.00  0.00     0.071 A 
ENDROOT
BRANCH   1   7
HETATM    7  C   UNL     1      23.979  47.409  49.596  1.00  0.00     0.270 C 
HETATM    8  N   UNL     1      24.475  48.649  49.286  1.00  0.00    -0.345 N 
HETATM    9  H   UNL     1      25.287  49.010  49.764  1.00  0.00     0.163 HD
HETATM   10  O   UNL     1      23.016  46.920  49.012  1.00  0.00    -0.266 OA
BRANCH   8  11
HETATM   11  C   UNL     1      23.897  49.430  48.226  1.00  0.00     0.217 C 
BRANCH  11  12
HETATM   12  C   UNL     1      22.637  50.111  48.736  1.00  0.00    -0.085 C 
BRANCH  12  13
HETATM   13  C   UNL     1      21.556  50.696  49.172  1.00  0.00    -0.078 C 
BRANCH  13  14
HETATM   14  C   UNL     1      20.297  51.379  49.679  1.00  0.00     0.269 C 
BRANCH  14  15
HETATM   15  O   UNL     1      19.180  50.548  49.377  1.00  0.00    -0.338 OA
BRANCH  15  16
HETATM   16  C   UNL     1      17.956  51.150  49.358  1.00  0.00     0.087 A 
HETATM   17  C   UNL     1      16.947  50.461  48.692  1.00  0.00     0.152 A 
HETATM   18  N   UNL     1      15.669  50.897  48.566  1.00  0.00    -0.270 NA
HETATM   19  C   UNL     1      15.382  52.083  49.136  1.00  0.00     0.116 A 
HETATM   20  C   UNL     1      16.311  52.849  49.823  1.00  0.00     0.022 A 
HETATM   21  C   UNL     1      17.618  52.372  49.934  1.00  0.00     0.040 A 
ENDBRANCH  15  16
ENDBRANCH  14  15
ENDBRANCH  13  14
ENDBRANCH  12  13
ENDBRANCH  11  12
ENDBRANCH   8  11
ENDBRANCH   1   7
BRANCH   5  22
HETATM   22  C   UNL     1      26.987  45.714  53.321  1.00  0.00    -0.003 A 
HETATM   23  C   UNL     1      27.771  44.549  53.338  1.00  0.00     0.053 A 
HETATM   24  C   UNL     1      28.736  44.425  54.318  1.00  0.00     0.106 A 
HETATM   25  C   UNL     1      28.947  45.401  55.262  1.00  0.00     0.105 A 
HETATM   26  O   UNL     1      29.572  43.362  54.473  1.00  0.00    -0.323 OA
HETATM   27  O   UNL     1      29.943  45.078  56.129  1.00  0.00    -0.323 OA
HETATM   28  C   UNL     1      28.201  46.557  55.283  1.00  0.00     0.040 A 
HETATM   29  C   UNL     1      30.332  43.783  55.626  1.00  0.00     0.352 A 
HETATM   30  C   UNL     1      27.212  46.709  54.304  1.00  0.00     0.017 A 
ENDBRANCH   5  22
TORSDOF 8
ENDMDL
MODEL 8
REMARK VINA RESULT:      -7.8      2.244      2.872
REMARK  8 active torsions:
REMARK  status: ('A' for Active; 'I' for Inactive)
REMARK    1  A    between atoms: C_5  and  O_6 
REMARK    2  A    between atoms: O_6  and  C_7 
REMARK    3  A    between atoms: C_7  and  C_8 
REMARK    4  A    between atoms: C_8  and  C_9 
REMARK    5  A    between atoms: C_9  and  C_10 
REMARK    6  A    between atoms: C_10  and  N_11 
REMARK       I    between atoms: N_11  and  C_12 
REMARK    7  A    between atoms: C_12  and  C_13 
REMARK    8  A    between atoms: C_17  and  C_18 
ROOT
HETATM    1  C   UNL     1      25.659  43.621  51.195  1.00  0.00     0.120 A 
HETATM    2  N   UNL     1      26.853  43.719  50.537  1.00  0.00    -0.272 N 
HETATM    3  H   UNL     1      27.007  43.607  49.539  1.00  0.00     0.189 HD
HETATM    4  N   UNL     1      27.900  43.986  51.330  1.00  0.00    -0.174 NA
HETATM    5  C   UNL     1      27.377  44.087  52.562  1.00  0.00     0.089 A 
HETATM    6  C   UNL     1      25.973  43.856  52.520  1.00  0.00     0.071 A 
ENDROOT
BRANCH   1   7
HETATM    7  C   UNL     1      24.437  43.329  50.500  1.00  0.00     0.270 C 
HETATM    8  N   UNL     1      24.514  43.377  49.132  1.00  0.00    -0.345 N 
HETATM    9  H   UNL     1      25.390  43.575  48.674  1.00  0.00     0.163 HD
HETATM   10  O   UNL     1      23.397  43.055  51.092  1.00  0.00    -0.266 OA
BRANCH   8  11
HETATM   11  C   UNL     1      23.367  43.074  48.319  1.00  0.00     0.217 C 
BRANCH  11  12
HETATM   12  C   UNL     1      22.714  44.371  47.871  1.00  0.00    -0.085 C 
BRANCH  12  13
HETATM   13  C   UNL     1      22.153  45.483  47.486  1.00  0.00    -0.078 C 
BRANCH  13  14
HETATM   14  C   UNL     1      21.498  46.779  47.037  1.00  0.00     0.269 C 
BRANCH  14  15
HETATM   15  O   UNL     1      22.374  47.859  47.347  1.00  0.00    -0.338 OA
BRANCH  15  16
HETATM   16  C   UNL     1      21.829  48.920  48.009  1.00  0.00     0.087 A 
HETATM   17  C   UNL     1      20.868  48.614  48.968  1.00  0.00     0.152 A 
HETATM   18  N   UNL     1      20.217  49.530  49.726  1.00  0.00    -0.270 NA
HETATM   19  C   UNL     1      20.542  50.821  49.517  1.00  0.00     0.116 A 
HETATM   20  C   UNL     1      21.485  51.234  48.589  1.00  0.00     0.022 A 
HETATM   21  C   UNL     1      22.137  50.265  47.824  1.00  0.00     0.040 A 
ENDBRANCH  15  16
ENDBRANCH  14  15
ENDBRANCH  13  14
ENDBRANCH  12  13
ENDBRANCH  11  12
ENDBRANCH   8  11
ENDBRANCH   1   7
BRANCH   5  22
HETATM   22  C   UNL     1      28.210  44.388  53.731  1.00  0.00    -0.003 A 
HETATM   23  C   UNL     1      29.239  43.516  54.124  1.00  0.00     0.053 A 
HETATM   24  C   UNL     1      29.993  43.852  55.231  1.00  0.00     0.106 A 
HETATM   25  C   UNL     1      29.765  45.003  55.947  1.00  0.00     0.105 A 
HETATM   26  O   UNL     1      31.018  43.117  55.741  1.00  0.00    -0.323 OA
HETATM   27  O   UNL     1      30.619  45.140  56.996  1.00  0.00    -0.323 OA
HETATM   28  C   UNL     1      28.767  45.884  55.598  1.00  0.00     0.040 A 
HETATM   29  C   UNL     1      31.408  43.939  56.862  1.00  0.00     0.352 A 
HETATM   30  C   UNL     1      27.984  45.567  54.481  1.00  0.00     0.017 A 
ENDBRANCH   5  22
TORSDOF 8
ENDMDL
MODEL 9
REMARK VINA RESULT:      -7.7      3.051      4.535
REMARK  8 active torsions:
REMARK  status: ('A' for Active; 'I' for Inactive)
REMARK    1  A    between atoms: C_5  and  O_6 
REMARK    2  A    between atoms: O_6  and  C_7 
REMARK    3  A    between atoms: C_7  and  C_8 
REMARK    4  A    between atoms: C_8  and  C_9 
REMARK    5  A    between atoms: C_9  and  C_10 
REMARK    6  A    between atoms: C_10  and  N_11 
REMARK       I    between atoms: N_11  and  C_12 
REMARK    7  A    between atoms: C_12  and  C_13 
REMARK    8  A    between atoms: C_17  and  C_18 
ROOT
HETATM    1  C   UNL     1      24.835  47.909  49.702  1.00  0.00     0.120 A 
HETATM    2  N   UNL     1      23.899  46.918  49.792  1.00  0.00    -0.272 N 
HETATM    3  H   UNL     1      22.996  46.891  49.327  1.00  0.00     0.189 HD
HETATM    4  N   UNL     1      24.246  45.902  50.595  1.00  0.00    -0.174 NA
HETATM    5  C   UNL     1      25.471  46.223  51.040  1.00  0.00     0.089 A 
HETATM    6  C   UNL     1      25.873  47.481  50.507  1.00  0.00     0.071 A 
ENDROOT
BRANCH   1   7
HETATM    7  C   UNL     1      24.621  49.077  48.893  1.00  0.00     0.270 C 
HETATM    8  N   UNL     1      23.327  49.525  48.841  1.00  0.00    -0.345 N 
HETATM    9  H   UNL     1      22.603  49.065  49.371  1.00  0.00     0.163 HD
HETATM   10  O   UNL     1      25.535  49.633  48.292  1.00  0.00    -0.266 OA
BRANCH   8  11
HETATM   11  C   UNL     1      22.986  50.704  48.092  1.00  0.00     0.217 C 
BRANCH  11  12
HETATM   12  C   UNL     1      21.585  51.153  48.475  1.00  0.00    -0.085 C 
BRANCH  12  13
HETATM   13  C   UNL     1      20.383  51.537  48.805  1.00  0.00    -0.078 C 
BRANCH  13  14
HETATM   14  C   UNL     1      18.983  51.985  49.189  1.00  0.00     0.269 C 
BRANCH  14  15
HETATM   15  O   UNL     1      18.388  50.970  49.993  1.00  0.00    -0.338 OA
BRANCH  15  16
HETATM   16  C   UNL     1      17.644  50.030  49.342  1.00  0.00     0.087 A 
HETATM   17  C   UNL     1      18.020  48.706  49.543  1.00  0.00     0.152 A 
HETATM   18  N   UNL     1      17.403  47.636  48.984  1.00  0.00    -0.270 NA
HETATM   19  C   UNL     1      16.353  47.901  48.182  1.00  0.00     0.116 A 
HETATM   20  C   UNL     1      15.896  49.182  47.916  1.00  0.00     0.022 A 
HETATM   21  C   UNL     1      16.554  50.262  48.507  1.00  0.00     0.040 A 
ENDBRANCH  15  16
ENDBRANCH  14  15
ENDBRANCH  13  14
ENDBRANCH  12  13
ENDBRANCH  11  12
ENDBRANCH   8  11
ENDBRANCH   1   7
BRANCH   5  22
HETATM   22  C   UNL     1      26.215  45.347  51.950  1.00  0.00    -0.003 A 
HETATM   23  C   UNL     1      26.524  44.026  51.584  1.00  0.00     0.053 A 
HETATM   24  C   UNL     1      27.229  43.248  52.481  1.00  0.00     0.106 A 
HETATM   25  C   UNL     1      27.632  43.727  53.704  1.00  0.00     0.105 A 
HETATM   26  O   UNL     1      27.602  41.955  52.281  1.00  0.00    -0.323 OA
HETATM   27  O   UNL     1      28.311  42.798  54.428  1.00  0.00    -0.323 OA
HETATM   28  C   UNL     1      27.350  45.013  54.103  1.00  0.00     0.040 A 
HETATM   29  C   UNL     1      28.285  41.676  53.522  1.00  0.00     0.352 A 
HETATM   30  C   UNL     1      26.632  45.825  53.216  1.00  0.00     0.017 A 
ENDBRANCH   5  22
TORSDOF 8
ENDMDL
MODEL 10
REMARK VINA RESULT:      -7.7      1.994      3.109
REMARK  8 active torsions:
REMARK  status: ('A' for Active; 'I' for Inactive)
REMARK    1  A    between atoms: C_5  and  O_6 
REMARK    2  A    between atoms: O_6  and  C_7 
REMARK    3  A    between atoms: C_7  and  C_8 
REMARK    4  A    between atoms: C_8  and  C_9 
REMARK    5  A    between atoms: C_9  and  C_10 
REMARK    6  A    between atoms: C_10  and  N_11 
REMARK       I    between atoms: N_11  and  C_12 
REMARK    7  A    between atoms: C_12  and  C_13 
REMARK    8  A    between atoms: C_17  and  C_18 
ROOT
HETATM    1  C   UNL     1      25.063  46.751  50.824  1.00  0.00     0.120 A 
HETATM    2  N   UNL     1      24.414  45.675  51.361  1.00  0.00    -0.272 N 
HETATM    3  H   UNL     1      23.496  45.327  51.100  1.00  0.00     0.189 HD
HETATM    4  N   UNL     1      25.093  45.049  52.333  1.00  0.00    -0.174 NA
HETATM    5  C   UNL     1      26.247  45.727  52.432  1.00  0.00     0.089 A 
HETATM    6  C   UNL     1      26.263  46.808  51.505  1.00  0.00     0.071 A 
ENDROOT
BRANCH   1   7
HETATM    7  C   UNL     1      24.474  47.542  49.780  1.00  0.00     0.270 C 
HETATM    8  N   UNL     1      23.237  47.129  49.357  1.00  0.00    -0.345 N 
HETATM    9  H   UNL     1      22.784  46.339  49.791  1.00  0.00     0.163 HD
HETATM   10  O   UNL     1      25.040  48.520  49.301  1.00  0.00    -0.266 OA
BRANCH   8  11
HETATM   11  C   UNL     1      22.527  47.854  48.339  1.00  0.00     0.217 C 
BRANCH  11  12
HETATM   12  C   UNL     1      21.031  47.694  48.561  1.00  0.00    -0.085 C 
BRANCH  12  13
HETATM   13  C   UNL     1      19.749  47.557  48.753  1.00  0.00    -0.078 C 
BRANCH  13  14
HETATM   14  C   UNL     1      18.254  47.398  48.975  1.00  0.00     0.269 C 
BRANCH  14  15
HETATM   15  O   UNL     1      17.834  48.367  49.931  1.00  0.00    -0.338 OA
BRANCH  15  16
HETATM   16  C   UNL     1      18.011  49.677  49.595  1.00  0.00     0.087 A 
HETATM   17  C   UNL     1      17.240  50.145  48.535  1.00  0.00     0.152 A 
HETATM   18  N   UNL     1      17.275  51.414  48.058  1.00  0.00    -0.270 NA
HETATM   19  C   UNL     1      18.124  52.261  48.671  1.00  0.00     0.116 A 
HETATM   20  C   UNL     1      18.935  51.898  49.735  1.00  0.00     0.022 A 
HETATM   21  C   UNL     1      18.875  50.584  50.202  1.00  0.00     0.040 A 
ENDBRANCH  15  16
ENDBRANCH  14  15
ENDBRANCH  13  14
ENDBRANCH  12  13
ENDBRANCH  11  12
ENDBRANCH   8  11
ENDBRANCH   1   7
BRANCH   5  22
HETATM   22  C   UNL     1      27.288  45.342  53.391  1.00  0.00    -0.003 A 
HETATM   23  C   UNL     1      27.556  46.138  54.517  1.00  0.00     0.053 A 
HETATM   24  C   UNL     1      28.545  45.725  55.388  1.00  0.00     0.106 A 
HETATM   25  C   UNL     1      29.261  44.570  55.185  1.00  0.00     0.105 A 
HETATM   26  O   UNL     1      28.927  46.381  56.517  1.00  0.00    -0.323 OA
HETATM   27  O   UNL     1      30.183  44.352  56.159  1.00  0.00    -0.323 OA
HETATM   28  C   UNL     1      29.032  43.762  54.094  1.00  0.00     0.040 A 
HETATM   29  C   UNL     1      29.969  45.505  56.999  1.00  0.00     0.352 A 
HETATM   30  C   UNL     1      28.037  44.158  53.192  1.00  0.00     0.017 A 
ENDBRANCH   5  22
TORSDOF 8
ENDMDL
