MODEL 1
REMARK VINA RESULT:     -10.0      0.000      0.000
REMARK  6 active torsions:
REMARK  status: ('A' for Active; 'I' for Inactive)
REMARK    1  A    between atoms: C_3  and  C_4 
REMARK    2  A    between atoms: C_4  and  C_5 
REMARK    3  A    between atoms: N_8  and  C_10 
REMARK    4  A    between atoms: C_10  and  C_11 
REMARK    5  A    between atoms: N_24  and  C_25 
REMARK    6  A    between atoms: C_25  and  C_26 
ROOT
HETATM    1  C   UNL     1      25.676  44.453  51.697  1.00  0.00     0.164 C 
HETATM    2  N   UNL     1      26.611  45.475  51.253  1.00  0.00    -0.319 N 
HETATM    3  C   UNL     1      26.067  46.273  50.270  1.00  0.00     0.326 C 
HETATM    4  O   UNL     1      26.731  47.072  49.634  1.00  0.00    -0.247 OA
HETATM    5  N   UNL     1      24.749  45.984  50.139  1.00  0.00    -0.265 N 
HETATM    6  C   UNL     1      24.463  44.830  50.814  1.00  0.00     0.263 C 
HETATM    7  O   UNL     1      23.412  44.204  50.765  1.00  0.00    -0.270 OA
HETATM    8  H   UNL     1      27.581  45.216  51.087  1.00  0.00     0.166 HD
ENDROOT
BRANCH   1   9
HETATM    9  C   UNL     1      26.253  43.081  51.363  1.00  0.00     0.072 A 
HETATM   10  C   UNL     1      27.618  42.808  51.366  1.00  0.00     0.030 A 
HETATM   11  C   UNL     1      28.049  41.523  51.045  1.00  0.00     0.003 A 
HETATM   12  C   UNL     1      27.118  40.546  50.717  1.00  0.00     0.019 A 
HETATM   13  C   UNL     1      25.782  40.896  50.707  1.00  0.00     0.117 A 
HETATM   14  N   UNL     1      25.329  42.137  51.001  1.00  0.00    -0.262 NA
ENDBRANCH   1   9
BRANCH   1  15
HETATM   15  C   UNL     1      25.298  44.616  53.212  1.00  0.00     0.033 C 
HETATM   16  C   UNL     1      25.423  46.057  53.757  1.00  0.00     0.036 C 
HETATM   17  C   UNL     1      26.855  46.529  54.006  1.00  0.00     0.235 C 
HETATM   18  N   UNL     1      27.634  45.529  54.829  1.00  0.00    -0.067 N 
HETATM   19  H   UNL     1      27.261  45.578  55.788  1.00  0.00     0.280 HD
HETATM   20  C   UNL     1      27.515  44.097  54.356  1.00  0.00     0.235 C 
HETATM   21  C   UNL     1      26.060  43.704  54.191  1.00  0.00     0.036 C 
BRANCH  18  22
HETATM   22  C   UNL     1      29.117  45.886  54.935  1.00  0.00     0.278 C 
BRANCH  22  23
HETATM   23  C   UNL     1      29.936  45.088  55.904  1.00  0.00     0.028 A 
HETATM   24  C   UNL     1      30.629  43.923  55.556  1.00  0.00     0.045 A 
HETATM   25 CL   UNL     1      30.542  43.286  53.954  1.00  0.00    -0.084 Cl
HETATM   26  C   UNL     1      31.392  43.237  56.506  1.00  0.00     0.024 A 
HETATM   27  C   UNL     1      31.476  43.708  57.816  1.00  0.00     0.005 A 
HETATM   28  C   UNL     1      30.795  44.867  58.177  1.00  0.00     0.043 A 
HETATM   29  C   UNL     1      30.039  45.540  57.225  1.00  0.00     0.126 A 
HETATM   30  F   UNL     1      29.387  46.652  57.591  1.00  0.00    -0.205 F 
ENDBRANCH  22  23
ENDBRANCH  18  22
ENDBRANCH   1  15
BRANCH   5  31
HETATM   31  C   UNL     1      23.877  46.645  49.179  1.00  0.00     0.168 C 
BRANCH  31  32
HETATM   32  C   UNL     1      23.563  48.101  49.534  1.00  0.00     0.140 C 
HETATM   33  O   UNL     1      24.425  49.006  48.815  1.00  0.00    -0.384 OA
HETATM   34  C   UNL     1      23.733  50.263  48.812  1.00  0.00     0.168 C 
HETATM   35  C   UNL     1      22.282  49.905  48.582  1.00  0.00     0.029 C 
HETATM   36  C   UNL     1      22.140  48.517  49.176  1.00  0.00     0.036 C 
ENDBRANCH  31  32
ENDBRANCH   5  31
TORSDOF 6
ENDMDL
MODEL 2
REMARK VINA RESULT:      -9.4      3.110      7.698
REMARK  6 active torsions:
REMARK  status: ('A' for Active; 'I' for Inactive)
REMARK    1  A    between atoms: C_3  and  C_4 
REMARK    2  A    between atoms: C_4  and  C_5 
REMARK    3  A    between atoms: N_8  and  C_10 
REMARK    4  A    between atoms: C_10  and  C_11 
REMARK    5  A    between atoms: N_24  and  C_25 
REMARK    6  A    between atoms: C_25  and  C_26 
ROOT
HETATM    1  C   UNL     1      27.505  44.771  54.264  1.00  0.00     0.164 C 
HETATM    2  N   UNL     1      28.248  44.961  53.028  1.00  0.00    -0.319 N 
HETATM    3  C   UNL     1      28.414  43.776  52.344  1.00  0.00     0.326 C 
HETATM    4  O   UNL     1      29.153  43.674  51.381  1.00  0.00    -0.247 OA
HETATM    5  N   UNL     1      27.671  42.810  52.938  1.00  0.00    -0.265 N 
HETATM    6  C   UNL     1      27.232  43.253  54.155  1.00  0.00     0.263 C 
HETATM    7  O   UNL     1      26.679  42.578  55.013  1.00  0.00    -0.270 OA
HETATM    8  H   UNL     1      29.075  45.554  53.037  1.00  0.00     0.166 HD
ENDROOT
BRANCH   1   9
HETATM    9  C   UNL     1      28.408  45.131  55.440  1.00  0.00     0.072 A 
HETATM   10  C   UNL     1      28.016  45.985  56.466  1.00  0.00     0.030 A 
HETATM   11  C   UNL     1      28.912  46.256  57.497  1.00  0.00     0.003 A 
HETATM   12  C   UNL     1      30.177  45.684  57.478  1.00  0.00     0.019 A 
HETATM   13  C   UNL     1      30.508  44.869  56.413  1.00  0.00     0.117 A 
HETATM   14  N   UNL     1      29.667  44.595  55.389  1.00  0.00    -0.262 NA
ENDBRANCH   1   9
BRANCH   1  15
HETATM   15  C   UNL     1      26.145  45.555  54.263  1.00  0.00     0.033 C 
HETATM   16  C   UNL     1      25.031  44.912  53.406  1.00  0.00     0.036 C 
HETATM   17  C   UNL     1      25.197  45.087  51.897  1.00  0.00     0.235 C 
HETATM   18  N   UNL     1      25.449  46.531  51.529  1.00  0.00    -0.067 N 
HETATM   19  H   UNL     1      24.560  47.033  51.671  1.00  0.00     0.280 HD
HETATM   20  C   UNL     1      26.508  47.216  52.365  1.00  0.00     0.235 C 
HETATM   21  C   UNL     1      26.228  47.034  53.844  1.00  0.00     0.036 C 
BRANCH  18  22
HETATM   22  C   UNL     1      25.802  46.707  50.053  1.00  0.00     0.278 C 
BRANCH  22  23
HETATM   23  C   UNL     1      25.301  47.949  49.381  1.00  0.00     0.028 A 
HETATM   24  C   UNL     1      26.137  48.973  48.921  1.00  0.00     0.045 A 
HETATM   25 CL   UNL     1      27.846  48.889  49.148  1.00  0.00    -0.084 Cl
HETATM   26  C   UNL     1      25.604  50.098  48.285  1.00  0.00     0.024 A 
HETATM   27  C   UNL     1      24.226  50.213  48.096  1.00  0.00     0.005 A 
HETATM   28  C   UNL     1      23.381  49.203  48.545  1.00  0.00     0.043 A 
HETATM   29  C   UNL     1      23.923  48.090  49.177  1.00  0.00     0.126 A 
HETATM   30  F   UNL     1      23.095  47.129  49.607  1.00  0.00    -0.205 F 
ENDBRANCH  22  23
ENDBRANCH  18  22
ENDBRANCH   1  15
BRANCH   5  31
HETATM   31  C   UNL     1      27.626  41.433  52.467  1.00  0.00     0.168 C 
BRANCH  31  32
HETATM   32  C   UNL     1      27.303  41.304  50.976  1.00  0.00     0.140 C 
HETATM   33  O   UNL     1      28.408  40.720  50.256  1.00  0.00    -0.384 OA
HETATM   34  C   UNL     1      27.835  40.184  49.055  1.00  0.00     0.168 C 
HETATM   35  C   UNL     1      26.521  39.576  49.491  1.00  0.00     0.029 C 
HETATM   36  C   UNL     1      26.106  40.402  50.692  1.00  0.00     0.036 C 
ENDBRANCH  31  32
ENDBRANCH   5  31
TORSDOF 6
ENDMDL
MODEL 3
REMARK VINA RESULT:      -9.4     12.410     14.004
REMARK  6 active torsions:
REMARK  status: ('A' for Active; 'I' for Inactive)
REMARK    1  A    between atoms: C_3  and  C_4 
REMARK    2  A    between atoms: C_4  and  C_5 
REMARK    3  A    between atoms: N_8  and  C_10 
REMARK    4  A    between atoms: C_10  and  C_11 
REMARK    5  A    between atoms: N_24  and  C_25 
REMARK    6  A    between atoms: C_25  and  C_26 
ROOT
HETATM    1  C   UNL     1      28.476  49.641  39.339  1.00  0.00     0.164 C 
HETATM    2  N   UNL     1      28.104  48.691  40.376  1.00  0.00    -0.319 N 
HETATM    3  C   UNL     1      26.799  48.271  40.240  1.00  0.00     0.326 C 
HETATM    4  O   UNL     1      26.229  47.618  41.095  1.00  0.00    -0.247 OA
HETATM    5  N   UNL     1      26.303  48.730  39.064  1.00  0.00    -0.265 N 
HETATM    6  C   UNL     1      27.150  49.668  38.544  1.00  0.00     0.263 C 
HETATM    7  O   UNL     1      26.925  50.394  37.585  1.00  0.00    -0.270 OA
HETATM    8  H   UNL     1      28.382  48.877  41.337  1.00  0.00     0.166 HD
ENDROOT
BRANCH   1   9
HETATM    9  C   UNL     1      28.807  50.979  39.994  1.00  0.00     0.072 A 
HETATM   10  C   UNL     1      28.963  51.135  41.368  1.00  0.00     0.030 A 
HETATM   11  C   UNL     1      29.262  52.398  41.873  1.00  0.00     0.003 A 
HETATM   12  C   UNL     1      29.385  53.475  41.005  1.00  0.00     0.019 A 
HETATM   13  C   UNL     1      29.188  53.251  39.656  1.00  0.00     0.117 A 
HETATM   14  N   UNL     1      28.883  52.041  39.133  1.00  0.00    -0.262 NA
ENDBRANCH   1   9
BRANCH   1  15
HETATM   15  C   UNL     1      29.631  49.096  38.424  1.00  0.00     0.033 C 
HETATM   16  C   UNL     1      29.999  47.615  38.664  1.00  0.00     0.036 C 
HETATM   17  C   UNL     1      30.806  47.350  39.935  1.00  0.00     0.235 C 
HETATM   18  N   UNL     1      32.003  48.267  40.035  1.00  0.00    -0.067 N 
HETATM   19  H   UNL     1      32.679  47.952  39.325  1.00  0.00     0.280 HD
HETATM   20  C   UNL     1      31.699  49.726  39.772  1.00  0.00     0.235 C 
HETATM   21  C   UNL     1      30.947  49.893  38.467  1.00  0.00     0.036 C 
BRANCH  18  22
HETATM   22  C   UNL     1      32.719  48.153  41.381  1.00  0.00     0.278 C 
BRANCH  22  23
HETATM   23  C   UNL     1      32.934  49.425  42.142  1.00  0.00     0.028 A 
HETATM   24  C   UNL     1      34.061  50.241  41.986  1.00  0.00     0.045 A 
HETATM   25 CL   UNL     1      35.335  49.793  40.910  1.00  0.00    -0.084 Cl
HETATM   26  C   UNL     1      34.190  51.426  42.714  1.00  0.00     0.024 A 
HETATM   27  C   UNL     1      33.192  51.817  43.608  1.00  0.00     0.005 A 
HETATM   28  C   UNL     1      32.063  51.018  43.773  1.00  0.00     0.043 A 
HETATM   29  C   UNL     1      31.947  49.841  43.043  1.00  0.00     0.126 A 
HETATM   30  F   UNL     1      30.856  49.083  43.217  1.00  0.00    -0.205 F 
ENDBRANCH  22  23
ENDBRANCH  18  22
ENDBRANCH   1  15
BRANCH   5  31
HETATM   31  C   UNL     1      24.943  48.471  38.615  1.00  0.00     0.168 C 
BRANCH  31  32
HETATM   32  C   UNL     1      23.897  49.383  39.263  1.00  0.00     0.140 C 
HETATM   33  O   UNL     1      23.210  50.170  38.268  1.00  0.00    -0.384 OA
HETATM   34  C   UNL     1      21.974  50.559  38.883  1.00  0.00     0.168 C 
HETATM   35  C   UNL     1      21.520  49.335  39.646  1.00  0.00     0.029 C 
HETATM   36  C   UNL     1      22.806  48.619  40.007  1.00  0.00     0.036 C 
ENDBRANCH  31  32
ENDBRANCH   5  31
TORSDOF 6
ENDMDL
MODEL 4
REMARK VINA RESULT:      -9.3      2.091      3.032
REMARK  6 active torsions:
REMARK  status: ('A' for Active; 'I' for Inactive)
REMARK    1  A    between atoms: C_3  and  C_4 
REMARK    2  A    between atoms: C_4  and  C_5 
REMARK    3  A    between atoms: N_8  and  C_10 
REMARK    4  A    between atoms: C_10  and  C_11 
REMARK    5  A    between atoms: N_24  and  C_25 
REMARK    6  A    between atoms: C_25  and  C_26 
ROOT
HETATM    1  C   UNL     1      26.878  42.195  50.853  1.00  0.00     0.164 C 
HETATM    2  N   UNL     1      27.776  43.314  50.618  1.00  0.00    -0.319 N 
HETATM    3  C   UNL     1      27.100  44.514  50.588  1.00  0.00     0.326 C 
HETATM    4  O   UNL     1      27.626  45.553  50.231  1.00  0.00    -0.247 OA
HETATM    5  N   UNL     1      25.815  44.312  50.973  1.00  0.00    -0.265 N 
HETATM    6  C   UNL     1      25.548  42.972  50.995  1.00  0.00     0.263 C 
HETATM    7  O   UNL     1      24.448  42.456  51.138  1.00  0.00    -0.270 OA
HETATM    8  H   UNL     1      28.496  43.226  49.904  1.00  0.00     0.166 HD
ENDROOT
BRANCH   1   9
HETATM    9  C   UNL     1      26.905  41.278  49.633  1.00  0.00     0.072 A 
HETATM   10  C   UNL     1      26.309  40.020  49.613  1.00  0.00     0.030 A 
HETATM   11  C   UNL     1      26.389  39.255  48.452  1.00  0.00     0.003 A 
HETATM   12  C   UNL     1      27.068  39.751  47.346  1.00  0.00     0.019 A 
HETATM   13  C   UNL     1      27.659  40.995  47.447  1.00  0.00     0.117 A 
HETATM   14  N   UNL     1      27.613  41.759  48.563  1.00  0.00    -0.262 NA
ENDBRANCH   1   9
BRANCH   1  15
HETATM   15  C   UNL     1      27.201  41.449  52.196  1.00  0.00     0.033 C 
HETATM   16  C   UNL     1      26.654  42.140  53.465  1.00  0.00     0.036 C 
HETATM   17  C   UNL     1      27.427  43.384  53.904  1.00  0.00     0.235 C 
HETATM   18  N   UNL     1      28.912  43.114  53.986  1.00  0.00    -0.067 N 
HETATM   19  H   UNL     1      29.061  42.512  54.809  1.00  0.00     0.280 HD
HETATM   20  C   UNL     1      29.489  42.405  52.781  1.00  0.00     0.235 C 
HETATM   21  C   UNL     1      28.690  41.158  52.456  1.00  0.00     0.036 C 
BRANCH  18  22
HETATM   22  C   UNL     1      29.725  44.383  54.241  1.00  0.00     0.278 C 
BRANCH  22  23
HETATM   23  C   UNL     1      30.030  44.715  55.670  1.00  0.00     0.028 A 
HETATM   24  C   UNL     1      29.406  45.750  56.376  1.00  0.00     0.045 A 
HETATM   25 CL   UNL     1      28.246  46.771  55.607  1.00  0.00    -0.084 Cl
HETATM   26  C   UNL     1      29.724  45.993  57.715  1.00  0.00     0.024 A 
HETATM   27  C   UNL     1      30.668  45.202  58.370  1.00  0.00     0.005 A 
HETATM   28  C   UNL     1      31.296  44.167  57.683  1.00  0.00     0.043 A 
HETATM   29  C   UNL     1      30.972  43.935  56.352  1.00  0.00     0.126 A 
HETATM   30  F   UNL     1      31.590  42.938  55.705  1.00  0.00    -0.205 F 
ENDBRANCH  22  23
ENDBRANCH  18  22
ENDBRANCH   1  15
BRANCH   5  31
HETATM   31  C   UNL     1      24.826  45.378  51.045  1.00  0.00     0.168 C 
BRANCH  31  32
HETATM   32  C   UNL     1      24.355  45.873  49.674  1.00  0.00     0.140 C 
HETATM   33  O   UNL     1      23.169  45.170  49.250  1.00  0.00    -0.384 OA
HETATM   34  C   UNL     1      22.550  46.027  48.279  1.00  0.00     0.168 C 
HETATM   35  C   UNL     1      22.714  47.423  48.835  1.00  0.00     0.029 C 
HETATM   36  C   UNL     1      23.983  47.352  49.660  1.00  0.00     0.036 C 
ENDBRANCH  31  32
ENDBRANCH   5  31
TORSDOF 6
ENDMDL
MODEL 5
REMARK VINA RESULT:      -9.2      2.190      2.811
REMARK  6 active torsions:
REMARK  status: ('A' for Active; 'I' for Inactive)
REMARK    1  A    between atoms: C_3  and  C_4 
REMARK    2  A    between atoms: C_4  and  C_5 
REMARK    3  A    between atoms: N_8  and  C_10 
REMARK    4  A    between atoms: C_10  and  C_11 
REMARK    5  A    between atoms: N_24  and  C_25 
REMARK    6  A    between atoms: C_25  and  C_26 
ROOT
HETATM    1  C   UNL     1      25.696  43.695  50.435  1.00  0.00     0.164 C 
HETATM    2  N   UNL     1      27.038  44.054  50.004  1.00  0.00    -0.319 N 
HETATM    3  C   UNL     1      27.212  45.420  49.957  1.00  0.00     0.326 C 
HETATM    4  O   UNL     1      28.193  45.939  49.457  1.00  0.00    -0.247 OA
HETATM    5  N   UNL     1      26.131  46.026  50.508  1.00  0.00    -0.265 N 
HETATM    6  C   UNL     1      25.126  45.113  50.671  1.00  0.00     0.263 C 
HETATM    7  O   UNL     1      23.969  45.359  50.986  1.00  0.00    -0.270 OA
HETATM    8  H   UNL     1      27.453  43.556  49.219  1.00  0.00     0.166 HD
ENDROOT
BRANCH   1   9
HETATM    9  C   UNL     1      24.997  42.953  49.299  1.00  0.00     0.072 A 
HETATM   10  C   UNL     1      25.517  41.807  48.706  1.00  0.00     0.030 A 
HETATM   11  C   UNL     1      24.806  41.201  47.673  1.00  0.00     0.003 A 
HETATM   12  C   UNL     1      23.606  41.754  47.246  1.00  0.00     0.019 A 
HETATM   13  C   UNL     1      23.165  42.909  47.861  1.00  0.00     0.117 A 
HETATM   14  N   UNL     1      23.837  43.532  48.858  1.00  0.00    -0.262 NA
ENDBRANCH   1   9
BRANCH   1  15
HETATM   15  C   UNL     1      25.702  42.896  51.787  1.00  0.00     0.033 C 
HETATM   16  C   UNL     1      25.428  43.752  53.043  1.00  0.00     0.036 C 
HETATM   17  C   UNL     1      26.596  44.630  53.492  1.00  0.00     0.235 C 
HETATM   18  N   UNL     1      27.878  43.837  53.601  1.00  0.00    -0.067 N 
HETATM   19  H   UNL     1      27.782  43.230  54.428  1.00  0.00     0.280 HD
HETATM   20  C   UNL     1      28.173  42.953  52.409  1.00  0.00     0.235 C 
HETATM   21  C   UNL     1      26.978  42.083  52.074  1.00  0.00     0.036 C 
BRANCH  18  22
HETATM   22  C   UNL     1      29.095  44.722  53.866  1.00  0.00     0.278 C 
BRANCH  22  23
HETATM   23  C   UNL     1      29.734  44.607  55.217  1.00  0.00     0.028 A 
HETATM   24  C   UNL     1      29.428  45.448  56.292  1.00  0.00     0.045 A 
HETATM   25 CL   UNL     1      28.300  46.742  56.111  1.00  0.00    -0.084 Cl
HETATM   26  C   UNL     1      30.048  45.273  57.533  1.00  0.00     0.024 A 
HETATM   27  C   UNL     1      30.979  44.251  57.718  1.00  0.00     0.005 A 
HETATM   28  C   UNL     1      31.291  43.403  56.659  1.00  0.00     0.043 A 
HETATM   29  C   UNL     1      30.669  43.587  55.430  1.00  0.00     0.126 A 
HETATM   30  F   UNL     1      30.985  42.765  54.420  1.00  0.00    -0.205 F 
ENDBRANCH  22  23
ENDBRANCH  18  22
ENDBRANCH   1  15
BRANCH   5  31
HETATM   31  C   UNL     1      25.991  47.472  50.610  1.00  0.00     0.168 C 
BRANCH  31  32
HETATM   32  C   UNL     1      25.640  48.150  49.283  1.00  0.00     0.140 C 
HETATM   33  O   UNL     1      24.505  49.028  49.435  1.00  0.00    -0.384 OA
HETATM   34  C   UNL     1      24.596  49.954  48.343  1.00  0.00     0.168 C 
HETATM   35  C   UNL     1      26.069  50.272  48.228  1.00  0.00     0.029 C 
HETATM   36  C   UNL     1      26.764  49.024  48.735  1.00  0.00     0.036 C 
ENDBRANCH  31  32
ENDBRANCH   5  31
TORSDOF 6
ENDMDL
MODEL 6
REMARK VINA RESULT:      -9.1      2.132      5.610
REMARK  6 active torsions:
REMARK  status: ('A' for Active; 'I' for Inactive)
REMARK    1  A    between atoms: C_3  and  C_4 
REMARK    2  A    between atoms: C_4  and  C_5 
REMARK    3  A    between atoms: N_8  and  C_10 
REMARK    4  A    between atoms: C_10  and  C_11 
REMARK    5  A    between atoms: N_24  and  C_25 
REMARK    6  A    between atoms: C_25  and  C_26 
ROOT
HETATM    1  C   UNL     1      23.834  45.169  49.329  1.00  0.00     0.164 C 
HETATM    2  N   UNL     1      23.444  44.450  50.532  1.00  0.00    -0.319 N 
HETATM    3  C   UNL     1      23.320  43.097  50.301  1.00  0.00     0.326 C 
HETATM    4  O   UNL     1      22.834  42.336  51.118  1.00  0.00    -0.247 OA
HETATM    5  N   UNL     1      23.781  42.813  49.058  1.00  0.00    -0.265 N 
HETATM    6  C   UNL     1      23.954  43.973  48.356  1.00  0.00     0.263 C 
HETATM    7  O   UNL     1      24.199  44.065  47.160  1.00  0.00    -0.270 OA
HETATM    8  H   UNL     1      22.712  44.839  51.122  1.00  0.00     0.166 HD
ENDROOT
BRANCH   1   9
HETATM    9  C   UNL     1      22.715  46.136  48.950  1.00  0.00     0.072 A 
HETATM   10  C   UNL     1      22.888  47.516  48.896  1.00  0.00     0.030 A 
HETATM   11  C   UNL     1      21.805  48.317  48.542  1.00  0.00     0.003 A 
HETATM   12  C   UNL     1      20.577  47.732  48.263  1.00  0.00     0.019 A 
HETATM   13  C   UNL     1      20.472  46.358  48.364  1.00  0.00     0.117 A 
HETATM   14  N   UNL     1      21.499  45.551  48.718  1.00  0.00    -0.262 NA
ENDBRANCH   1   9
BRANCH   1  15
HETATM   15  C   UNL     1      25.232  45.868  49.484  1.00  0.00     0.033 C 
HETATM   16  C   UNL     1      26.430  44.898  49.578  1.00  0.00     0.036 C 
HETATM   17  C   UNL     1      26.576  44.183  50.921  1.00  0.00     0.235 C 
HETATM   18  N   UNL     1      26.527  45.156  52.077  1.00  0.00    -0.067 N 
HETATM   19  H   UNL     1      27.411  45.684  52.059  1.00  0.00     0.280 HD
HETATM   20  C   UNL     1      25.389  46.152  52.011  1.00  0.00     0.235 C 
HETATM   21  C   UNL     1      25.360  46.847  50.665  1.00  0.00     0.036 C 
BRANCH  18  22
HETATM   22  C   UNL     1      26.483  44.454  53.434  1.00  0.00     0.278 C 
BRANCH  22  23
HETATM   23  C   UNL     1      27.790  44.275  54.145  1.00  0.00     0.028 A 
HETATM   24  C   UNL     1      28.524  43.084  54.129  1.00  0.00     0.045 A 
HETATM   25 CL   UNL     1      27.930  41.689  53.305  1.00  0.00    -0.084 Cl
HETATM   26  C   UNL     1      29.748  42.992  54.799  1.00  0.00     0.024 A 
HETATM   27  C   UNL     1      30.256  44.091  55.491  1.00  0.00     0.005 A 
HETATM   28  C   UNL     1      29.540  45.284  55.515  1.00  0.00     0.043 A 
HETATM   29  C   UNL     1      28.324  45.363  54.845  1.00  0.00     0.126 A 
HETATM   30  F   UNL     1      27.645  46.518  54.882  1.00  0.00    -0.205 F 
ENDBRANCH  22  23
ENDBRANCH  18  22
ENDBRANCH   1  15
BRANCH   5  31
HETATM   31  C   UNL     1      23.786  41.470  48.495  1.00  0.00     0.168 C 
BRANCH  31  32
HETATM   32  C   UNL     1      25.162  40.798  48.520  1.00  0.00     0.140 C 
HETATM   33  O   UNL     1      26.128  41.570  47.778  1.00  0.00    -0.384 OA
HETATM   34  C   UNL     1      27.407  41.163  48.286  1.00  0.00     0.168 C 
HETATM   35  C   UNL     1      27.204  41.025  49.777  1.00  0.00     0.029 C 
HETATM   36  C   UNL     1      25.741  40.659  49.925  1.00  0.00     0.036 C 
ENDBRANCH  31  32
ENDBRANCH   5  31
TORSDOF 6
ENDMDL
MODEL 7
REMARK VINA RESULT:      -9.1      3.255      7.034
REMARK  6 active torsions:
REMARK  status: ('A' for Active; 'I' for Inactive)
REMARK    1  A    between atoms: C_3  and  C_4 
REMARK    2  A    between atoms: C_4  and  C_5 
REMARK    3  A    between atoms: N_8  and  C_10 
REMARK    4  A    between atoms: C_10  and  C_11 
REMARK    5  A    between atoms: N_24  and  C_25 
REMARK    6  A    between atoms: C_25  and  C_26 
ROOT
HETATM    1  C   UNL     1      28.820  44.168  54.409  1.00  0.00     0.164 C 
HETATM    2  N   UNL     1      27.678  43.311  54.689  1.00  0.00    -0.319 N 
HETATM    3  C   UNL     1      26.503  44.028  54.750  1.00  0.00     0.326 C 
HETATM    4  O   UNL     1      25.459  43.542  55.145  1.00  0.00    -0.247 OA
HETATM    5  N   UNL     1      26.736  45.301  54.345  1.00  0.00    -0.265 N 
HETATM    6  C   UNL     1      28.084  45.522  54.277  1.00  0.00     0.263 C 
HETATM    7  O   UNL     1      28.632  46.603  54.106  1.00  0.00    -0.270 OA
HETATM    8  H   UNL     1      27.765  42.595  55.407  1.00  0.00     0.166 HD
ENDROOT
BRANCH   1   9
HETATM    9  C   UNL     1      29.773  44.121  55.600  1.00  0.00     0.072 A 
HETATM   10  C   UNL     1      30.647  43.064  55.833  1.00  0.00     0.030 A 
HETATM   11  C   UNL     1      31.478  43.110  56.950  1.00  0.00     0.003 A 
HETATM   12  C   UNL     1      31.412  44.197  57.813  1.00  0.00     0.019 A 
HETATM   13  C   UNL     1      30.501  45.196  57.534  1.00  0.00     0.117 A 
HETATM   14  N   UNL     1      29.669  45.177  56.466  1.00  0.00    -0.262 NA
ENDBRANCH   1   9
BRANCH   1  15
HETATM   15  C   UNL     1      29.511  43.806  53.046  1.00  0.00     0.033 C 
HETATM   16  C   UNL     1      28.666  44.123  51.792  1.00  0.00     0.036 C 
HETATM   17  C   UNL     1      27.514  43.153  51.529  1.00  0.00     0.235 C 
HETATM   18  N   UNL     1      27.979  41.715  51.566  1.00  0.00    -0.067 N 
HETATM   19  H   UNL     1      28.539  41.562  50.715  1.00  0.00     0.280 HD
HETATM   20  C   UNL     1      28.841  41.364  52.760  1.00  0.00     0.235 C 
HETATM   21  C   UNL     1      29.985  42.348  52.906  1.00  0.00     0.036 C 
BRANCH  18  22
HETATM   22  C   UNL     1      26.820  40.722  51.493  1.00  0.00     0.278 C 
BRANCH  22  23
HETATM   23  C   UNL     1      26.347  40.336  50.124  1.00  0.00     0.028 A 
HETATM   24  C   UNL     1      25.315  40.995  49.446  1.00  0.00     0.045 A 
HETATM   25 CL   UNL     1      24.464  42.302  50.186  1.00  0.00    -0.084 Cl
HETATM   26  C   UNL     1      24.936  40.595  48.162  1.00  0.00     0.024 A 
HETATM   27  C   UNL     1      25.586  39.532  47.534  1.00  0.00     0.005 A 
HETATM   28  C   UNL     1      26.616  38.868  48.194  1.00  0.00     0.043 A 
HETATM   29  C   UNL     1      26.984  39.274  49.471  1.00  0.00     0.126 A 
HETATM   30  F   UNL     1      27.974  38.621  50.092  1.00  0.00    -0.205 F 
ENDBRANCH  22  23
ENDBRANCH  18  22
ENDBRANCH   1  15
BRANCH   5  31
HETATM   31  C   UNL     1      25.704  46.326  54.296  1.00  0.00     0.168 C 
BRANCH  31  32
HETATM   32  C   UNL     1      25.290  46.715  52.874  1.00  0.00     0.140 C 
HETATM   33  O   UNL     1      26.317  47.501  52.234  1.00  0.00    -0.384 OA
HETATM   34  C   UNL     1      26.077  47.359  50.826  1.00  0.00     0.168 C 
HETATM   35  C   UNL     1      25.700  45.907  50.643  1.00  0.00     0.029 C 
HETATM   36  C   UNL     1      25.062  45.514  51.961  1.00  0.00     0.036 C 
ENDBRANCH  31  32
ENDBRANCH   5  31
TORSDOF 6
ENDMDL
MODEL 8
REMARK VINA RESULT:      -9.0      1.233      1.745
REMARK  6 active torsions:
REMARK  status: ('A' for Active; 'I' for Inactive)
REMARK    1  A    between atoms: C_3  and  C_4 
REMARK    2  A    between atoms: C_4  and  C_5 
REMARK    3  A    between atoms: N_8  and  C_10 
REMARK    4  A    between atoms: C_10  and  C_11 
REMARK    5  A    between atoms: N_24  and  C_25 
REMARK    6  A    between atoms: C_25  and  C_26 
ROOT
HETATM    1  C   UNL     1      25.637  44.194  51.725  1.00  0.00     0.164 C 
HETATM    2  N   UNL     1      26.539  45.261  51.320  1.00  0.00    -0.319 N 
HETATM    3  C   UNL     1      25.958  46.096  50.391  1.00  0.00     0.326 C 
HETATM    4  O   UNL     1      26.590  46.944  49.786  1.00  0.00    -0.247 OA
HETATM    5  N   UNL     1      24.644  45.781  50.267  1.00  0.00    -0.265 N 
HETATM    6  C   UNL     1      24.399  44.586  50.885  1.00  0.00     0.263 C 
HETATM    7  O   UNL     1      23.363  43.939  50.822  1.00  0.00    -0.270 OA
HETATM    8  H   UNL     1      27.511  45.035  51.123  1.00  0.00     0.166 HD
ENDROOT
BRANCH   1   9
HETATM    9  C   UNL     1      26.240  42.856  51.309  1.00  0.00     0.072 A 
HETATM   10  C   UNL     1      27.608  42.600  51.325  1.00  0.00     0.030 A 
HETATM   11  C   UNL     1      28.064  41.347  50.924  1.00  0.00     0.003 A 
HETATM   12  C   UNL     1      27.155  40.384  50.507  1.00  0.00     0.019 A 
HETATM   13  C   UNL     1      25.814  40.718  50.490  1.00  0.00     0.117 A 
HETATM   14  N   UNL     1      25.338  41.929  50.859  1.00  0.00    -0.262 NA
ENDBRANCH   1   9
BRANCH   1  15
HETATM   15  C   UNL     1      25.284  44.268  53.254  1.00  0.00     0.033 C 
HETATM   16  C   UNL     1      25.305  45.692  53.853  1.00  0.00     0.036 C 
HETATM   17  C   UNL     1      26.700  46.270  54.090  1.00  0.00     0.235 C 
HETATM   18  N   UNL     1      27.578  45.306  54.857  1.00  0.00    -0.067 N 
HETATM   19  H   UNL     1      27.225  45.288  55.824  1.00  0.00     0.280 HD
HETATM   20  C   UNL     1      27.563  43.888  54.329  1.00  0.00     0.235 C 
HETATM   21  C   UNL     1      26.141  43.385  54.179  1.00  0.00     0.036 C 
BRANCH  18  22
HETATM   22  C   UNL     1      29.028  45.779  54.946  1.00  0.00     0.278 C 
BRANCH  22  23
HETATM   23  C   UNL     1      29.909  45.074  55.933  1.00  0.00     0.028 A 
HETATM   24  C   UNL     1      30.677  43.947  55.620  1.00  0.00     0.045 A 
HETATM   25 CL   UNL     1      30.619  43.246  54.043  1.00  0.00    -0.084 Cl
HETATM   26  C   UNL     1      31.492  43.349  56.585  1.00  0.00     0.024 A 
HETATM   27  C   UNL     1      31.556  43.873  57.877  1.00  0.00     0.005 A 
HETATM   28  C   UNL     1      30.801  44.996  58.203  1.00  0.00     0.043 A 
HETATM   29  C   UNL     1      29.993  45.581  57.235  1.00  0.00     0.126 A 
HETATM   30  F   UNL     1      29.269  46.658  57.568  1.00  0.00    -0.205 F 
ENDBRANCH  22  23
ENDBRANCH  18  22
ENDBRANCH   1  15
BRANCH   5  31
HETATM   31  C   UNL     1      23.739  46.470  49.359  1.00  0.00     0.168 C 
BRANCH  31  32
HETATM   32  C   UNL     1      22.694  45.551  48.719  1.00  0.00     0.140 C 
HETATM   33  O   UNL     1      21.467  46.264  48.463  1.00  0.00    -0.384 OA
HETATM   34  C   UNL     1      20.798  45.508  47.443  1.00  0.00     0.168 C 
HETATM   35  C   UNL     1      21.896  45.080  46.496  1.00  0.00     0.029 C 
HETATM   36  C   UNL     1      23.130  44.987  47.370  1.00  0.00     0.036 C 
ENDBRANCH  31  32
ENDBRANCH   5  31
TORSDOF 6
ENDMDL
MODEL 9
REMARK VINA RESULT:      -8.8      9.167     13.887
REMARK  6 active torsions:
REMARK  status: ('A' for Active; 'I' for Inactive)
REMARK    1  A    between atoms: C_3  and  C_4 
REMARK    2  A    between atoms: C_4  and  C_5 
REMARK    3  A    between atoms: N_8  and  C_10 
REMARK    4  A    between atoms: C_10  and  C_11 
REMARK    5  A    between atoms: N_24  and  C_25 
REMARK    6  A    between atoms: C_25  and  C_26 
ROOT
HETATM    1  C   UNL     1      18.093  49.977  47.736  1.00  0.00     0.164 C 
HETATM    2  N   UNL     1      17.882  49.763  49.159  1.00  0.00    -0.319 N 
HETATM    3  C   UNL     1      18.874  48.983  49.711  1.00  0.00     0.326 C 
HETATM    4  O   UNL     1      18.801  48.534  50.841  1.00  0.00    -0.247 OA
HETATM    5  N   UNL     1      19.857  48.798  48.796  1.00  0.00    -0.265 N 
HETATM    6  C   UNL     1      19.421  49.205  47.566  1.00  0.00     0.263 C 
HETATM    7  O   UNL     1      19.995  49.025  46.500  1.00  0.00    -0.270 OA
HETATM    8  H   UNL     1      16.946  49.540  49.490  1.00  0.00     0.166 HD
ENDROOT
BRANCH   1   9
HETATM    9  C   UNL     1      16.934  49.348  46.967  1.00  0.00     0.072 A 
HETATM   10  C   UNL     1      15.746  48.951  47.574  1.00  0.00     0.030 A 
HETATM   11  C   UNL     1      14.746  48.382  46.788  1.00  0.00     0.003 A 
HETATM   12  C   UNL     1      14.955  48.211  45.426  1.00  0.00     0.019 A 
HETATM   13  C   UNL     1      16.169  48.603  44.898  1.00  0.00     0.117 A 
HETATM   14  N   UNL     1      17.167  49.145  45.633  1.00  0.00    -0.262 NA
ENDBRANCH   1   9
BRANCH   1  15
HETATM   15  C   UNL     1      18.315  51.494  47.392  1.00  0.00     0.033 C 
HETATM   16  C   UNL     1      18.536  52.407  48.618  1.00  0.00     0.036 C 
HETATM   17  C   UNL     1      17.277  52.717  49.427  1.00  0.00     0.235 C 
HETATM   18  N   UNL     1      16.153  53.202  48.540  1.00  0.00    -0.067 N 
HETATM   19  H   UNL     1      16.406  54.152  48.232  1.00  0.00     0.280 HD
HETATM   20  C   UNL     1      15.919  52.359  47.305  1.00  0.00     0.235 C 
HETATM   21  C   UNL     1      17.213  52.152  46.542  1.00  0.00     0.036 C 
BRANCH  18  22
HETATM   22  C   UNL     1      14.830  53.341  49.293  1.00  0.00     0.278 C 
BRANCH  22  23
HETATM   23  C   UNL     1      14.421  54.727  49.691  1.00  0.00     0.028 A 
HETATM   24  C   UNL     1      13.950  55.685  48.786  1.00  0.00     0.045 A 
HETATM   25 CL   UNL     1      13.853  55.337  47.098  1.00  0.00    -0.084 Cl
HETATM   26  C   UNL     1      13.567  56.955  49.228  1.00  0.00     0.024 A 
HETATM   27  C   UNL     1      13.646  57.284  50.581  1.00  0.00     0.005 A 
HETATM   28  C   UNL     1      14.110  56.341  51.494  1.00  0.00     0.043 A 
HETATM   29  C   UNL     1      14.488  55.082  51.043  1.00  0.00     0.126 A 
HETATM   30  F   UNL     1      14.937  54.188  51.935  1.00  0.00    -0.205 F 
ENDBRANCH  22  23
ENDBRANCH  18  22
ENDBRANCH   1  15
BRANCH   5  31
HETATM   31  C   UNL     1      21.054  48.010  49.056  1.00  0.00     0.168 C 
BRANCH  31  32
HETATM   32  C   UNL     1      22.337  48.844  49.118  1.00  0.00     0.140 C 
HETATM   33  O   UNL     1      22.981  48.896  47.829  1.00  0.00    -0.384 OA
HETATM   34  C   UNL     1      23.816  50.062  47.872  1.00  0.00     0.168 C 
HETATM   35  C   UNL     1      22.991  51.102  48.595  1.00  0.00     0.029 C 
HETATM   36  C   UNL     1      22.095  50.297  49.516  1.00  0.00     0.036 C 
ENDBRANCH  31  32
ENDBRANCH   5  31
TORSDOF 6
ENDMDL
MODEL 10
REMARK VINA RESULT:      -8.8      3.079      7.029
REMARK  6 active torsions:
REMARK  status: ('A' for Active; 'I' for Inactive)
REMARK    1  A    between atoms: C_3  and  C_4 
REMARK    2  A    between atoms: C_4  and  C_5 
REMARK    3  A    between atoms: N_8  and  C_10 
REMARK    4  A    between atoms: C_10  and  C_11 
REMARK    5  A    between atoms: N_24  and  C_25 
REMARK    6  A    between atoms: C_25  and  C_26 
ROOT
HETATM    1  C   UNL     1      24.122  44.389  49.624  1.00  0.00     0.164 C 
HETATM    2  N   UNL     1      25.319  44.760  48.885  1.00  0.00    -0.319 N 
HETATM    3  C   UNL     1      26.294  45.268  49.715  1.00  0.00     0.326 C 
HETATM    4  O   UNL     1      27.303  45.802  49.289  1.00  0.00    -0.247 OA
HETATM    5  N   UNL     1      25.915  45.098  51.006  1.00  0.00    -0.265 N 
HETATM    6  C   UNL     1      24.597  44.740  51.053  1.00  0.00     0.263 C 
HETATM    7  O   UNL     1      23.902  44.670  52.058  1.00  0.00    -0.270 OA
HETATM    8  H   UNL     1      25.218  45.263  48.006  1.00  0.00     0.166 HD
ENDROOT
BRANCH   1   9
HETATM    9  C   UNL     1      22.962  45.260  49.150  1.00  0.00     0.072 A 
HETATM   10  C   UNL     1      21.711  44.747  48.819  1.00  0.00     0.030 A 
HETATM   11  C   UNL     1      20.715  45.623  48.394  1.00  0.00     0.003 A 
HETATM   12  C   UNL     1      20.988  46.981  48.295  1.00  0.00     0.019 A 
HETATM   13  C   UNL     1      22.260  47.415  48.614  1.00  0.00     0.117 A 
HETATM   14  N   UNL     1      23.255  46.591  49.017  1.00  0.00    -0.262 NA
ENDBRANCH   1   9
BRANCH   1  15
HETATM   15  C   UNL     1      23.821  42.850  49.529  1.00  0.00     0.033 C 
HETATM   16  C   UNL     1      24.394  42.009  50.691  1.00  0.00     0.036 C 
HETATM   17  C   UNL     1      25.903  41.774  50.634  1.00  0.00     0.235 C 
HETATM   18  N   UNL     1      26.334  41.260  49.279  1.00  0.00    -0.067 N 
HETATM   19  H   UNL     1      26.000  40.288  49.210  1.00  0.00     0.280 HD
HETATM   20  C   UNL     1      25.770  42.030  48.106  1.00  0.00     0.235 C 
HETATM   21  C   UNL     1      24.264  42.164  48.224  1.00  0.00     0.036 C 
BRANCH  18  22
HETATM   22  C   UNL     1      27.855  41.194  49.134  1.00  0.00     0.278 C 
BRANCH  22  23
HETATM   23  C   UNL     1      28.505  39.876  49.427  1.00  0.00     0.028 A 
HETATM   24  C   UNL     1      28.730  38.890  48.460  1.00  0.00     0.045 A 
HETATM   25 CL   UNL     1      28.212  39.117  46.828  1.00  0.00    -0.084 Cl
HETATM   26  C   UNL     1      29.360  37.689  48.798  1.00  0.00     0.024 A 
HETATM   27  C   UNL     1      29.779  37.458  50.109  1.00  0.00     0.005 A 
HETATM   28  C   UNL     1      29.565  38.430  51.083  1.00  0.00     0.043 A 
HETATM   29  C   UNL     1      28.937  39.619  50.734  1.00  0.00     0.126 A 
HETATM   30  F   UNL     1      28.736  40.541  51.685  1.00  0.00    -0.205 F 
ENDBRANCH  22  23
ENDBRANCH  18  22
ENDBRANCH   1  15
BRANCH   5  31
HETATM   31  C   UNL     1      26.719  45.533  52.139  1.00  0.00     0.168 C 
BRANCH  31  32
HETATM   32  C   UNL     1      27.370  44.380  52.909  1.00  0.00     0.140 C 
HETATM   33  O   UNL     1      28.579  43.940  52.257  1.00  0.00    -0.384 OA
HETATM   34  C   UNL     1      29.337  43.275  53.277  1.00  0.00     0.168 C 
HETATM   35  C   UNL     1      29.146  44.122  54.514  1.00  0.00     0.029 C 
HETATM   36  C   UNL     1      27.783  44.759  54.328  1.00  0.00     0.036 C 
ENDBRANCH  31  32
ENDBRANCH   5  31
TORSDOF 6
ENDMDL
