MODEL 1
REMARK VINA RESULT:      -9.8      0.000      0.000
REMARK  6 active torsions:
REMARK  status: ('A' for Active; 'I' for Inactive)
REMARK    1  A    between atoms: O_2  and  C_3 
REMARK    2  A    between atoms: C_6  and  C_7 
REMARK    3  A    between atoms: C_11  and  C_12 
REMARK       I    between atoms: C_12  and  N_13 
REMARK    4  A    between atoms: N_13  and  N_14 
REMARK       I    between atoms: N_14  and  C_15 
REMARK    5  A    between atoms: C_15  and  C_16 
REMARK    6  A    between atoms: C_17  and  C_18 
ROOT
HETATM    1  C   UNL     1      25.764  47.919  49.559  1.00  0.00     0.288 C 
HETATM    2  N   UNL     1      25.457  47.188  50.688  1.00  0.00    -0.262 N 
HETATM    3  O   UNL     1      26.882  47.885  49.048  1.00  0.00    -0.264 OA
HETATM    4  H   UNL     1      24.545  47.186  51.137  1.00  0.00     0.190 HD
ENDROOT
BRANCH   1   5
HETATM    5  C   UNL     1      24.697  48.721  49.031  1.00  0.00     0.121 A 
HETATM    6  N   UNL     1      24.892  49.566  47.975  1.00  0.00    -0.272 N 
HETATM    7  N   UNL     1      23.805  50.266  47.622  1.00  0.00    -0.174 NA
HETATM    8  H   UNL     1      25.757  49.711  47.463  1.00  0.00     0.189 HD
HETATM    9  C   UNL     1      22.846  49.860  48.469  1.00  0.00     0.089 A 
HETATM   10  C   UNL     1      23.367  48.883  49.367  1.00  0.00     0.071 A 
BRANCH   9  11
HETATM   11  C   UNL     1      21.489  50.414  48.421  1.00  0.00    -0.005 A 
HETATM   12  C   UNL     1      20.967  51.155  49.488  1.00  0.00     0.016 A 
HETATM   13  C   UNL     1      19.680  51.699  49.413  1.00  0.00     0.037 A 
HETATM   14  C   UNL     1      18.893  51.518  48.275  1.00  0.00     0.068 A 
HETATM   15  C   UNL     1      19.397  50.769  47.214  1.00  0.00     0.037 A 
HETATM   16  C   UNL     1      20.684  50.222  47.289  1.00  0.00     0.016 A 
BRANCH  14  17
HETATM   17  O   UNL     1      17.663  52.113  48.328  1.00  0.00    -0.356 OA
HETATM   18  C   UNL     1      17.220  52.555  49.605  1.00  0.00     0.210 C 
ENDBRANCH  14  17
ENDBRANCH   9  11
ENDBRANCH   1   5
BRANCH   2  19
HETATM   19  N   UNL     1      26.448  46.400  51.276  1.00  0.00    -0.267 N 
HETATM   20  C   UNL     1      26.366  45.034  51.142  1.00  0.00     0.240 C 
HETATM   21  O   UNL     1      25.491  44.465  50.496  1.00  0.00    -0.271 OA
HETATM   22  H   UNL     1      27.125  46.872  51.871  1.00  0.00     0.190 HD
BRANCH  20  23
HETATM   23  C   UNL     1      27.422  44.281  51.868  1.00  0.00     0.089 A 
HETATM   24  C   UNL     1      27.253  44.038  53.361  1.00  0.00     0.034 A 
HETATM   25  C   UNL     1      27.172  42.890  52.381  1.00  0.00     0.025 A 
BRANCH  24  26
HETATM   26  C   UNL     1      28.449  44.218  54.276  1.00  0.00    -0.031 A 
HETATM   27  C   UNL     1      28.677  45.406  55.003  1.00  0.00     0.040 A 
HETATM   28 CL   UNL     1      27.590  46.747  54.877  1.00  0.00    -0.084 Cl
HETATM   29  C   UNL     1      29.779  45.545  55.853  1.00  0.00     0.024 A 
HETATM   30  C   UNL     1      30.682  44.495  56.004  1.00  0.00     0.002 A 
HETATM   31  C   UNL     1      30.477  43.308  55.311  1.00  0.00     0.001 A 
HETATM   32  C   UNL     1      29.371  43.172  54.465  1.00  0.00     0.009 A 
ENDBRANCH  24  26
ENDBRANCH  20  23
ENDBRANCH   2  19
TORSDOF 6
ENDMDL
MODEL 2
REMARK VINA RESULT:      -9.7      1.326      1.725
REMARK  6 active torsions:
REMARK  status: ('A' for Active; 'I' for Inactive)
REMARK    1  A    between atoms: O_2  and  C_3 
REMARK    2  A    between atoms: C_6  and  C_7 
REMARK    3  A    between atoms: C_11  and  C_12 
REMARK       I    between atoms: C_12  and  N_13 
REMARK    4  A    between atoms: N_13  and  N_14 
REMARK       I    between atoms: N_14  and  C_15 
REMARK    5  A    between atoms: C_15  and  C_16 
REMARK    6  A    between atoms: C_17  and  C_18 
ROOT
HETATM    1  C   UNL     1      24.324  48.282  49.604  1.00  0.00     0.288 C 
HETATM    2  N   UNL     1      23.963  47.249  50.443  1.00  0.00    -0.262 N 
HETATM    3  O   UNL     1      25.460  48.378  49.144  1.00  0.00    -0.264 OA
HETATM    4  H   UNL     1      23.035  47.131  50.839  1.00  0.00     0.190 HD
ENDROOT
BRANCH   1   5
HETATM    5  C   UNL     1      23.289  49.233  49.312  1.00  0.00     0.121 A 
HETATM    6  N   UNL     1      23.549  50.385  48.625  1.00  0.00    -0.272 N 
HETATM    7  N   UNL     1      22.483  51.181  48.461  1.00  0.00    -0.174 NA
HETATM    8  H   UNL     1      24.446  50.684  48.254  1.00  0.00     0.189 HD
HETATM    9  C   UNL     1      21.471  50.523  49.050  1.00  0.00     0.089 A 
HETATM   10  C   UNL     1      21.938  49.291  49.591  1.00  0.00     0.071 A 
BRANCH   9  11
HETATM   11  C   UNL     1      20.116  51.082  49.103  1.00  0.00    -0.005 A 
HETATM   12  C   UNL     1      19.747  52.174  48.308  1.00  0.00     0.016 A 
HETATM   13  C   UNL     1      18.441  52.676  48.353  1.00  0.00     0.037 A 
HETATM   14  C   UNL     1      17.481  52.099  49.185  1.00  0.00     0.068 A 
HETATM   15  C   UNL     1      17.843  51.022  49.992  1.00  0.00     0.037 A 
HETATM   16  C   UNL     1      19.150  50.520  49.950  1.00  0.00     0.016 A 
BRANCH  14  17
HETATM   17  O   UNL     1      16.244  52.678  49.122  1.00  0.00    -0.356 OA
HETATM   18  C   UNL     1      15.889  53.547  50.190  1.00  0.00     0.210 C 
ENDBRANCH  14  17
ENDBRANCH   9  11
ENDBRANCH   1   5
BRANCH   2  19
HETATM   19  N   UNL     1      24.920  46.295  50.794  1.00  0.00    -0.267 N 
HETATM   20  C   UNL     1      25.633  46.477  51.956  1.00  0.00     0.240 C 
HETATM   21  O   UNL     1      25.446  47.412  52.729  1.00  0.00    -0.271 OA
HETATM   22  H   UNL     1      25.122  45.566  50.113  1.00  0.00     0.190 HD
BRANCH  20  23
HETATM   23  C   UNL     1      26.681  45.451  52.201  1.00  0.00     0.089 A 
HETATM   24  C   UNL     1      26.681  44.708  53.528  1.00  0.00     0.034 A 
HETATM   25  C   UNL     1      26.340  43.987  52.244  1.00  0.00     0.025 A 
BRANCH  24  26
HETATM   26  C   UNL     1      28.000  44.477  54.242  1.00  0.00    -0.031 A 
HETATM   27  C   UNL     1      28.581  45.441  55.093  1.00  0.00     0.040 A 
HETATM   28 CL   UNL     1      27.812  46.968  55.363  1.00  0.00    -0.084 Cl
HETATM   29  C   UNL     1      29.791  45.202  55.753  1.00  0.00     0.024 A 
HETATM   30  C   UNL     1      30.451  43.987  55.584  1.00  0.00     0.002 A 
HETATM   31  C   UNL     1      29.897  43.013  54.762  1.00  0.00     0.001 A 
HETATM   32  C   UNL     1      28.685  43.255  54.106  1.00  0.00     0.009 A 
ENDBRANCH  24  26
ENDBRANCH  20  23
ENDBRANCH   2  19
TORSDOF 6
ENDMDL
MODEL 3
REMARK VINA RESULT:      -9.6      2.779     11.174
REMARK  6 active torsions:
REMARK  status: ('A' for Active; 'I' for Inactive)
REMARK    1  A    between atoms: O_2  and  C_3 
REMARK    2  A    between atoms: C_6  and  C_7 
REMARK    3  A    between atoms: C_11  and  C_12 
REMARK       I    between atoms: C_12  and  N_13 
REMARK    4  A    between atoms: N_13  and  N_14 
REMARK       I    between atoms: N_14  and  C_15 
REMARK    5  A    between atoms: C_15  and  C_16 
REMARK    6  A    between atoms: C_17  and  C_18 
ROOT
HETATM    1  C   UNL     1      24.602  44.927  50.980  1.00  0.00     0.288 C 
HETATM    2  N   UNL     1      24.609  46.067  50.204  1.00  0.00    -0.262 N 
HETATM    3  O   UNL     1      23.588  44.246  51.126  1.00  0.00    -0.264 OA
HETATM    4  H   UNL     1      25.426  46.653  50.055  1.00  0.00     0.190 HD
ENDROOT
BRANCH   1   5
HETATM    5  C   UNL     1      25.851  44.596  51.607  1.00  0.00     0.121 A 
HETATM    6  N   UNL     1      26.738  43.735  51.026  1.00  0.00    -0.272 N 
HETATM    7  N   UNL     1      27.841  43.508  51.752  1.00  0.00    -0.174 NA
HETATM    8  H   UNL     1      26.632  43.262  50.134  1.00  0.00     0.189 HD
HETATM    9  C   UNL     1      27.687  44.261  52.853  1.00  0.00     0.089 A 
HETATM   10  C   UNL     1      26.450  44.965  52.796  1.00  0.00     0.071 A 
BRANCH   9  11
HETATM   11  C   UNL     1      28.690  44.275  53.924  1.00  0.00    -0.005 A 
HETATM   12  C   UNL     1      28.691  45.272  54.907  1.00  0.00     0.016 A 
HETATM   13  C   UNL     1      29.640  45.254  55.936  1.00  0.00     0.037 A 
HETATM   14  C   UNL     1      30.599  44.243  56.006  1.00  0.00     0.068 A 
HETATM   15  C   UNL     1      30.616  43.254  55.024  1.00  0.00     0.037 A 
HETATM   16  C   UNL     1      29.668  43.273  53.992  1.00  0.00     0.016 A 
BRANCH  14  17
HETATM   17  O   UNL     1      31.455  44.337  57.068  1.00  0.00    -0.356 OA
HETATM   18  C   UNL     1      30.955  44.971  58.239  1.00  0.00     0.210 C 
ENDBRANCH  14  17
ENDBRANCH   9  11
ENDBRANCH   1   5
BRANCH   2  19
HETATM   19  N   UNL     1      23.426  46.468  49.580  1.00  0.00    -0.267 N 
HETATM   20  C   UNL     1      23.167  47.814  49.469  1.00  0.00     0.240 C 
HETATM   21  O   UNL     1      23.938  48.689  49.851  1.00  0.00    -0.271 OA
HETATM   22  H   UNL     1      22.759  45.740  49.335  1.00  0.00     0.190 HD
BRANCH  20  23
HETATM   23  C   UNL     1      21.849  48.138  48.861  1.00  0.00     0.089 A 
HETATM   24  C   UNL     1      21.777  49.239  47.814  1.00  0.00     0.034 A 
HETATM   25  C   UNL     1      21.549  47.796  47.428  1.00  0.00     0.025 A 
BRANCH  24  26
HETATM   26  C   UNL     1      20.635  50.235  47.872  1.00  0.00    -0.031 A 
HETATM   27  C   UNL     1      20.481  51.155  48.931  1.00  0.00     0.040 A 
HETATM   28 CL   UNL     1      21.603  51.186  50.250  1.00  0.00    -0.084 Cl
HETATM   29  C   UNL     1      19.428  52.075  48.957  1.00  0.00     0.024 A 
HETATM   30  C   UNL     1      18.500  52.105  47.918  1.00  0.00     0.002 A 
HETATM   31  C   UNL     1      18.633  51.220  46.854  1.00  0.00     0.001 A 
HETATM   32  C   UNL     1      19.690  50.304  46.831  1.00  0.00     0.009 A 
ENDBRANCH  24  26
ENDBRANCH  20  23
ENDBRANCH   2  19
TORSDOF 6
ENDMDL
MODEL 4
REMARK VINA RESULT:      -9.4      2.772     11.039
REMARK  6 active torsions:
REMARK  status: ('A' for Active; 'I' for Inactive)
REMARK    1  A    between atoms: O_2  and  C_3 
REMARK    2  A    between atoms: C_6  and  C_7 
REMARK    3  A    between atoms: C_11  and  C_12 
REMARK       I    between atoms: C_12  and  N_13 
REMARK    4  A    between atoms: N_13  and  N_14 
REMARK       I    between atoms: N_14  and  C_15 
REMARK    5  A    between atoms: C_15  and  C_16 
REMARK    6  A    between atoms: C_17  and  C_18 
ROOT
HETATM    1  C   UNL     1      24.244  45.805  49.811  1.00  0.00     0.288 C 
HETATM    2  N   UNL     1      23.911  47.050  50.302  1.00  0.00    -0.262 N 
HETATM    3  O   UNL     1      23.798  45.387  48.744  1.00  0.00    -0.264 OA
HETATM    4  H   UNL     1      24.262  47.433  51.176  1.00  0.00     0.190 HD
ENDROOT
BRANCH   1   5
HETATM    5  C   UNL     1      25.135  45.034  50.631  1.00  0.00     0.121 A 
HETATM    6  N   UNL     1      24.898  43.716  50.904  1.00  0.00    -0.272 N 
HETATM    7  N   UNL     1      25.807  43.148  51.708  1.00  0.00    -0.174 NA
HETATM    8  H   UNL     1      24.116  43.158  50.575  1.00  0.00     0.189 HD
HETATM    9  C   UNL     1      26.693  44.123  51.966  1.00  0.00     0.089 A 
HETATM   10  C   UNL     1      26.308  45.323  51.301  1.00  0.00     0.071 A 
BRANCH   9  11
HETATM   11  C   UNL     1      27.849  43.902  52.840  1.00  0.00    -0.005 A 
HETATM   12  C   UNL     1      27.952  44.532  54.086  1.00  0.00     0.016 A 
HETATM   13  C   UNL     1      29.051  44.288  54.918  1.00  0.00     0.037 A 
HETATM   14  C   UNL     1      30.063  43.411  54.527  1.00  0.00     0.068 A 
HETATM   15  C   UNL     1      29.978  42.790  53.282  1.00  0.00     0.037 A 
HETATM   16  C   UNL     1      28.880  43.036  52.447  1.00  0.00     0.016 A 
BRANCH  14  17
HETATM   17  O   UNL     1      31.069  43.253  55.438  1.00  0.00    -0.356 OA
HETATM   18  C   UNL     1      31.132  44.205  56.493  1.00  0.00     0.210 C 
ENDBRANCH  14  17
ENDBRANCH   9  11
ENDBRANCH   1   5
BRANCH   2  19
HETATM   19  N   UNL     1      23.030  47.852  49.574  1.00  0.00    -0.267 N 
HETATM   20  C   UNL     1      23.487  49.054  49.086  1.00  0.00     0.240 C 
HETATM   21  O   UNL     1      24.643  49.445  49.217  1.00  0.00    -0.271 OA
HETATM   22  H   UNL     1      22.057  47.557  49.536  1.00  0.00     0.190 HD
BRANCH  20  23
HETATM   23  C   UNL     1      22.454  49.868  48.395  1.00  0.00     0.089 A 
HETATM   24  C   UNL     1      21.664  50.888  49.202  1.00  0.00     0.034 A 
HETATM   25  C   UNL     1      22.655  51.339  48.155  1.00  0.00     0.025 A 
BRANCH  24  26
HETATM   26  C   UNL     1      20.168  51.002  48.981  1.00  0.00    -0.031 A 
HETATM   27  C   UNL     1      19.276  49.944  49.256  1.00  0.00     0.040 A 
HETATM   28 CL   UNL     1      19.855  48.428  49.862  1.00  0.00    -0.084 Cl
HETATM   29  C   UNL     1      17.897  50.075  49.058  1.00  0.00     0.024 A 
HETATM   30  C   UNL     1      17.371  51.275  48.583  1.00  0.00     0.002 A 
HETATM   31  C   UNL     1      18.223  52.340  48.315  1.00  0.00     0.001 A 
HETATM   32  C   UNL     1      19.601  52.204  48.518  1.00  0.00     0.009 A 
ENDBRANCH  24  26
ENDBRANCH  20  23
ENDBRANCH   2  19
TORSDOF 6
ENDMDL
MODEL 5
REMARK VINA RESULT:      -9.0      7.332     10.503
REMARK  6 active torsions:
REMARK  status: ('A' for Active; 'I' for Inactive)
REMARK    1  A    between atoms: O_2  and  C_3 
REMARK    2  A    between atoms: C_6  and  C_7 
REMARK    3  A    between atoms: C_11  and  C_12 
REMARK       I    between atoms: C_12  and  N_13 
REMARK    4  A    between atoms: N_13  and  N_14 
REMARK       I    between atoms: N_14  and  C_15 
REMARK    5  A    between atoms: C_15  and  C_16 
REMARK    6  A    between atoms: C_17  and  C_18 
ROOT
HETATM    1  C   UNL     1      28.000  40.731  51.686  1.00  0.00     0.288 C 
HETATM    2  N   UNL     1      27.020  41.618  52.081  1.00  0.00    -0.262 N 
HETATM    3  O   UNL     1      29.011  40.537  52.360  1.00  0.00    -0.264 OA
HETATM    4  H   UNL     1      26.170  41.801  51.556  1.00  0.00     0.190 HD
ENDROOT
BRANCH   1   5
HETATM    5  C   UNL     1      27.762  40.059  50.440  1.00  0.00     0.121 A 
HETATM    6  N   UNL     1      26.580  39.424  50.182  1.00  0.00    -0.272 N 
HETATM    7  N   UNL     1      26.528  38.820  48.987  1.00  0.00    -0.174 NA
HETATM    8  H   UNL     1      25.775  39.363  50.799  1.00  0.00     0.189 HD
HETATM    9  C   UNL     1      27.718  39.077  48.422  1.00  0.00     0.089 A 
HETATM   10  C   UNL     1      28.520  39.859  49.303  1.00  0.00     0.071 A 
BRANCH   9  11
HETATM   11  C   UNL     1      28.068  38.563  47.093  1.00  0.00    -0.005 A 
HETATM   12  C   UNL     1      28.830  37.399  46.940  1.00  0.00     0.016 A 
HETATM   13  C   UNL     1      29.131  36.910  45.663  1.00  0.00     0.037 A 
HETATM   14  C   UNL     1      28.676  37.568  44.520  1.00  0.00     0.068 A 
HETATM   15  C   UNL     1      27.930  38.736  44.662  1.00  0.00     0.037 A 
HETATM   16  C   UNL     1      27.630  39.228  45.939  1.00  0.00     0.016 A 
BRANCH  14  17
HETATM   17  O   UNL     1      29.029  36.976  43.339  1.00  0.00    -0.356 OA
HETATM   18  C   UNL     1      30.421  36.818  43.095  1.00  0.00     0.210 C 
ENDBRANCH  14  17
ENDBRANCH   9  11
ENDBRANCH   1   5
BRANCH   2  19
HETATM   19  N   UNL     1      27.189  42.329  53.271  1.00  0.00    -0.267 N 
HETATM   20  C   UNL     1      27.108  43.701  53.233  1.00  0.00     0.240 C 
HETATM   21  O   UNL     1      26.852  44.339  52.216  1.00  0.00    -0.271 OA
HETATM   22  H   UNL     1      27.476  41.800  54.092  1.00  0.00     0.190 HD
BRANCH  20  23
HETATM   23  C   UNL     1      27.379  44.368  54.533  1.00  0.00     0.089 A 
HETATM   24  C   UNL     1      28.621  45.238  54.664  1.00  0.00     0.034 A 
HETATM   25  C   UNL     1      27.242  45.858  54.686  1.00  0.00     0.025 A 
BRANCH  24  26
HETATM   26  C   UNL     1      29.464  45.133  55.920  1.00  0.00    -0.031 A 
HETATM   27  C   UNL     1      30.483  44.169  56.073  1.00  0.00     0.040 A 
HETATM   28 CL   UNL     1      30.822  43.028  54.815  1.00  0.00    -0.084 Cl
HETATM   29  C   UNL     1      31.259  44.099  57.235  1.00  0.00     0.024 A 
HETATM   30  C   UNL     1      31.040  44.998  58.276  1.00  0.00     0.002 A 
HETATM   31  C   UNL     1      30.052  45.967  58.150  1.00  0.00     0.001 A 
HETATM   32  C   UNL     1      29.281  46.036  56.985  1.00  0.00     0.009 A 
ENDBRANCH  24  26
ENDBRANCH  20  23
ENDBRANCH   2  19
TORSDOF 6
ENDMDL
MODEL 6
REMARK VINA RESULT:      -8.9      3.200     11.312
REMARK  6 active torsions:
REMARK  status: ('A' for Active; 'I' for Inactive)
REMARK    1  A    between atoms: O_2  and  C_3 
REMARK    2  A    between atoms: C_6  and  C_7 
REMARK    3  A    between atoms: C_11  and  C_12 
REMARK       I    between atoms: C_12  and  N_13 
REMARK    4  A    between atoms: N_13  and  N_14 
REMARK       I    between atoms: N_14  and  C_15 
REMARK    5  A    between atoms: C_15  and  C_16 
REMARK    6  A    between atoms: C_17  and  C_18 
ROOT
HETATM    1  C   UNL     1      24.239  47.939  49.786  1.00  0.00     0.288 C 
HETATM    2  N   UNL     1      22.881  48.121  49.948  1.00  0.00    -0.262 N 
HETATM    3  O   UNL     1      24.853  48.435  48.843  1.00  0.00    -0.264 OA
HETATM    4  H   UNL     1      22.339  47.733  50.715  1.00  0.00     0.190 HD
ENDROOT
BRANCH   1   5
HETATM    5  C   UNL     1      24.879  47.130  50.785  1.00  0.00     0.121 A 
HETATM    6  N   UNL     1      24.424  45.879  51.093  1.00  0.00    -0.272 N 
HETATM    7  N   UNL     1      25.111  45.267  52.066  1.00  0.00    -0.174 NA
HETATM    8  H   UNL     1      23.634  45.398  50.673  1.00  0.00     0.189 HD
HETATM    9  C   UNL     1      26.071  46.141  52.409  1.00  0.00     0.089 A 
HETATM   10  C   UNL     1      25.962  47.322  51.620  1.00  0.00     0.071 A 
BRANCH   9  11
HETATM   11  C   UNL     1      27.038  45.847  53.472  1.00  0.00    -0.005 A 
HETATM   12  C   UNL     1      27.668  44.600  53.559  1.00  0.00     0.016 A 
HETATM   13  C   UNL     1      28.607  44.348  54.566  1.00  0.00     0.037 A 
HETATM   14  C   UNL     1      28.937  45.332  55.499  1.00  0.00     0.068 A 
HETATM   15  C   UNL     1      28.304  46.571  55.431  1.00  0.00     0.037 A 
HETATM   16  C   UNL     1      27.362  46.824  54.425  1.00  0.00     0.016 A 
BRANCH  14  17
HETATM   17  O   UNL     1      29.878  44.958  56.418  1.00  0.00    -0.356 OA
HETATM   18  C   UNL     1      30.941  44.138  55.949  1.00  0.00     0.210 C 
ENDBRANCH  14  17
ENDBRANCH   9  11
ENDBRANCH   1   5
BRANCH   2  19
HETATM   19  N   UNL     1      22.182  48.877  49.004  1.00  0.00    -0.267 N 
HETATM   20  C   UNL     1      21.897  50.190  49.296  1.00  0.00     0.240 C 
HETATM   21  O   UNL     1      22.261  50.752  50.325  1.00  0.00    -0.271 OA
HETATM   22  H   UNL     1      21.819  48.385  48.191  1.00  0.00     0.190 HD
BRANCH  20  23
HETATM   23  C   UNL     1      21.083  50.885  48.265  1.00  0.00     0.089 A 
HETATM   24  C   UNL     1      19.586  50.616  48.210  1.00  0.00     0.034 A 
HETATM   25  C   UNL     1      20.109  51.966  48.643  1.00  0.00     0.025 A 
BRANCH  24  26
HETATM   26  C   UNL     1      18.924  50.416  46.860  1.00  0.00    -0.031 A 
HETATM   27  C   UNL     1      18.896  49.167  46.205  1.00  0.00     0.040 A 
HETATM   28 CL   UNL     1      19.641  47.774  46.915  1.00  0.00    -0.084 Cl
HETATM   29  C   UNL     1      18.267  49.002  44.966  1.00  0.00     0.024 A 
HETATM   30  C   UNL     1      17.641  50.084  44.351  1.00  0.00     0.002 A 
HETATM   31  C   UNL     1      17.640  51.324  44.978  1.00  0.00     0.001 A 
HETATM   32  C   UNL     1      18.268  51.483  46.218  1.00  0.00     0.009 A 
ENDBRANCH  24  26
ENDBRANCH  20  23
ENDBRANCH   2  19
TORSDOF 6
ENDMDL
MODEL 7
REMARK VINA RESULT:      -8.5      3.641     11.495
REMARK  6 active torsions:
REMARK  status: ('A' for Active; 'I' for Inactive)
REMARK    1  A    between atoms: O_2  and  C_3 
REMARK    2  A    between atoms: C_6  and  C_7 
REMARK    3  A    between atoms: C_11  and  C_12 
REMARK       I    between atoms: C_12  and  N_13 
REMARK    4  A    between atoms: N_13  and  N_14 
REMARK       I    between atoms: N_14  and  C_15 
REMARK    5  A    between atoms: C_15  and  C_16 
REMARK    6  A    between atoms: C_17  and  C_18 
ROOT
HETATM    1  C   UNL     1      23.335  48.310  49.120  1.00  0.00     0.288 C 
HETATM    2  N   UNL     1      22.068  48.633  49.556  1.00  0.00    -0.262 N 
HETATM    3  O   UNL     1      23.813  48.796  48.096  1.00  0.00    -0.264 OA
HETATM    4  H   UNL     1      21.640  48.257  50.398  1.00  0.00     0.190 HD
ENDROOT
BRANCH   1   5
HETATM    5  C   UNL     1      24.050  47.367  49.934  1.00  0.00     0.121 A 
HETATM    6  N   UNL     1      23.723  46.041  49.949  1.00  0.00    -0.272 N 
HETATM    7  N   UNL     1      24.465  45.300  50.783  1.00  0.00    -0.174 NA
HETATM    8  H   UNL     1      22.987  45.589  49.413  1.00  0.00     0.189 HD
HETATM    9  C   UNL     1      25.330  46.167  51.333  1.00  0.00     0.089 A 
HETATM   10  C   UNL     1      25.104  47.477  50.819  1.00  0.00     0.071 A 
BRANCH   9  11
HETATM   11  C   UNL     1      26.317  45.743  52.332  1.00  0.00    -0.005 A 
HETATM   12  C   UNL     1      26.542  46.489  53.495  1.00  0.00     0.016 A 
HETATM   13  C   UNL     1      27.469  46.054  54.449  1.00  0.00     0.037 A 
HETATM   14  C   UNL     1      28.184  44.870  54.264  1.00  0.00     0.068 A 
HETATM   15  C   UNL     1      27.978  44.128  53.103  1.00  0.00     0.037 A 
HETATM   16  C   UNL     1      27.053  44.564  52.146  1.00  0.00     0.016 A 
BRANCH  14  17
HETATM   17  O   UNL     1      29.045  44.555  55.278  1.00  0.00    -0.356 OA
HETATM   18  C   UNL     1      29.519  45.635  56.073  1.00  0.00     0.210 C 
ENDBRANCH  14  17
ENDBRANCH   9  11
ENDBRANCH   1   5
BRANCH   2  19
HETATM   19  N   UNL     1      21.299  49.525  48.806  1.00  0.00    -0.267 N 
HETATM   20  C   UNL     1      20.922  50.714  49.384  1.00  0.00     0.240 C 
HETATM   21  O   UNL     1      21.259  51.058  50.514  1.00  0.00    -0.271 OA
HETATM   22  H   UNL     1      20.961  49.202  47.902  1.00  0.00     0.190 HD
BRANCH  20  23
HETATM   23  C   UNL     1      20.042  51.559  48.535  1.00  0.00     0.089 A 
HETATM   24  C   UNL     1      18.590  51.145  48.348  1.00  0.00     0.034 A 
HETATM   25  C   UNL     1      18.940  52.385  49.138  1.00  0.00     0.025 A 
BRANCH  24  26
HETATM   26  C   UNL     1      17.973  51.233  46.965  1.00  0.00    -0.031 A 
HETATM   27  C   UNL     1      16.688  51.772  46.739  1.00  0.00     0.040 A 
HETATM   28 CL   UNL     1      15.727  52.360  48.053  1.00  0.00    -0.084 Cl
HETATM   29  C   UNL     1      16.144  51.856  45.453  1.00  0.00     0.024 A 
HETATM   30  C   UNL     1      16.874  51.409  44.354  1.00  0.00     0.002 A 
HETATM   31  C   UNL     1      18.148  50.885  44.543  1.00  0.00     0.001 A 
HETATM   32  C   UNL     1      18.689  50.805  45.831  1.00  0.00     0.009 A 
ENDBRANCH  24  26
ENDBRANCH  20  23
ENDBRANCH   2  19
TORSDOF 6
ENDMDL
MODEL 8
REMARK VINA RESULT:      -8.3      3.324     11.308
REMARK  6 active torsions:
REMARK  status: ('A' for Active; 'I' for Inactive)
REMARK    1  A    between atoms: O_2  and  C_3 
REMARK    2  A    between atoms: C_6  and  C_7 
REMARK    3  A    between atoms: C_11  and  C_12 
REMARK       I    between atoms: C_12  and  N_13 
REMARK    4  A    between atoms: N_13  and  N_14 
REMARK       I    between atoms: N_14  and  C_15 
REMARK    5  A    between atoms: C_15  and  C_16 
REMARK    6  A    between atoms: C_17  and  C_18 
ROOT
HETATM    1  C   UNL     1      23.114  48.116  48.965  1.00  0.00     0.288 C 
HETATM    2  N   UNL     1      22.432  49.102  49.646  1.00  0.00    -0.262 N 
HETATM    3  O   UNL     1      22.766  47.739  47.847  1.00  0.00    -0.264 OA
HETATM    4  H   UNL     1      22.690  49.444  50.567  1.00  0.00     0.190 HD
ENDROOT
BRANCH   1   5
HETATM    5  C   UNL     1      24.246  47.559  49.649  1.00  0.00     0.121 A 
HETATM    6  N   UNL     1      25.461  48.184  49.651  1.00  0.00    -0.272 N 
HETATM    7  N   UNL     1      26.421  47.521  50.308  1.00  0.00    -0.174 NA
HETATM    8  H   UNL     1      25.691  49.067  49.204  1.00  0.00     0.189 HD
HETATM    9  C   UNL     1      25.816  46.417  50.775  1.00  0.00     0.089 A 
HETATM   10  C   UNL     1      24.445  46.408  50.386  1.00  0.00     0.071 A 
BRANCH   9  11
HETATM   11  C   UNL     1      26.546  45.405  51.546  1.00  0.00    -0.005 A 
HETATM   12  C   UNL     1      26.579  45.438  52.945  1.00  0.00     0.016 A 
HETATM   13  C   UNL     1      27.260  44.448  53.663  1.00  0.00     0.037 A 
HETATM   14  C   UNL     1      27.914  43.408  53.003  1.00  0.00     0.068 A 
HETATM   15  C   UNL     1      27.900  43.374  51.610  1.00  0.00     0.037 A 
HETATM   16  C   UNL     1      27.222  44.365  50.890  1.00  0.00     0.016 A 
BRANCH  14  17
HETATM   17  O   UNL     1      28.526  42.502  53.825  1.00  0.00    -0.356 OA
HETATM   18  C   UNL     1      28.507  41.143  53.405  1.00  0.00     0.210 C 
ENDBRANCH  14  17
ENDBRANCH   9  11
ENDBRANCH   1   5
BRANCH   2  19
HETATM   19  N   UNL     1      21.304  49.678  49.057  1.00  0.00    -0.267 N 
HETATM   20  C   UNL     1      20.672  50.706  49.715  1.00  0.00     0.240 C 
HETATM   21  O   UNL     1      21.069  51.180  50.776  1.00  0.00    -0.271 OA
HETATM   22  H   UNL     1      20.939  49.231  48.218  1.00  0.00     0.190 HD
BRANCH  20  23
HETATM   23  C   UNL     1      19.439  51.198  49.046  1.00  0.00     0.089 A 
HETATM   24  C   UNL     1      18.090  50.697  49.540  1.00  0.00     0.034 A 
HETATM   25  C   UNL     1      18.497  52.137  49.746  1.00  0.00     0.025 A 
BRANCH  24  26
HETATM   26  C   UNL     1      17.033  50.308  48.524  1.00  0.00    -0.031 A 
HETATM   27  C   UNL     1      16.637  48.970  48.312  1.00  0.00     0.040 A 
HETATM   28 CL   UNL     1      17.360  47.678  49.210  1.00  0.00    -0.084 Cl
HETATM   29  C   UNL     1      15.650  48.635  47.380  1.00  0.00     0.024 A 
HETATM   30  C   UNL     1      15.025  49.634  46.636  1.00  0.00     0.002 A 
HETATM   31  C   UNL     1      15.383  50.962  46.831  1.00  0.00     0.001 A 
HETATM   32  C   UNL     1      16.369  51.292  47.767  1.00  0.00     0.009 A 
ENDBRANCH  24  26
ENDBRANCH  20  23
ENDBRANCH   2  19
TORSDOF 6
ENDMDL
MODEL 9
REMARK VINA RESULT:      -8.3      2.527      2.901
REMARK  6 active torsions:
REMARK  status: ('A' for Active; 'I' for Inactive)
REMARK    1  A    between atoms: O_2  and  C_3 
REMARK    2  A    between atoms: C_6  and  C_7 
REMARK    3  A    between atoms: C_11  and  C_12 
REMARK       I    between atoms: C_12  and  N_13 
REMARK    4  A    between atoms: N_13  and  N_14 
REMARK       I    between atoms: N_14  and  C_15 
REMARK    5  A    between atoms: C_15  and  C_16 
REMARK    6  A    between atoms: C_17  and  C_18 
ROOT
HETATM    1  C   UNL     1      24.011  48.075  49.693  1.00  0.00     0.288 C 
HETATM    2  N   UNL     1      24.121  47.088  50.649  1.00  0.00    -0.262 N 
HETATM    3  O   UNL     1      24.999  48.556  49.139  1.00  0.00    -0.264 OA
HETATM    4  H   UNL     1      23.330  46.663  51.125  1.00  0.00     0.190 HD
ENDROOT
BRANCH   1   5
HETATM    5  C   UNL     1      22.674  48.505  49.395  1.00  0.00     0.121 A 
HETATM    6  N   UNL     1      22.286  49.804  49.559  1.00  0.00    -0.272 N 
HETATM    7  N   UNL     1      20.999  50.036  49.267  1.00  0.00    -0.174 NA
HETATM    8  H   UNL     1      22.862  50.576  49.882  1.00  0.00     0.189 HD
HETATM    9  C   UNL     1      20.516  48.845  48.879  1.00  0.00     0.089 A 
HETATM   10  C   UNL     1      21.542  47.857  48.940  1.00  0.00     0.071 A 
BRANCH   9  11
HETATM   11  C   UNL     1      19.113  48.671  48.489  1.00  0.00    -0.005 A 
HETATM   12  C   UNL     1      18.298  47.715  49.107  1.00  0.00     0.016 A 
HETATM   13  C   UNL     1      16.954  47.583  48.739  1.00  0.00     0.037 A 
HETATM   14  C   UNL     1      16.398  48.400  47.754  1.00  0.00     0.068 A 
HETATM   15  C   UNL     1      17.205  49.344  47.122  1.00  0.00     0.037 A 
HETATM   16  C   UNL     1      18.551  49.476  47.487  1.00  0.00     0.016 A 
BRANCH  14  17
HETATM   17  O   UNL     1      15.073  48.175  47.502  1.00  0.00    -0.356 OA
HETATM   18  C   UNL     1      14.525  48.809  46.353  1.00  0.00     0.210 C 
ENDBRANCH  14  17
ENDBRANCH   9  11
ENDBRANCH   1   5
BRANCH   2  19
HETATM   19  N   UNL     1      25.390  46.633  51.011  1.00  0.00    -0.267 N 
HETATM   20  C   UNL     1      25.679  45.298  50.852  1.00  0.00     0.240 C 
HETATM   21  O   UNL     1      24.896  44.486  50.368  1.00  0.00    -0.271 OA
HETATM   22  H   UNL     1      26.005  47.294  51.481  1.00  0.00     0.190 HD
BRANCH  20  23
HETATM   23  C   UNL     1      27.025  44.899  51.338  1.00  0.00     0.089 A 
HETATM   24  C   UNL     1      27.124  43.885  52.469  1.00  0.00     0.034 A 
HETATM   25  C   UNL     1      27.572  43.523  51.072  1.00  0.00     0.025 A 
BRANCH  24  26
HETATM   26  C   UNL     1      28.122  44.124  53.586  1.00  0.00    -0.031 A 
HETATM   27  C   UNL     1      29.185  43.237  53.859  1.00  0.00     0.040 A 
HETATM   28 CL   UNL     1      29.401  41.796  52.923  1.00  0.00    -0.084 Cl
HETATM   29  C   UNL     1      30.103  43.484  54.885  1.00  0.00     0.024 A 
HETATM   30  C   UNL     1      29.987  44.633  55.664  1.00  0.00     0.002 A 
HETATM   31  C   UNL     1      28.959  45.534  55.411  1.00  0.00     0.001 A 
HETATM   32  C   UNL     1      28.045  45.283  54.381  1.00  0.00     0.009 A 
ENDBRANCH  24  26
ENDBRANCH  20  23
ENDBRANCH   2  19
TORSDOF 6
ENDMDL
MODEL 10
REMARK VINA RESULT:      -8.2      3.281     10.979
REMARK  6 active torsions:
REMARK  status: ('A' for Active; 'I' for Inactive)
REMARK    1  A    between atoms: O_2  and  C_3 
REMARK    2  A    between atoms: C_6  and  C_7 
REMARK    3  A    between atoms: C_11  and  C_12 
REMARK       I    between atoms: C_12  and  N_13 
REMARK    4  A    between atoms: N_13  and  N_14 
REMARK       I    between atoms: N_14  and  C_15 
REMARK    5  A    between atoms: C_15  and  C_16 
REMARK    6  A    between atoms: C_17  and  C_18 
ROOT
HETATM    1  C   UNL     1      24.704  46.205  50.926  1.00  0.00     0.288 C 
HETATM    2  N   UNL     1      23.797  45.339  50.353  1.00  0.00    -0.262 N 
HETATM    3  O   UNL     1      24.622  47.424  50.777  1.00  0.00    -0.264 OA
HETATM    4  H   UNL     1      23.828  44.328  50.457  1.00  0.00     0.190 HD
ENDROOT
BRANCH   1   5
HETATM    5  C   UNL     1      25.746  45.591  51.699  1.00  0.00     0.121 A 
HETATM    6  N   UNL     1      26.188  44.326  51.429  1.00  0.00    -0.272 N 
HETATM    7  N   UNL     1      27.142  43.887  52.259  1.00  0.00    -0.174 NA
HETATM    8  H   UNL     1      25.859  43.712  50.690  1.00  0.00     0.189 HD
HETATM    9  C   UNL     1      27.354  44.906  53.107  1.00  0.00     0.089 A 
HETATM   10  C   UNL     1      26.499  45.999  52.783  1.00  0.00     0.071 A 
BRANCH   9  11
HETATM   11  C   UNL     1      28.330  44.812  54.198  1.00  0.00    -0.005 A 
HETATM   12  C   UNL     1      29.219  43.734  54.289  1.00  0.00     0.016 A 
HETATM   13  C   UNL     1      30.161  43.675  55.323  1.00  0.00     0.037 A 
HETATM   14  C   UNL     1      30.235  44.687  56.281  1.00  0.00     0.068 A 
HETATM   15  C   UNL     1      29.344  45.755  56.209  1.00  0.00     0.037 A 
HETATM   16  C   UNL     1      28.399  45.814  55.176  1.00  0.00     0.016 A 
BRANCH  14  17
HETATM   17  O   UNL     1      31.208  44.512  57.226  1.00  0.00    -0.356 OA
HETATM   18  C   UNL     1      32.000  43.336  57.117  1.00  0.00     0.210 C 
ENDBRANCH  14  17
ENDBRANCH   9  11
ENDBRANCH   1   5
BRANCH   2  19
HETATM   19  N   UNL     1      22.767  45.858  49.567  1.00  0.00    -0.267 N 
HETATM   20  C   UNL     1      21.951  44.981  48.891  1.00  0.00     0.240 C 
HETATM   21  O   UNL     1      22.049  43.760  48.973  1.00  0.00    -0.271 OA
HETATM   22  H   UNL     1      22.740  46.868  49.444  1.00  0.00     0.190 HD
BRANCH  20  23
HETATM   23  C   UNL     1      20.937  45.632  48.021  1.00  0.00     0.089 A 
HETATM   24  C   UNL     1      21.373  46.778  47.120  1.00  0.00     0.034 A 
HETATM   25  C   UNL     1      20.960  45.450  46.529  1.00  0.00     0.025 A 
BRANCH  24  26
HETATM   26  C   UNL     1      20.488  48.005  47.010  1.00  0.00    -0.031 A 
HETATM   27  C   UNL     1      20.785  49.218  47.667  1.00  0.00     0.040 A 
HETATM   28 CL   UNL     1      22.195  49.368  48.660  1.00  0.00    -0.084 Cl
HETATM   29  C   UNL     1      19.962  50.342  47.540  1.00  0.00     0.024 A 
HETATM   30  C   UNL     1      18.820  50.285  46.745  1.00  0.00     0.002 A 
HETATM   31  C   UNL     1      18.507  49.109  46.075  1.00  0.00     0.001 A 
HETATM   32  C   UNL     1      19.335  47.988  46.202  1.00  0.00     0.009 A 
ENDBRANCH  24  26
ENDBRANCH  20  23
ENDBRANCH   2  19
TORSDOF 6
ENDMDL
