MODEL 1
REMARK VINA RESULT:      -9.3      0.000      0.000
REMARK  4 active torsions:
REMARK  status: ('A' for Active; 'I' for Inactive)
REMARK    1  A    between atoms: C_9  and  C_10 
REMARK       I    between atoms: C_10  and  N_11 
REMARK    2  A    between atoms: N_11  and  C_12 
REMARK    3  A    between atoms: C_15  and  N_16 
REMARK       I    between atoms: N_16  and  C_17 
REMARK       I    between atoms: C_17  and  N_18 
REMARK    4  A    between atoms: N_18  and  C_19 
ROOT
HETATM    1  C   UNL     1      25.539  46.705  50.040  1.00  0.00     0.035 A 
HETATM    2  C   UNL     1      25.810  48.026  49.690  1.00  0.00     0.032 A 
HETATM    3  C   UNL     1      24.808  48.840  49.147  1.00  0.00     0.032 A 
HETATM    4  C   UNL     1      23.520  48.347  48.945  1.00  0.00     0.036 A 
HETATM    5  C   UNL     1      23.266  47.001  49.229  1.00  0.00     0.032 A 
HETATM    6  C   UNL     1      24.266  46.188  49.778  1.00  0.00     0.032 A 
ENDROOT
BRANCH   1   7
HETATM    7  N   UNL     1      26.454  45.867  50.700  1.00  0.00    -0.322 N 
HETATM    8  C   UNL     1      26.308  45.246  51.927  1.00  0.00     0.277 C 
HETATM    9  O   UNL     1      25.423  45.458  52.748  1.00  0.00    -0.266 OA
HETATM   10  H   UNL     1      27.281  45.564  50.193  1.00  0.00     0.169 HD
BRANCH   8  11
HETATM   11  C   UNL     1      27.349  44.225  52.148  1.00  0.00     0.157 A 
HETATM   12  C   UNL     1      28.292  44.177  53.217  1.00  0.00     0.029 A 
HETATM   13  C   UNL     1      28.604  44.981  54.331  1.00  0.00     0.023 A 
HETATM   14  C   UNL     1      28.998  42.996  53.023  1.00  0.00     0.063 A 
HETATM   15  C   UNL     1      29.615  44.576  55.217  1.00  0.00    -0.061 A 
HETATM   16  C   UNL     1      29.950  45.410  56.418  1.00  0.00     0.048 C 
HETATM   17  C   UNL     1      30.300  43.375  54.988  1.00  0.00     0.009 A 
HETATM   18  C   UNL     1      30.008  42.562  53.885  1.00  0.00     0.032 A 
HETATM   19  N   UNL     1      28.474  42.445  51.887  1.00  0.00    -0.277 N 
HETATM   20  H   UNL     1      28.751  41.576  51.446  1.00  0.00     0.189 HD
HETATM   21  N   UNL     1      27.469  43.150  51.335  1.00  0.00    -0.168 NA
ENDBRANCH   8  11
ENDBRANCH   1   7
BRANCH   4  22
HETATM   22  N   UNL     1      22.446  49.134  48.483  1.00  0.00    -0.309 N 
HETATM   23  C   UNL     1      21.959  50.287  49.073  1.00  0.00     0.321 C 
HETATM   24  N   UNL     1      20.879  50.786  48.359  1.00  0.00    -0.338 N 
HETATM   25  O   UNL     1      22.363  50.803  50.108  1.00  0.00    -0.247 OA
HETATM   26  H   UNL     1      20.860  50.572  47.372  1.00  0.00     0.164 HD
HETATM   27  H   UNL     1      21.826  48.700  47.816  1.00  0.00     0.170 HD
BRANCH  24  28
HETATM   28  C   UNL     1      20.137  51.928  48.801  1.00  0.00     0.086 A 
HETATM   29  C   UNL     1      18.838  52.309  48.147  1.00  0.00     0.027 A 
HETATM   30  C   UNL     1      18.837  51.736  49.534  1.00  0.00     0.027 A 
ENDBRANCH  24  28
ENDBRANCH   4  22
TORSDOF 4
ENDMDL
MODEL 2
REMARK VINA RESULT:      -8.9      4.403      7.430
REMARK  4 active torsions:
REMARK  status: ('A' for Active; 'I' for Inactive)
REMARK    1  A    between atoms: C_9  and  C_10 
REMARK       I    between atoms: C_10  and  N_11 
REMARK    2  A    between atoms: N_11  and  C_12 
REMARK    3  A    between atoms: C_15  and  N_16 
REMARK       I    between atoms: N_16  and  C_17 
REMARK       I    between atoms: C_17  and  N_18 
REMARK    4  A    between atoms: N_18  and  C_19 
ROOT
HETATM    1  C   UNL     1      20.114  50.851  49.346  1.00  0.00     0.035 A 
HETATM    2  C   UNL     1      19.162  50.152  50.085  1.00  0.00     0.032 A 
HETATM    3  C   UNL     1      17.820  50.551  50.080  1.00  0.00     0.032 A 
HETATM    4  C   UNL     1      17.408  51.657  49.336  1.00  0.00     0.036 A 
HETATM    5  C   UNL     1      18.375  52.402  48.653  1.00  0.00     0.032 A 
HETATM    6  C   UNL     1      19.716  51.998  48.652  1.00  0.00     0.032 A 
ENDROOT
BRANCH   1   7
HETATM    7  N   UNL     1      21.450  50.441  49.203  1.00  0.00    -0.322 N 
HETATM    8  C   UNL     1      21.980  49.578  48.261  1.00  0.00     0.277 C 
HETATM    9  O   UNL     1      21.347  48.872  47.484  1.00  0.00    -0.266 OA
HETATM   10  H   UNL     1      22.159  50.903  49.767  1.00  0.00     0.169 HD
BRANCH   8  11
HETATM   11  C   UNL     1      23.455  49.621  48.251  1.00  0.00     0.157 A 
HETATM   12  C   UNL     1      24.341  48.849  49.058  1.00  0.00     0.029 A 
HETATM   13  C   UNL     1      24.207  47.885  50.077  1.00  0.00     0.023 A 
HETATM   14  C   UNL     1      25.616  49.195  48.627  1.00  0.00     0.063 A 
HETATM   15  C   UNL     1      25.355  47.297  50.632  1.00  0.00    -0.061 A 
HETATM   16  C   UNL     1      25.230  46.256  51.705  1.00  0.00     0.048 C 
HETATM   17  C   UNL     1      26.621  47.671  50.165  1.00  0.00     0.009 A 
HETATM   18  C   UNL     1      26.779  48.629  49.155  1.00  0.00     0.032 A 
HETATM   19  N   UNL     1      25.424  50.129  47.648  1.00  0.00    -0.277 N 
HETATM   20  H   UNL     1      26.138  50.605  47.109  1.00  0.00     0.189 HD
HETATM   21  N   UNL     1      24.133  50.406  47.383  1.00  0.00    -0.168 NA
ENDBRANCH   8  11
ENDBRANCH   1   7
BRANCH   4  22
HETATM   22  N   UNL     1      16.063  52.062  49.220  1.00  0.00    -0.309 N 
HETATM   23  C   UNL     1      15.469  53.133  49.863  1.00  0.00     0.321 C 
HETATM   24  N   UNL     1      14.125  53.221  49.531  1.00  0.00    -0.338 N 
HETATM   25  O   UNL     1      16.005  53.893  50.660  1.00  0.00    -0.247 OA
HETATM   26  H   UNL     1      13.863  52.855  48.627  1.00  0.00     0.164 HD
HETATM   27  H   UNL     1      15.422  51.384  48.835  1.00  0.00     0.170 HD
BRANCH  24  28
HETATM   28  C   UNL     1      13.256  54.193  50.124  1.00  0.00     0.086 A 
HETATM   29  C   UNL     1      12.677  55.315  49.309  1.00  0.00     0.027 A 
HETATM   30  C   UNL     1      11.792  54.197  49.777  1.00  0.00     0.027 A 
ENDBRANCH  24  28
ENDBRANCH   4  22
TORSDOF 4
ENDMDL
MODEL 3
REMARK VINA RESULT:      -8.5      7.104     10.228
REMARK  4 active torsions:
REMARK  status: ('A' for Active; 'I' for Inactive)
REMARK    1  A    between atoms: C_9  and  C_10 
REMARK       I    between atoms: C_10  and  N_11 
REMARK    2  A    between atoms: N_11  and  C_12 
REMARK    3  A    between atoms: C_15  and  N_16 
REMARK       I    between atoms: N_16  and  C_17 
REMARK       I    between atoms: C_17  and  N_18 
REMARK    4  A    between atoms: N_18  and  C_19 
ROOT
HETATM    1  C   UNL     1      27.592  40.647  50.730  1.00  0.00     0.035 A 
HETATM    2  C   UNL     1      26.488  40.194  50.010  1.00  0.00     0.032 A 
HETATM    3  C   UNL     1      26.588  39.070  49.181  1.00  0.00     0.032 A 
HETATM    4  C   UNL     1      27.794  38.381  49.058  1.00  0.00     0.036 A 
HETATM    5  C   UNL     1      28.920  38.877  49.723  1.00  0.00     0.032 A 
HETATM    6  C   UNL     1      28.818  39.997  50.558  1.00  0.00     0.032 A 
ENDROOT
BRANCH   1   7
HETATM    7  N   UNL     1      27.539  41.688  51.671  1.00  0.00    -0.322 N 
HETATM    8  C   UNL     1      28.047  41.700  52.957  1.00  0.00     0.277 C 
HETATM    9  O   UNL     1      28.483  40.736  53.576  1.00  0.00    -0.266 OA
HETATM   10  H   UNL     1      27.199  42.597  51.367  1.00  0.00     0.169 HD
BRANCH   8  11
HETATM   11  C   UNL     1      28.053  43.060  53.529  1.00  0.00     0.157 A 
HETATM   12  C   UNL     1      28.957  43.580  54.501  1.00  0.00     0.029 A 
HETATM   13  C   UNL     1      30.048  43.081  55.241  1.00  0.00     0.023 A 
HETATM   14  C   UNL     1      28.597  44.913  54.654  1.00  0.00     0.063 A 
HETATM   15  C   UNL     1      30.744  43.935  56.111  1.00  0.00    -0.061 A 
HETATM   16  C   UNL     1      31.919  43.427  56.894  1.00  0.00     0.048 C 
HETATM   17  C   UNL     1      30.352  45.275  56.232  1.00  0.00     0.009 A 
HETATM   18  C   UNL     1      29.268  45.791  55.509  1.00  0.00     0.032 A 
HETATM   19  N   UNL     1      27.531  45.096  53.819  1.00  0.00    -0.277 N 
HETATM   20  H   UNL     1      27.009  45.952  53.673  1.00  0.00     0.189 HD
HETATM   21  N   UNL     1      27.178  44.005  53.113  1.00  0.00    -0.168 NA
ENDBRANCH   8  11
ENDBRANCH   1   7
BRANCH   4  22
HETATM   22  N   UNL     1      27.942  37.196  48.309  1.00  0.00    -0.309 N 
HETATM   23  C   UNL     1      28.265  37.107  46.967  1.00  0.00     0.321 C 
HETATM   24  N   UNL     1      28.303  35.782  46.558  1.00  0.00    -0.338 N 
HETATM   25  O   UNL     1      28.452  38.042  46.199  1.00  0.00    -0.247 OA
HETATM   26  H   UNL     1      28.533  35.102  47.268  1.00  0.00     0.164 HD
HETATM   27  H   UNL     1      27.547  36.359  48.711  1.00  0.00     0.170 HD
BRANCH  24  28
HETATM   28  C   UNL     1      28.534  35.413  45.193  1.00  0.00     0.086 A 
HETATM   29  C   UNL     1      29.929  35.296  44.647  1.00  0.00     0.027 A 
HETATM   30  C   UNL     1      29.108  34.059  44.872  1.00  0.00     0.027 A 
ENDBRANCH  24  28
ENDBRANCH   4  22
TORSDOF 4
ENDMDL
MODEL 4
REMARK VINA RESULT:      -8.5      1.653      1.960
REMARK  4 active torsions:
REMARK  status: ('A' for Active; 'I' for Inactive)
REMARK    1  A    between atoms: C_9  and  C_10 
REMARK       I    between atoms: C_10  and  N_11 
REMARK    2  A    between atoms: N_11  and  C_12 
REMARK    3  A    between atoms: C_15  and  N_16 
REMARK       I    between atoms: N_16  and  C_17 
REMARK       I    between atoms: C_17  and  N_18 
REMARK    4  A    between atoms: N_18  and  C_19 
ROOT
HETATM    1  C   UNL     1      24.321  45.878  49.480  1.00  0.00     0.035 A 
HETATM    2  C   UNL     1      24.640  47.145  49.966  1.00  0.00     0.032 A 
HETATM    3  C   UNL     1      23.877  48.261  49.603  1.00  0.00     0.032 A 
HETATM    4  C   UNL     1      22.784  48.130  48.747  1.00  0.00     0.036 A 
HETATM    5  C   UNL     1      22.507  46.872  48.202  1.00  0.00     0.032 A 
HETATM    6  C   UNL     1      23.266  45.754  48.571  1.00  0.00     0.032 A 
ENDROOT
BRANCH   1   7
HETATM    7  N   UNL     1      24.961  44.698  49.894  1.00  0.00    -0.322 N 
HETATM    8  C   UNL     1      26.312  44.406  49.863  1.00  0.00     0.277 C 
HETATM    9  O   UNL     1      27.184  45.058  49.300  1.00  0.00    -0.266 OA
HETATM   10  H   UNL     1      24.411  44.000  50.390  1.00  0.00     0.169 HD
BRANCH   8  11
HETATM   11  C   UNL     1      26.626  43.194  50.645  1.00  0.00     0.157 A 
HETATM   12  C   UNL     1      27.373  43.124  51.857  1.00  0.00     0.029 A 
HETATM   13  C   UNL     1      28.054  44.040  52.684  1.00  0.00     0.023 A 
HETATM   14  C   UNL     1      27.327  41.788  52.234  1.00  0.00     0.063 A 
HETATM   15  C   UNL     1      28.668  43.588  53.863  1.00  0.00    -0.061 A 
HETATM   16  C   UNL     1      29.382  44.551  54.764  1.00  0.00     0.048 C 
HETATM   17  C   UNL     1      28.592  42.232  54.209  1.00  0.00     0.009 A 
HETATM   18  C   UNL     1      27.924  41.303  53.400  1.00  0.00     0.032 A 
HETATM   19  N   UNL     1      26.607  41.162  51.255  1.00  0.00    -0.277 N 
HETATM   20  H   UNL     1      26.374  40.178  51.203  1.00  0.00     0.189 HD
HETATM   21  N   UNL     1      26.156  41.978  50.283  1.00  0.00    -0.168 NA
ENDBRANCH   8  11
ENDBRANCH   1   7
BRANCH   4  22
HETATM   22  N   UNL     1      21.925  49.195  48.409  1.00  0.00    -0.309 N 
HETATM   23  C   UNL     1      20.691  49.467  48.974  1.00  0.00     0.321 C 
HETATM   24  N   UNL     1      20.114  50.580  48.380  1.00  0.00    -0.338 N 
HETATM   25  O   UNL     1      20.128  48.814  49.844  1.00  0.00    -0.247 OA
HETATM   26  H   UNL     1      20.752  51.262  47.995  1.00  0.00     0.164 HD
HETATM   27  H   UNL     1      22.102  49.651  47.527  1.00  0.00     0.170 HD
BRANCH  24  28
HETATM   28  C   UNL     1      18.798  51.029  48.723  1.00  0.00     0.086 A 
HETATM   29  C   UNL     1      18.577  51.990  49.857  1.00  0.00     0.027 A 
HETATM   30  C   UNL     1      18.397  52.452  48.441  1.00  0.00     0.027 A 
ENDBRANCH  24  28
ENDBRANCH   4  22
TORSDOF 4
ENDMDL
MODEL 5
REMARK VINA RESULT:      -8.5      6.169      8.147
REMARK  4 active torsions:
REMARK  status: ('A' for Active; 'I' for Inactive)
REMARK    1  A    between atoms: C_9  and  C_10 
REMARK       I    between atoms: C_10  and  N_11 
REMARK    2  A    between atoms: N_11  and  C_12 
REMARK    3  A    between atoms: C_15  and  N_16 
REMARK       I    between atoms: N_16  and  C_17 
REMARK       I    between atoms: C_17  and  N_18 
REMARK    4  A    between atoms: N_18  and  C_19 
ROOT
HETATM    1  C   UNL     1      27.060  42.432  51.353  1.00  0.00     0.035 A 
HETATM    2  C   UNL     1      27.034  41.043  51.239  1.00  0.00     0.032 A 
HETATM    3  C   UNL     1      26.824  40.432  49.997  1.00  0.00     0.032 A 
HETATM    4  C   UNL     1      26.636  41.200  48.848  1.00  0.00     0.036 A 
HETATM    5  C   UNL     1      26.590  42.592  48.973  1.00  0.00     0.032 A 
HETATM    6  C   UNL     1      26.807  43.203  50.214  1.00  0.00     0.032 A 
ENDROOT
BRANCH   1   7
HETATM    7  N   UNL     1      27.385  43.114  52.537  1.00  0.00    -0.322 N 
HETATM    8  C   UNL     1      28.617  43.611  52.922  1.00  0.00     0.277 C 
HETATM    9  O   UNL     1      29.693  43.389  52.379  1.00  0.00    -0.266 OA
HETATM   10  H   UNL     1      26.628  43.399  53.153  1.00  0.00     0.169 HD
BRANCH   8  11
HETATM   11  C   UNL     1      28.502  44.512  54.085  1.00  0.00     0.157 A 
HETATM   12  C   UNL     1      29.340  44.536  55.238  1.00  0.00     0.029 A 
HETATM   13  C   UNL     1      30.449  43.801  55.703  1.00  0.00     0.023 A 
HETATM   14  C   UNL     1      28.873  45.599  56.002  1.00  0.00     0.063 A 
HETATM   15  C   UNL     1      31.055  44.153  56.919  1.00  0.00    -0.061 A 
HETATM   16  C   UNL     1      32.247  43.393  57.421  1.00  0.00     0.048 C 
HETATM   17  C   UNL     1      30.556  45.236  57.656  1.00  0.00     0.009 A 
HETATM   18  C   UNL     1      29.453  45.979  57.215  1.00  0.00     0.032 A 
HETATM   19  N   UNL     1      27.816  46.109  55.302  1.00  0.00    -0.277 N 
HETATM   20  H   UNL     1      27.232  46.895  55.563  1.00  0.00     0.189 HD
HETATM   21  N   UNL     1      27.566  45.488  54.133  1.00  0.00    -0.168 NA
ENDBRANCH   8  11
ENDBRANCH   1   7
BRANCH   4  22
HETATM   22  N   UNL     1      26.504  40.651  47.556  1.00  0.00    -0.309 N 
HETATM   23  C   UNL     1      27.433  40.726  46.534  1.00  0.00     0.321 C 
HETATM   24  N   UNL     1      26.959  40.094  45.393  1.00  0.00    -0.338 N 
HETATM   25  O   UNL     1      28.514  41.301  46.571  1.00  0.00    -0.247 OA
HETATM   26  H   UNL     1      26.300  39.344  45.540  1.00  0.00     0.164 HD
HETATM   27  H   UNL     1      25.571  40.398  47.269  1.00  0.00     0.170 HD
BRANCH  24  28
HETATM   28  C   UNL     1      27.691  40.096  44.162  1.00  0.00     0.086 A 
HETATM   29  C   UNL     1      28.703  39.026  43.859  1.00  0.00     0.027 A 
HETATM   30  C   UNL     1      27.399  39.052  43.117  1.00  0.00     0.027 A 
ENDBRANCH  24  28
ENDBRANCH   4  22
TORSDOF 4
ENDMDL
MODEL 6
REMARK VINA RESULT:      -8.4      2.415      3.969
REMARK  4 active torsions:
REMARK  status: ('A' for Active; 'I' for Inactive)
REMARK    1  A    between atoms: C_9  and  C_10 
REMARK       I    between atoms: C_10  and  N_11 
REMARK    2  A    between atoms: N_11  and  C_12 
REMARK    3  A    between atoms: C_15  and  N_16 
REMARK       I    between atoms: N_16  and  C_17 
REMARK       I    between atoms: C_17  and  N_18 
REMARK    4  A    between atoms: N_18  and  C_19 
ROOT
HETATM    1  C   UNL     1      22.415  48.579  49.189  1.00  0.00     0.035 A 
HETATM    2  C   UNL     1      22.482  49.916  49.576  1.00  0.00     0.032 A 
HETATM    3  C   UNL     1      21.406  50.781  49.344  1.00  0.00     0.032 A 
HETATM    4  C   UNL     1      20.245  50.324  48.722  1.00  0.00     0.036 A 
HETATM    5  C   UNL     1      20.205  49.001  48.269  1.00  0.00     0.032 A 
HETATM    6  C   UNL     1      21.278  48.134  48.507  1.00  0.00     0.032 A 
ENDROOT
BRANCH   1   7
HETATM    7  N   UNL     1      23.399  47.626  49.497  1.00  0.00    -0.322 N 
HETATM    8  C   UNL     1      24.758  47.827  49.661  1.00  0.00     0.277 C 
HETATM    9  O   UNL     1      25.380  48.848  49.390  1.00  0.00    -0.266 OA
HETATM   10  H   UNL     1      23.099  46.688  49.753  1.00  0.00     0.169 HD
BRANCH   8  11
HETATM   11  C   UNL     1      25.415  46.649  50.259  1.00  0.00     0.157 A 
HETATM   12  C   UNL     1      25.898  46.521  51.595  1.00  0.00     0.029 A 
HETATM   13  C   UNL     1      25.970  47.351  52.731  1.00  0.00     0.023 A 
HETATM   14  C   UNL     1      26.359  45.214  51.689  1.00  0.00     0.063 A 
HETATM   15  C   UNL     1      26.502  46.844  53.928  1.00  0.00    -0.061 A 
HETATM   16  C   UNL     1      26.571  47.707  55.153  1.00  0.00     0.048 C 
HETATM   17  C   UNL     1      26.950  45.518  53.982  1.00  0.00     0.009 A 
HETATM   18  C   UNL     1      26.892  44.676  52.863  1.00  0.00     0.032 A 
HETATM   19  N   UNL     1      26.154  44.670  50.452  1.00  0.00    -0.277 N 
HETATM   20  H   UNL     1      26.375  43.726  50.155  1.00  0.00     0.189 HD
HETATM   21  N   UNL     1      25.576  45.500  49.563  1.00  0.00    -0.168 NA
ENDBRANCH   8  11
ENDBRANCH   1   7
BRANCH   4  22
HETATM   22  N   UNL     1      19.095  51.118  48.534  1.00  0.00    -0.309 N 
HETATM   23  C   UNL     1      18.008  51.203  49.385  1.00  0.00     0.321 C 
HETATM   24  N   UNL     1      17.049  52.064  48.872  1.00  0.00    -0.338 N 
HETATM   25  O   UNL     1      17.851  50.585  50.431  1.00  0.00    -0.247 OA
HETATM   26  H   UNL     1      17.387  52.800  48.269  1.00  0.00     0.164 HD
HETATM   27  H   UNL     1      18.936  51.462  47.599  1.00  0.00     0.170 HD
BRANCH  24  28
HETATM   28  C   UNL     1      15.787  52.269  49.517  1.00  0.00     0.086 A 
HETATM   29  C   UNL     1      15.551  53.462  50.400  1.00  0.00     0.027 A 
HETATM   30  C   UNL     1      14.885  53.383  49.058  1.00  0.00     0.027 A 
ENDBRANCH  24  28
ENDBRANCH   4  22
TORSDOF 4
ENDMDL
MODEL 7
REMARK VINA RESULT:      -8.4      3.423      4.322
REMARK  4 active torsions:
REMARK  status: ('A' for Active; 'I' for Inactive)
REMARK    1  A    between atoms: C_9  and  C_10 
REMARK       I    between atoms: C_10  and  N_11 
REMARK    2  A    between atoms: N_11  and  C_12 
REMARK    3  A    between atoms: C_15  and  N_16 
REMARK       I    between atoms: N_16  and  C_17 
REMARK       I    between atoms: C_17  and  N_18 
REMARK    4  A    between atoms: N_18  and  C_19 
ROOT
HETATM    1  C   UNL     1      25.559  45.862  51.840  1.00  0.00     0.035 A 
HETATM    2  C   UNL     1      24.881  44.687  51.521  1.00  0.00     0.032 A 
HETATM    3  C   UNL     1      23.996  44.646  50.437  1.00  0.00     0.032 A 
HETATM    4  C   UNL     1      23.773  45.778  49.655  1.00  0.00     0.036 A 
HETATM    5  C   UNL     1      24.397  46.976  50.019  1.00  0.00     0.032 A 
HETATM    6  C   UNL     1      25.288  47.016  51.098  1.00  0.00     0.032 A 
ENDROOT
BRANCH   1   7
HETATM    7  N   UNL     1      26.550  45.948  52.831  1.00  0.00    -0.322 N 
HETATM    8  C   UNL     1      26.454  46.526  54.084  1.00  0.00     0.277 C 
HETATM    9  O   UNL     1      25.536  47.229  54.492  1.00  0.00    -0.266 OA
HETATM   10  H   UNL     1      27.416  45.433  52.694  1.00  0.00     0.169 HD
BRANCH   8  11
HETATM   11  C   UNL     1      27.600  46.165  54.941  1.00  0.00     0.157 A 
HETATM   12  C   UNL     1      28.505  45.080  54.752  1.00  0.00     0.029 A 
HETATM   13  C   UNL     1      28.650  44.029  53.824  1.00  0.00     0.023 A 
HETATM   14  C   UNL     1      29.440  45.207  55.771  1.00  0.00     0.063 A 
HETATM   15  C   UNL     1      29.729  43.139  53.946  1.00  0.00    -0.061 A 
HETATM   16  C   UNL     1      29.910  42.025  52.957  1.00  0.00     0.048 C 
HETATM   17  C   UNL     1      30.654  43.307  54.986  1.00  0.00     0.009 A 
HETATM   18  C   UNL     1      30.527  44.342  55.922  1.00  0.00     0.032 A 
HETATM   19  N   UNL     1      29.043  46.300  56.490  1.00  0.00    -0.277 N 
HETATM   20  H   UNL     1      29.493  46.688  57.311  1.00  0.00     0.189 HD
HETATM   21  N   UNL     1      27.942  46.913  56.016  1.00  0.00    -0.168 NA
ENDBRANCH   8  11
ENDBRANCH   1   7
BRANCH   4  22
HETATM   22  N   UNL     1      22.961  45.784  48.502  1.00  0.00    -0.309 N 
HETATM   23  C   UNL     1      21.743  45.147  48.353  1.00  0.00     0.321 C 
HETATM   24  N   UNL     1      21.237  45.348  47.076  1.00  0.00    -0.338 N 
HETATM   25  O   UNL     1      21.176  44.451  49.187  1.00  0.00    -0.247 OA
HETATM   26  H   UNL     1      21.520  46.199  46.613  1.00  0.00     0.164 HD
HETATM   27  H   UNL     1      23.407  46.064  47.642  1.00  0.00     0.170 HD
BRANCH  24  28
HETATM   28  C   UNL     1      20.025  44.728  46.631  1.00  0.00     0.086 A 
HETATM   29  C   UNL     1      18.745  45.510  46.532  1.00  0.00     0.027 A 
HETATM   30  C   UNL     1      19.457  45.080  45.283  1.00  0.00     0.027 A 
ENDBRANCH  24  28
ENDBRANCH   4  22
TORSDOF 4
ENDMDL
MODEL 8
REMARK VINA RESULT:      -8.3      3.428     10.492
REMARK  4 active torsions:
REMARK  status: ('A' for Active; 'I' for Inactive)
REMARK    1  A    between atoms: C_9  and  C_10 
REMARK       I    between atoms: C_10  and  N_11 
REMARK    2  A    between atoms: N_11  and  C_12 
REMARK    3  A    between atoms: C_15  and  N_16 
REMARK       I    between atoms: N_16  and  C_17 
REMARK       I    between atoms: C_17  and  N_18 
REMARK    4  A    between atoms: N_18  and  C_19 
ROOT
HETATM    1  C   UNL     1      24.295  46.916  49.820  1.00  0.00     0.035 A 
HETATM    2  C   UNL     1      25.674  46.842  50.005  1.00  0.00     0.032 A 
HETATM    3  C   UNL     1      26.366  45.653  49.743  1.00  0.00     0.032 A 
HETATM    4  C   UNL     1      25.691  44.519  49.293  1.00  0.00     0.036 A 
HETATM    5  C   UNL     1      24.298  44.571  49.177  1.00  0.00     0.032 A 
HETATM    6  C   UNL     1      23.607  45.762  49.432  1.00  0.00     0.032 A 
ENDROOT
BRANCH   1   7
HETATM    7  N   UNL     1      23.552  48.102  49.943  1.00  0.00    -0.322 N 
HETATM    8  C   UNL     1      23.194  48.989  48.945  1.00  0.00     0.277 C 
HETATM    9  O   UNL     1      23.613  48.997  47.794  1.00  0.00    -0.266 OA
HETATM   10  H   UNL     1      23.108  48.302  50.836  1.00  0.00     0.169 HD
BRANCH   8  11
HETATM   11  C   UNL     1      22.177  49.952  49.411  1.00  0.00     0.157 A 
HETATM   12  C   UNL     1      21.031  50.405  48.694  1.00  0.00     0.029 A 
HETATM   13  C   UNL     1      20.481  50.184  47.416  1.00  0.00     0.023 A 
HETATM   14  C   UNL     1      20.357  51.237  49.579  1.00  0.00     0.063 A 
HETATM   15  C   UNL     1      19.271  50.803  47.064  1.00  0.00    -0.061 A 
HETATM   16  C   UNL     1      18.662  50.566  45.713  1.00  0.00     0.048 C 
HETATM   17  C   UNL     1      18.620  51.631  47.988  1.00  0.00     0.009 A 
HETATM   18  C   UNL     1      19.151  51.868  49.263  1.00  0.00     0.032 A 
HETATM   19  N   UNL     1      21.118  51.250  50.714  1.00  0.00    -0.277 N 
HETATM   20  H   UNL     1      20.929  51.755  51.571  1.00  0.00     0.189 HD
HETATM   21  N   UNL     1      22.220  50.478  50.657  1.00  0.00    -0.168 NA
ENDBRANCH   8  11
ENDBRANCH   1   7
BRANCH   4  22
HETATM   22  N   UNL     1      26.335  43.319  48.931  1.00  0.00    -0.309 N 
HETATM   23  C   UNL     1      26.936  42.417  49.791  1.00  0.00     0.321 C 
HETATM   24  N   UNL     1      27.491  41.360  49.084  1.00  0.00    -0.338 N 
HETATM   25  O   UNL     1      27.030  42.521  51.008  1.00  0.00    -0.247 OA
HETATM   26  H   UNL     1      27.056  41.136  48.201  1.00  0.00     0.164 HD
HETATM   27  H   UNL     1      26.597  43.225  47.961  1.00  0.00     0.170 HD
BRANCH  24  28
HETATM   28  C   UNL     1      28.245  40.326  49.729  1.00  0.00     0.086 A 
HETATM   29  C   UNL     1      27.810  38.889  49.657  1.00  0.00     0.027 A 
HETATM   30  C   UNL     1      29.023  39.341  48.898  1.00  0.00     0.027 A 
ENDBRANCH  24  28
ENDBRANCH   4  22
TORSDOF 4
ENDMDL
MODEL 9
REMARK VINA RESULT:      -8.2      1.636     10.799
REMARK  4 active torsions:
REMARK  status: ('A' for Active; 'I' for Inactive)
REMARK    1  A    between atoms: C_9  and  C_10 
REMARK       I    between atoms: C_10  and  N_11 
REMARK    2  A    between atoms: N_11  and  C_12 
REMARK    3  A    between atoms: C_15  and  N_16 
REMARK       I    between atoms: N_16  and  C_17 
REMARK       I    between atoms: C_17  and  N_18 
REMARK    4  A    between atoms: N_18  and  C_19 
ROOT
HETATM    1  C   UNL     1      24.004  47.843  49.610  1.00  0.00     0.035 A 
HETATM    2  C   UNL     1      23.666  46.492  49.637  1.00  0.00     0.032 A 
HETATM    3  C   UNL     1      24.634  45.520  49.919  1.00  0.00     0.032 A 
HETATM    4  C   UNL     1      25.955  45.883  50.178  1.00  0.00     0.036 A 
HETATM    5  C   UNL     1      26.310  47.232  50.081  1.00  0.00     0.032 A 
HETATM    6  C   UNL     1      25.341  48.205  49.805  1.00  0.00     0.032 A 
ENDROOT
BRANCH   1   7
HETATM    7  N   UNL     1      23.070  48.880  49.456  1.00  0.00    -0.322 N 
HETATM    8  C   UNL     1      22.127  49.036  48.457  1.00  0.00     0.277 C 
HETATM    9  O   UNL     1      22.054  48.388  47.418  1.00  0.00    -0.266 OA
HETATM   10  H   UNL     1      22.964  49.550  50.214  1.00  0.00     0.169 HD
BRANCH   8  11
HETATM   11  C   UNL     1      21.143  50.083  48.793  1.00  0.00     0.157 A 
HETATM   12  C   UNL     1      20.103  50.585  47.956  1.00  0.00     0.029 A 
HETATM   13  C   UNL     1      19.659  50.352  46.639  1.00  0.00     0.023 A 
HETATM   14  C   UNL     1      19.411  51.495  48.746  1.00  0.00     0.063 A 
HETATM   15  C   UNL     1      18.534  51.038  46.155  1.00  0.00    -0.061 A 
HETATM   16  C   UNL     1      18.036  50.790  44.761  1.00  0.00     0.048 C 
HETATM   17  C   UNL     1      17.861  51.943  46.986  1.00  0.00     0.009 A 
HETATM   18  C   UNL     1      18.287  52.193  48.297  1.00  0.00     0.032 A 
HETATM   19  N   UNL     1      20.064  51.499  49.947  1.00  0.00    -0.277 N 
HETATM   20  H   UNL     1      19.833  52.050  50.765  1.00  0.00     0.189 HD
HETATM   21  N   UNL     1      21.109  50.653  50.020  1.00  0.00    -0.168 NA
ENDBRANCH   8  11
ENDBRANCH   1   7
BRANCH   4  22
HETATM   22  N   UNL     1      26.958  44.965  50.552  1.00  0.00    -0.309 N 
HETATM   23  C   UNL     1      27.196  44.482  51.826  1.00  0.00     0.321 C 
HETATM   24  N   UNL     1      28.278  43.613  51.827  1.00  0.00    -0.338 N 
HETATM   25  O   UNL     1      26.592  44.788  52.846  1.00  0.00    -0.247 OA
HETATM   26  H   UNL     1      28.454  43.119  50.964  1.00  0.00     0.164 HD
HETATM   27  H   UNL     1      27.713  44.835  49.896  1.00  0.00     0.170 HD
BRANCH  24  28
HETATM   28  C   UNL     1      28.788  43.034  53.034  1.00  0.00     0.086 A 
HETATM   29  C   UNL     1      29.180  41.584  53.093  1.00  0.00     0.027 A 
HETATM   30  C   UNL     1      30.240  42.647  53.121  1.00  0.00     0.027 A 
ENDBRANCH  24  28
ENDBRANCH   4  22
TORSDOF 4
ENDMDL
MODEL 10
REMARK VINA RESULT:      -8.1      3.737      5.099
REMARK  4 active torsions:
REMARK  status: ('A' for Active; 'I' for Inactive)
REMARK    1  A    between atoms: C_9  and  C_10 
REMARK       I    between atoms: C_10  and  N_11 
REMARK    2  A    between atoms: N_11  and  C_12 
REMARK    3  A    between atoms: C_15  and  N_16 
REMARK       I    between atoms: N_16  and  C_17 
REMARK       I    between atoms: C_17  and  N_18 
REMARK    4  A    between atoms: N_18  and  C_19 
ROOT
HETATM    1  C   UNL     1      26.630  44.355  51.052  1.00  0.00     0.035 A 
HETATM    2  C   UNL     1      25.664  44.879  51.909  1.00  0.00     0.032 A 
HETATM    3  C   UNL     1      25.039  46.098  51.619  1.00  0.00     0.032 A 
HETATM    4  C   UNL     1      25.370  46.812  50.468  1.00  0.00     0.036 A 
HETATM    5  C   UNL     1      26.390  46.323  49.646  1.00  0.00     0.032 A 
HETATM    6  C   UNL     1      27.010  45.101  49.933  1.00  0.00     0.032 A 
ENDROOT
BRANCH   1   7
HETATM    7  N   UNL     1      27.210  43.085  51.211  1.00  0.00    -0.322 N 
HETATM    8  C   UNL     1      26.676  41.856  50.870  1.00  0.00     0.277 C 
HETATM    9  O   UNL     1      25.519  41.635  50.530  1.00  0.00    -0.266 OA
HETATM   10  H   UNL     1      28.185  43.033  51.497  1.00  0.00     0.169 HD
BRANCH   8  11
HETATM   11  C   UNL     1      27.691  40.787  50.920  1.00  0.00     0.157 A 
HETATM   12  C   UNL     1      28.011  39.858  49.887  1.00  0.00     0.029 A 
HETATM   13  C   UNL     1      27.542  39.585  48.586  1.00  0.00     0.023 A 
HETATM   14  C   UNL     1      29.072  39.113  50.386  1.00  0.00     0.063 A 
HETATM   15  C   UNL     1      28.151  38.574  47.827  1.00  0.00    -0.061 A 
HETATM   16  C   UNL     1      27.677  38.281  46.433  1.00  0.00     0.048 C 
HETATM   17  C   UNL     1      29.223  37.850  48.366  1.00  0.00     0.009 A 
HETATM   18  C   UNL     1      29.703  38.101  49.658  1.00  0.00     0.032 A 
HETATM   19  N   UNL     1      29.298  39.604  51.642  1.00  0.00    -0.277 N 
HETATM   20  H   UNL     1      30.002  39.295  52.301  1.00  0.00     0.189 HD
HETATM   21  N   UNL     1      28.493  40.623  51.998  1.00  0.00    -0.168 NA
ENDBRANCH   8  11
ENDBRANCH   1   7
BRANCH   4  22
HETATM   22  N   UNL     1      24.721  48.000  50.073  1.00  0.00    -0.309 N 
HETATM   23  C   UNL     1      23.503  48.094  49.424  1.00  0.00     0.321 C 
HETATM   24  N   UNL     1      23.183  49.420  49.171  1.00  0.00    -0.338 N 
HETATM   25  O   UNL     1      22.795  47.162  49.063  1.00  0.00    -0.247 OA
HETATM   26  H   UNL     1      23.568  50.102  49.807  1.00  0.00     0.164 HD
HETATM   27  H   UNL     1      25.291  48.832  50.036  1.00  0.00     0.170 HD
BRANCH  24  28
HETATM   28  C   UNL     1      22.011  49.793  48.436  1.00  0.00     0.086 A 
HETATM   29  C   UNL     1      20.686  49.966  49.124  1.00  0.00     0.027 A 
HETATM   30  C   UNL     1      21.425  51.168  48.611  1.00  0.00     0.027 A 
ENDBRANCH  24  28
ENDBRANCH   4  22
TORSDOF 4
ENDMDL
