MODEL 1
REMARK VINA RESULT:      -8.5      0.000      0.000
REMARK  2 active torsions:
REMARK  status: ('A' for Active; 'I' for Inactive)
REMARK    1  A    between atoms: C_5  and  C_6 
REMARK       I    between atoms: C_6  and  N_7 
REMARK    2  A    between atoms: N_7  and  C_8 
ROOT
HETATM    1  C   UNL     1      27.222  45.597  54.084  1.00  0.00     0.262 C 
HETATM    2  N   UNL     1      26.988  45.182  52.793  1.00  0.00    -0.306 N 
HETATM    3  O   UNL     1      26.573  46.420  54.725  1.00  0.00    -0.267 OA
HETATM    4  H   UNL     1      27.609  44.484  52.390  1.00  0.00     0.170 HD
ENDROOT
BRANCH   2   5
HETATM    5  C   UNL     1      25.993  45.651  51.963  1.00  0.00     0.152 A 
HETATM    6  N   UNL     1      24.794  45.096  51.795  1.00  0.00    -0.156 NA
HETATM    7  N   UNL     1      24.169  45.900  50.925  1.00  0.00    -0.275 N 
HETATM    8  H   UNL     1      23.221  45.666  50.651  1.00  0.00     0.189 HD
HETATM    9  C   UNL     1      24.918  46.971  50.519  1.00  0.00     0.071 A 
HETATM   10  C   UNL     1      24.456  47.984  49.613  1.00  0.00     0.034 A 
HETATM   11  C   UNL     1      26.122  46.821  51.174  1.00  0.00     0.084 A 
HETATM   12  S   UNL     1      22.875  47.953  48.937  1.00  0.00    -0.076 SA
HETATM   13  C   UNL     1      25.161  49.089  49.169  1.00  0.00     0.023 A 
HETATM   14  C   UNL     1      23.147  49.387  48.088  1.00  0.00     0.075 A 
HETATM   15 CL   UNL     1      21.903  50.045  47.103  1.00  0.00    -0.076 Cl
HETATM   16  C   UNL     1      24.398  49.907  48.281  1.00  0.00     0.033 A 
ENDBRANCH   2   5
BRANCH   1  17
HETATM   17  C   UNL     1      28.413  44.950  54.713  1.00  0.00     0.097 A 
HETATM   18  C   UNL     1      29.146  45.641  55.603  1.00  0.00     0.109 A 
HETATM   19  N   UNL     1      30.262  45.142  56.225  1.00  0.00    -0.368 N 
HETATM   20  C   UNL     1      30.732  43.870  55.984  1.00  0.00     0.008 A 
HETATM   21  H   UNL     1      30.763  45.738  56.880  1.00  0.00     0.165 HD
HETATM   22  C   UNL     1      31.966  43.431  56.717  1.00  0.00     0.068 C 
HETATM   23  C   UNL     1      30.096  43.060  55.118  1.00  0.00     0.080 A 
HETATM   24  C   UNL     1      28.882  43.564  54.419  1.00  0.00     0.190 A 
HETATM   25  O   UNL     1      28.295  42.841  53.614  1.00  0.00    -0.287 OA
ENDBRANCH   1  17
TORSDOF 2
ENDMDL
MODEL 2
REMARK VINA RESULT:      -8.3      4.516      9.263
REMARK  2 active torsions:
REMARK  status: ('A' for Active; 'I' for Inactive)
REMARK    1  A    between atoms: C_5  and  C_6 
REMARK       I    between atoms: C_6  and  N_7 
REMARK    2  A    between atoms: N_7  and  C_8 
ROOT
HETATM    1  C   UNL     1      23.956  48.610  49.421  1.00  0.00     0.262 C 
HETATM    2  N   UNL     1      23.684  47.372  49.956  1.00  0.00    -0.306 N 
HETATM    3  O   UNL     1      25.063  49.116  49.253  1.00  0.00    -0.267 OA
HETATM    4  H   UNL     1      22.711  47.081  50.030  1.00  0.00     0.170 HD
ENDROOT
BRANCH   2   5
HETATM    5  C   UNL     1      24.615  46.479  50.438  1.00  0.00     0.152 A 
HETATM    6  N   UNL     1      25.101  45.429  49.780  1.00  0.00    -0.156 NA
HETATM    7  N   UNL     1      25.981  44.877  50.626  1.00  0.00    -0.275 N 
HETATM    8  H   UNL     1      26.483  44.049  50.326  1.00  0.00     0.189 HD
HETATM    9  C   UNL     1      26.094  45.536  51.821  1.00  0.00     0.071 A 
HETATM   10  C   UNL     1      26.988  45.152  52.875  1.00  0.00     0.034 A 
HETATM   11  C   UNL     1      25.198  46.581  51.727  1.00  0.00     0.084 A 
HETATM   12  S   UNL     1      28.036  43.796  52.736  1.00  0.00    -0.076 SA
HETATM   13  C   UNL     1      27.151  45.777  54.100  1.00  0.00     0.023 A 
HETATM   14  C   UNL     1      28.682  44.063  54.273  1.00  0.00     0.075 A 
HETATM   15 CL   UNL     1      29.902  43.018  54.880  1.00  0.00    -0.076 Cl
HETATM   16  C   UNL     1      28.138  45.143  54.914  1.00  0.00     0.033 A 
ENDBRANCH   2   5
BRANCH   1  17
HETATM   17  C   UNL     1      22.732  49.378  49.038  1.00  0.00     0.097 A 
HETATM   18  C   UNL     1      22.424  50.503  49.705  1.00  0.00     0.109 A 
HETATM   19  N   UNL     1      21.318  51.270  49.438  1.00  0.00    -0.368 N 
HETATM   20  C   UNL     1      20.418  50.944  48.449  1.00  0.00     0.008 A 
HETATM   21  H   UNL     1      21.156  52.104  50.000  1.00  0.00     0.165 HD
HETATM   22  C   UNL     1      19.240  51.853  48.249  1.00  0.00     0.068 C 
HETATM   23  C   UNL     1      20.600  49.845  47.695  1.00  0.00     0.080 A 
HETATM   24  C   UNL     1      21.786  48.983  47.954  1.00  0.00     0.190 A 
HETATM   25  O   UNL     1      21.962  47.967  47.282  1.00  0.00    -0.287 OA
ENDBRANCH   1  17
TORSDOF 2
ENDMDL
MODEL 3
REMARK VINA RESULT:      -8.1      1.580      2.013
REMARK  2 active torsions:
REMARK  status: ('A' for Active; 'I' for Inactive)
REMARK    1  A    between atoms: C_5  and  C_6 
REMARK       I    between atoms: C_6  and  N_7 
REMARK    2  A    between atoms: N_7  and  C_8 
ROOT
HETATM    1  C   UNL     1      25.773  44.843  52.601  1.00  0.00     0.262 C 
HETATM    2  N   UNL     1      25.923  45.478  51.389  1.00  0.00    -0.306 N 
HETATM    3  O   UNL     1      24.719  44.563  53.164  1.00  0.00    -0.267 OA
HETATM    4  H   UNL     1      26.865  45.639  51.041  1.00  0.00     0.170 HD
ENDROOT
BRANCH   2   5
HETATM    5  C   UNL     1      24.901  45.953  50.597  1.00  0.00     0.152 A 
HETATM    6  N   UNL     1      23.977  45.212  49.990  1.00  0.00    -0.156 NA
HETATM    7  N   UNL     1      23.192  46.097  49.361  1.00  0.00    -0.275 N 
HETATM    8  H   UNL     1      22.404  45.747  48.828  1.00  0.00     0.189 HD
HETATM    9  C   UNL     1      23.569  47.401  49.541  1.00  0.00     0.071 A 
HETATM   10  C   UNL     1      22.872  48.527  48.990  1.00  0.00     0.034 A 
HETATM   11  C   UNL     1      24.694  47.331  50.335  1.00  0.00     0.084 A 
HETATM   12  S   UNL     1      21.455  48.345  48.032  1.00  0.00    -0.076 SA
HETATM   13  C   UNL     1      23.199  49.864  49.137  1.00  0.00     0.023 A 
HETATM   14  C   UNL     1      21.299  50.016  47.840  1.00  0.00     0.075 A 
HETATM   15 CL   UNL     1      19.993  50.652  46.924  1.00  0.00    -0.076 Cl
HETATM   16  C   UNL     1      22.282  50.732  48.469  1.00  0.00     0.033 A 
ENDBRANCH   2   5
BRANCH   1  17
HETATM   17  C   UNL     1      27.071  44.495  53.256  1.00  0.00     0.097 A 
HETATM   18  C   UNL     1      27.351  44.996  54.472  1.00  0.00     0.109 A 
HETATM   19  N   UNL     1      28.517  44.747  55.151  1.00  0.00    -0.368 N 
HETATM   20  C   UNL     1      29.514  43.950  54.633  1.00  0.00     0.008 A 
HETATM   21  H   UNL     1      28.650  45.176  56.064  1.00  0.00     0.165 HD
HETATM   22  C   UNL     1      30.750  43.752  55.462  1.00  0.00     0.068 C 
HETATM   23  C   UNL     1      29.370  43.375  53.426  1.00  0.00     0.080 A 
HETATM   24  C   UNL     1      28.121  43.622  52.654  1.00  0.00     0.190 A 
HETATM   25  O   UNL     1      27.978  43.115  51.542  1.00  0.00    -0.287 OA
ENDBRANCH   1  17
TORSDOF 2
ENDMDL
MODEL 4
REMARK VINA RESULT:      -8.0      4.702      8.924
REMARK  2 active torsions:
REMARK  status: ('A' for Active; 'I' for Inactive)
REMARK    1  A    between atoms: C_5  and  C_6 
REMARK       I    between atoms: C_6  and  N_7 
REMARK    2  A    between atoms: N_7  and  C_8 
ROOT
HETATM    1  C   UNL     1      25.680  45.581  49.949  1.00  0.00     0.262 C 
HETATM    2  N   UNL     1      25.523  44.894  51.131  1.00  0.00    -0.306 N 
HETATM    3  O   UNL     1      26.733  45.811  49.361  1.00  0.00    -0.267 OA
HETATM    4  H   UNL     1      24.583  44.775  51.500  1.00  0.00     0.170 HD
ENDROOT
BRANCH   2   5
HETATM    5  C   UNL     1      26.539  44.365  51.896  1.00  0.00     0.152 A 
HETATM    6  N   UNL     1      27.128  43.187  51.700  1.00  0.00    -0.156 NA
HETATM    7  N   UNL     1      28.058  43.110  52.662  1.00  0.00    -0.275 N 
HETATM    8  H   UNL     1      28.641  42.282  52.702  1.00  0.00     0.189 HD
HETATM    9  C   UNL     1      28.102  44.205  53.482  1.00  0.00     0.071 A 
HETATM   10  C   UNL     1      29.029  44.367  54.566  1.00  0.00     0.034 A 
HETATM   11  C   UNL     1      27.107  45.034  53.009  1.00  0.00     0.084 A 
HETATM   12  S   UNL     1      30.208  43.174  54.946  1.00  0.00    -0.076 SA
HETATM   13  C   UNL     1      29.126  45.448  55.426  1.00  0.00     0.023 A 
HETATM   14  C   UNL     1      30.822  44.101  56.217  1.00  0.00     0.075 A 
HETATM   15 CL   UNL     1      32.140  43.510  57.146  1.00  0.00    -0.076 Cl
HETATM   16  C   UNL     1      30.172  45.293  56.387  1.00  0.00     0.033 A 
ENDBRANCH   2   5
BRANCH   1  17
HETATM   17  C   UNL     1      24.394  46.088  49.378  1.00  0.00     0.097 A 
HETATM   18  C   UNL     1      23.599  45.246  48.695  1.00  0.00     0.109 A 
HETATM   19  N   UNL     1      22.408  45.616  48.123  1.00  0.00    -0.368 N 
HETATM   20  C   UNL     1      21.922  46.902  48.203  1.00  0.00     0.008 A 
HETATM   21  H   UNL     1      21.873  44.915  47.615  1.00  0.00     0.165 HD
HETATM   22  C   UNL     1      20.610  47.195  47.534  1.00  0.00     0.068 C 
HETATM   23  C   UNL     1      22.610  47.853  48.860  1.00  0.00     0.080 A 
HETATM   24  C   UNL     1      23.909  47.494  49.493  1.00  0.00     0.190 A 
HETATM   25  O   UNL     1      24.558  48.354  50.088  1.00  0.00    -0.287 OA
ENDBRANCH   1  17
TORSDOF 2
ENDMDL
MODEL 5
REMARK VINA RESULT:      -7.9      2.014      2.266
REMARK  2 active torsions:
REMARK  status: ('A' for Active; 'I' for Inactive)
REMARK    1  A    between atoms: C_5  and  C_6 
REMARK       I    between atoms: C_6  and  N_7 
REMARK    2  A    between atoms: N_7  and  C_8 
ROOT
HETATM    1  C   UNL     1      26.565  45.844  53.794  1.00  0.00     0.262 C 
HETATM    2  N   UNL     1      26.558  45.733  52.422  1.00  0.00    -0.306 N 
HETATM    3  O   UNL     1      25.698  46.352  54.500  1.00  0.00    -0.267 OA
HETATM    4  H   UNL     1      27.348  45.280  51.970  1.00  0.00     0.170 HD
ENDROOT
BRANCH   2   5
HETATM    5  C   UNL     1      25.578  46.212  51.580  1.00  0.00     0.152 A 
HETATM    6  N   UNL     1      25.114  47.460  51.555  1.00  0.00    -0.156 NA
HETATM    7  N   UNL     1      24.201  47.461  50.575  1.00  0.00    -0.275 N 
HETATM    8  H   UNL     1      23.714  48.327  50.374  1.00  0.00     0.189 HD
HETATM    9  C   UNL     1      24.054  46.253  49.949  1.00  0.00     0.071 A 
HETATM   10  C   UNL     1      23.159  46.013  48.854  1.00  0.00     0.034 A 
HETATM   11  C   UNL     1      24.935  45.415  50.600  1.00  0.00     0.084 A 
HETATM   12  S   UNL     1      22.162  47.254  48.200  1.00  0.00    -0.076 SA
HETATM   13  C   UNL     1      22.967  44.820  48.178  1.00  0.00     0.023 A 
HETATM   14  C   UNL     1      21.512  46.204  47.047  1.00  0.00     0.075 A 
HETATM   15 CL   UNL     1      20.345  46.783  45.928  1.00  0.00    -0.076 Cl
HETATM   16  C   UNL     1      22.009  44.931  47.125  1.00  0.00     0.033 A 
ENDBRANCH   2   5
BRANCH   1  17
HETATM   17  C   UNL     1      27.794  45.280  54.432  1.00  0.00     0.097 A 
HETATM   18  C   UNL     1      28.399  45.966  55.417  1.00  0.00     0.109 A 
HETATM   19  N   UNL     1      29.536  45.541  56.056  1.00  0.00    -0.368 N 
HETATM   20  C   UNL     1      30.161  44.356  55.735  1.00  0.00     0.008 A 
HETATM   21  H   UNL     1      29.933  46.128  56.786  1.00  0.00     0.165 HD
HETATM   22  C   UNL     1      31.403  43.994  56.496  1.00  0.00     0.068 C 
HETATM   23  C   UNL     1      29.665  43.562  54.770  1.00  0.00     0.080 A 
HETATM   24  C   UNL     1      28.434  43.988  54.048  1.00  0.00     0.190 A 
HETATM   25  O   UNL     1      27.973  43.280  53.154  1.00  0.00    -0.287 OA
ENDBRANCH   1  17
TORSDOF 2
ENDMDL
MODEL 6
REMARK VINA RESULT:      -7.5      4.688      8.850
REMARK  2 active torsions:
REMARK  status: ('A' for Active; 'I' for Inactive)
REMARK    1  A    between atoms: C_5  and  C_6 
REMARK       I    between atoms: C_6  and  N_7 
REMARK    2  A    between atoms: N_7  and  C_8 
ROOT
HETATM    1  C   UNL     1      24.613  45.293  51.448  1.00  0.00     0.262 C 
HETATM    2  N   UNL     1      25.548  46.258  51.744  1.00  0.00    -0.306 N 
HETATM    3  O   UNL     1      24.384  44.266  52.080  1.00  0.00    -0.267 OA
HETATM    4  H   UNL     1      25.623  47.065  51.129  1.00  0.00     0.170 HD
ENDROOT
BRANCH   2   5
HETATM    5  C   UNL     1      26.433  46.225  52.800  1.00  0.00     0.152 A 
HETATM    6  N   UNL     1      26.519  47.130  53.773  1.00  0.00    -0.156 NA
HETATM    7  N   UNL     1      27.492  46.675  54.573  1.00  0.00    -0.275 N 
HETATM    8  H   UNL     1      27.728  47.216  55.397  1.00  0.00     0.189 HD
HETATM    9  C   UNL     1      28.047  45.494  54.159  1.00  0.00     0.071 A 
HETATM   10  C   UNL     1      29.085  44.798  54.863  1.00  0.00     0.034 A 
HETATM   11  C   UNL     1      27.380  45.187  52.992  1.00  0.00     0.084 A 
HETATM   12  S   UNL     1      29.747  45.391  56.336  1.00  0.00    -0.076 SA
HETATM   13  C   UNL     1      29.683  43.603  54.499  1.00  0.00     0.023 A 
HETATM   14  C   UNL     1      30.791  44.070  56.467  1.00  0.00     0.075 A 
HETATM   15 CL   UNL     1      31.855  43.953  57.809  1.00  0.00    -0.076 Cl
HETATM   16  C   UNL     1      30.676  43.179  55.435  1.00  0.00     0.033 A 
ENDBRANCH   2   5
BRANCH   1  17
HETATM   17  C   UNL     1      23.835  45.578  50.203  1.00  0.00     0.097 A 
HETATM   18  C   UNL     1      23.287  44.558  49.521  1.00  0.00     0.109 A 
HETATM   19  N   UNL     1      22.567  44.714  48.363  1.00  0.00    -0.368 N 
HETATM   20  C   UNL     1      22.344  45.949  47.795  1.00  0.00     0.008 A 
HETATM   21  H   UNL     1      22.195  43.885  47.905  1.00  0.00     0.165 HD
HETATM   22  C   UNL     1      21.548  45.999  46.524  1.00  0.00     0.068 C 
HETATM   23  C   UNL     1      22.830  47.063  48.372  1.00  0.00     0.080 A 
HETATM   24  C   UNL     1      23.620  46.938  49.628  1.00  0.00     0.190 A 
HETATM   25  O   UNL     1      24.082  47.945  50.162  1.00  0.00    -0.287 OA
ENDBRANCH   1  17
TORSDOF 2
ENDMDL
MODEL 7
REMARK VINA RESULT:      -7.4      1.429      2.060
REMARK  2 active torsions:
REMARK  status: ('A' for Active; 'I' for Inactive)
REMARK    1  A    between atoms: C_5  and  C_6 
REMARK       I    between atoms: C_6  and  N_7 
REMARK    2  A    between atoms: N_7  and  C_8 
ROOT
HETATM    1  C   UNL     1      27.442  44.035  52.306  1.00  0.00     0.262 C 
HETATM    2  N   UNL     1      26.469  44.996  52.461  1.00  0.00    -0.306 N 
HETATM    3  O   UNL     1      27.545  43.228  51.386  1.00  0.00    -0.267 OA
HETATM    4  H   UNL     1      26.515  45.602  53.277  1.00  0.00     0.170 HD
ENDROOT
BRANCH   2   5
HETATM    5  C   UNL     1      25.400  45.204  51.618  1.00  0.00     0.152 A 
HETATM    6  N   UNL     1      24.412  44.342  51.387  1.00  0.00    -0.156 NA
HETATM    7  N   UNL     1      23.603  44.978  50.529  1.00  0.00    -0.275 N 
HETATM    8  H   UNL     1      22.766  44.500  50.213  1.00  0.00     0.189 HD
HETATM    9  C   UNL     1      24.026  46.235  50.192  1.00  0.00     0.071 A 
HETATM   10  C   UNL     1      23.316  47.119  49.313  1.00  0.00     0.034 A 
HETATM   11  C   UNL     1      25.209  46.400  50.881  1.00  0.00     0.084 A 
HETATM   12  S   UNL     1      21.823  46.676  48.582  1.00  0.00    -0.076 SA
HETATM   13  C   UNL     1      23.688  48.399  48.937  1.00  0.00     0.023 A 
HETATM   14  C   UNL     1      21.695  48.168  47.801  1.00  0.00     0.075 A 
HETATM   15 CL   UNL     1      20.337  48.495  46.802  1.00  0.00    -0.076 Cl
HETATM   16  C   UNL     1      22.743  49.010  48.057  1.00  0.00     0.033 A 
ENDBRANCH   2   5
BRANCH   1  17
HETATM   17  C   UNL     1      28.442  44.013  53.417  1.00  0.00     0.097 A 
HETATM   18  C   UNL     1      29.360  43.031  53.458  1.00  0.00     0.109 A 
HETATM   19  N   UNL     1      30.311  42.917  54.441  1.00  0.00    -0.368 N 
HETATM   20  C   UNL     1      30.404  43.812  55.483  1.00  0.00     0.008 A 
HETATM   21  H   UNL     1      30.962  42.135  54.400  1.00  0.00     0.165 HD
HETATM   22  C   UNL     1      31.480  43.584  56.505  1.00  0.00     0.068 C 
HETATM   23  C   UNL     1      29.553  44.850  55.569  1.00  0.00     0.080 A 
HETATM   24  C   UNL     1      28.504  45.011  54.525  1.00  0.00     0.190 A 
HETATM   25  O   UNL     1      27.709  45.947  54.595  1.00  0.00    -0.287 OA
ENDBRANCH   1  17
TORSDOF 2
ENDMDL
MODEL 8
REMARK VINA RESULT:      -7.2      5.902      7.370
REMARK  2 active torsions:
REMARK  status: ('A' for Active; 'I' for Inactive)
REMARK    1  A    between atoms: C_5  and  C_6 
REMARK       I    between atoms: C_6  and  N_7 
REMARK    2  A    between atoms: N_7  and  C_8 
ROOT
HETATM    1  C   UNL     1      26.754  43.719  52.733  1.00  0.00     0.262 C 
HETATM    2  N   UNL     1      27.968  43.072  52.689  1.00  0.00    -0.306 N 
HETATM    3  O   UNL     1      25.712  43.375  52.182  1.00  0.00    -0.267 OA
HETATM    4  H   UNL     1      28.749  43.473  53.204  1.00  0.00     0.170 HD
ENDROOT
BRANCH   2   5
HETATM    5  C   UNL     1      28.245  41.926  51.977  1.00  0.00     0.152 A 
HETATM    6  N   UNL     1      28.760  40.804  52.477  1.00  0.00    -0.156 NA
HETATM    7  N   UNL     1      28.829  39.969  51.432  1.00  0.00    -0.275 N 
HETATM    8  H   UNL     1      29.195  39.036  51.586  1.00  0.00     0.189 HD
HETATM    9  C   UNL     1      28.370  40.505  50.259  1.00  0.00     0.071 A 
HETATM   10  C   UNL     1      28.319  39.798  49.012  1.00  0.00     0.034 A 
HETATM   11  C   UNL     1      27.995  41.791  50.588  1.00  0.00     0.084 A 
HETATM   12  S   UNL     1      28.837  38.164  48.867  1.00  0.00    -0.076 SA
HETATM   13  C   UNL     1      27.864  40.281  47.797  1.00  0.00     0.023 A 
HETATM   14  C   UNL     1      28.447  38.125  47.224  1.00  0.00     0.075 A 
HETATM   15 CL   UNL     1      28.704  36.688  46.319  1.00  0.00    -0.076 Cl
HETATM   16  C   UNL     1      27.937  39.306  46.755  1.00  0.00     0.033 A 
ENDBRANCH   2   5
BRANCH   1  17
HETATM   17  C   UNL     1      26.776  44.975  53.544  1.00  0.00     0.097 A 
HETATM   18  C   UNL     1      25.837  45.913  53.332  1.00  0.00     0.109 A 
HETATM   19  N   UNL     1      25.778  47.102  54.014  1.00  0.00    -0.368 N 
HETATM   20  C   UNL     1      26.693  47.439  54.987  1.00  0.00     0.008 A 
HETATM   21  H   UNL     1      25.037  47.760  53.782  1.00  0.00     0.165 HD
HETATM   22  C   UNL     1      26.535  48.769  55.663  1.00  0.00     0.068 C 
HETATM   23  C   UNL     1      27.688  46.594  55.309  1.00  0.00     0.080 A 
HETATM   24  C   UNL     1      27.790  45.293  54.592  1.00  0.00     0.190 A 
HETATM   25  O   UNL     1      28.702  44.513  54.865  1.00  0.00    -0.287 OA
ENDBRANCH   1  17
TORSDOF 2
ENDMDL
MODEL 9
REMARK VINA RESULT:      -7.2      6.363      7.604
REMARK  2 active torsions:
REMARK  status: ('A' for Active; 'I' for Inactive)
REMARK    1  A    between atoms: C_5  and  C_6 
REMARK       I    between atoms: C_6  and  N_7 
REMARK    2  A    between atoms: N_7  and  C_8 
ROOT
HETATM    1  C   UNL     1      28.312  41.530  53.117  1.00  0.00     0.262 C 
HETATM    2  N   UNL     1      27.715  41.833  51.914  1.00  0.00    -0.306 N 
HETATM    3  O   UNL     1      28.562  40.411  53.557  1.00  0.00    -0.267 OA
HETATM    4  H   UNL     1      27.576  42.813  51.677  1.00  0.00     0.170 HD
ENDROOT
BRANCH   2   5
HETATM    5  C   UNL     1      27.251  40.921  50.992  1.00  0.00     0.152 A 
HETATM    6  N   UNL     1      25.973  40.631  50.758  1.00  0.00    -0.156 NA
HETATM    7  N   UNL     1      26.007  39.719  49.778  1.00  0.00    -0.275 N 
HETATM    8  H   UNL     1      25.127  39.353  49.432  1.00  0.00     0.189 HD
HETATM    9  C   UNL     1      27.269  39.403  49.355  1.00  0.00     0.071 A 
HETATM   10  C   UNL     1      27.560  38.473  48.301  1.00  0.00     0.034 A 
HETATM   11  C   UNL     1      28.102  40.166  50.145  1.00  0.00     0.084 A 
HETATM   12  S   UNL     1      26.319  37.650  47.440  1.00  0.00    -0.076 SA
HETATM   13  C   UNL     1      28.810  38.115  47.826  1.00  0.00     0.023 A 
HETATM   14  C   UNL     1      27.443  36.853  46.464  1.00  0.00     0.075 A 
HETATM   15 CL   UNL     1      26.901  35.766  45.250  1.00  0.00    -0.076 Cl
HETATM   16  C   UNL     1      28.742  37.172  46.756  1.00  0.00     0.033 A 
ENDBRANCH   2   5
BRANCH   1  17
HETATM   17  C   UNL     1      28.656  42.734  53.933  1.00  0.00     0.097 A 
HETATM   18  C   UNL     1      29.867  42.816  54.510  1.00  0.00     0.109 A 
HETATM   19  N   UNL     1      30.273  43.871  55.286  1.00  0.00    -0.368 N 
HETATM   20  C   UNL     1      29.460  44.952  55.543  1.00  0.00     0.008 A 
HETATM   21  H   UNL     1      31.206  43.846  55.693  1.00  0.00     0.165 HD
HETATM   22  C   UNL     1      30.007  46.047  56.412  1.00  0.00     0.068 C 
HETATM   23  C   UNL     1      28.219  45.010  55.028  1.00  0.00     0.080 A 
HETATM   24  C   UNL     1      27.737  43.884  54.181  1.00  0.00     0.190 A 
HETATM   25  O   UNL     1      26.600  43.914  53.711  1.00  0.00    -0.287 OA
ENDBRANCH   1  17
TORSDOF 2
ENDMDL
MODEL 10
REMARK VINA RESULT:      -7.2      3.531      4.033
REMARK  2 active torsions:
REMARK  status: ('A' for Active; 'I' for Inactive)
REMARK    1  A    between atoms: C_5  and  C_6 
REMARK       I    between atoms: C_6  and  N_7 
REMARK    2  A    between atoms: N_7  and  C_8 
ROOT
HETATM    1  C   UNL     1      27.412  44.347  53.215  1.00  0.00     0.262 C 
HETATM    2  N   UNL     1      27.670  43.925  51.931  1.00  0.00    -0.306 N 
HETATM    3  O   UNL     1      26.374  44.853  53.633  1.00  0.00    -0.267 OA
HETATM    4  H   UNL     1      28.580  43.516  51.731  1.00  0.00     0.170 HD
ENDROOT
BRANCH   2   5
HETATM    5  C   UNL     1      26.811  44.030  50.860  1.00  0.00     0.152 A 
HETATM    6  N   UNL     1      26.733  45.061  50.022  1.00  0.00    -0.156 NA
HETATM    7  N   UNL     1      25.786  44.711  49.142  1.00  0.00    -0.275 N 
HETATM    8  H   UNL     1      25.560  45.359  48.395  1.00  0.00     0.189 HD
HETATM    9  C   UNL     1      25.241  43.477  49.371  1.00  0.00     0.071 A 
HETATM   10  C   UNL     1      24.231  42.873  48.551  1.00  0.00     0.034 A 
HETATM   11  C   UNL     1      25.886  43.017  50.500  1.00  0.00     0.084 A 
HETATM   12  S   UNL     1      23.594  43.659  47.160  1.00  0.00    -0.076 SA
HETATM   13  C   UNL     1      23.644  41.631  48.728  1.00  0.00     0.023 A 
HETATM   14  C   UNL     1      22.574  42.356  46.818  1.00  0.00     0.075 A 
HETATM   15 CL   UNL     1      21.543  42.415  45.446  1.00  0.00    -0.076 Cl
HETATM   16  C   UNL     1      22.680  41.330  47.718  1.00  0.00     0.033 A 
ENDBRANCH   2   5
BRANCH   1  17
HETATM   17  C   UNL     1      28.563  44.155  54.150  1.00  0.00     0.097 A 
HETATM   18  C   UNL     1      28.890  45.140  55.004  1.00  0.00     0.109 A 
HETATM   19  N   UNL     1      29.934  45.066  55.891  1.00  0.00    -0.368 N 
HETATM   20  C   UNL     1      30.747  43.957  55.980  1.00  0.00     0.008 A 
HETATM   21  H   UNL     1      30.117  45.863  56.496  1.00  0.00     0.165 HD
HETATM   22  C   UNL     1      31.863  43.989  56.983  1.00  0.00     0.068 C 
HETATM   23  C   UNL     1      30.535  42.891  55.189  1.00  0.00     0.080 A 
HETATM   24  C   UNL     1      29.414  42.931  54.210  1.00  0.00     0.190 A 
HETATM   25  O   UNL     1      29.213  41.968  53.469  1.00  0.00    -0.287 OA
ENDBRANCH   1  17
TORSDOF 2
ENDMDL
