MODEL 1
REMARK VINA RESULT:     -10.7      0.000      0.000
REMARK  5 active torsions:
REMARK  status: ('A' for Active; 'I' for Inactive)
REMARK    1  A    between atoms: C_5  and  C_6 
REMARK    2  A    between atoms: C_10  and  C_11 
REMARK       I    between atoms: C_11  and  N_12 
REMARK    3  A    between atoms: N_12  and  N_13 
REMARK       I    between atoms: N_13  and  C_14 
REMARK       I    between atoms: C_14  and  N_15 
REMARK    4  A    between atoms: N_15  and  C_16 
REMARK    5  A    between atoms: C_16  and  C_17 
ROOT
HETATM    1  C   UNL     1      24.829  45.638  51.759  1.00  0.00     0.288 C 
HETATM    2  N   UNL     1      24.591  46.796  51.053  1.00  0.00    -0.261 N 
HETATM    3  O   UNL     1      24.171  44.614  51.591  1.00  0.00    -0.264 OA
HETATM    4  H   UNL     1      25.179  47.623  51.132  1.00  0.00     0.190 HD
ENDROOT
BRANCH   2   5
HETATM    5  N   UNL     1      23.741  46.778  49.936  1.00  0.00    -0.249 N 
HETATM    6  C   UNL     1      23.344  48.011  49.468  1.00  0.00     0.334 C 
HETATM    7  N   UNL     1      22.480  47.921  48.405  1.00  0.00    -0.341 N 
HETATM    8  O   UNL     1      23.761  49.065  49.940  1.00  0.00    -0.246 OA
HETATM    9  H   UNL     1      22.610  47.089  47.847  1.00  0.00     0.164 HD
HETATM   10  H   UNL     1      23.101  45.990  49.881  1.00  0.00     0.192 HD
BRANCH   7  11
HETATM   11  C   UNL     1      22.127  49.141  47.706  1.00  0.00     0.129 C 
BRANCH  11  12
HETATM   12  C   UNL     1      20.801  49.776  48.147  1.00  0.00     0.004 C 
HETATM   13  C   UNL     1      21.010  51.018  49.029  1.00  0.00     0.010 C 
HETATM   14  C   UNL     1      19.685  51.680  49.446  1.00  0.00    -0.018 C 
HETATM   15  C   UNL     1      18.733  50.653  50.077  1.00  0.00     0.004 C 
HETATM   16  C   UNL     1      19.025  52.419  48.277  1.00  0.00     0.010 C 
HETATM   17  C   UNL     1      18.538  49.407  49.216  1.00  0.00     0.001 C 
HETATM   18  C   UNL     1      19.872  48.768  48.838  1.00  0.00     0.006 C 
ENDBRANCH  11  12
ENDBRANCH   7  11
ENDBRANCH   2   5
BRANCH   1  19
HETATM   19  C   UNL     1      25.915  45.722  52.700  1.00  0.00     0.121 A 
HETATM   20  N   UNL     1      26.117  46.820  53.488  1.00  0.00    -0.272 N 
HETATM   21  N   UNL     1      27.147  46.703  54.341  1.00  0.00    -0.174 NA
HETATM   22  H   UNL     1      25.568  47.673  53.498  1.00  0.00     0.189 HD
HETATM   23  C   UNL     1      27.660  45.488  54.092  1.00  0.00     0.089 A 
HETATM   24  C   UNL     1      26.919  44.846  53.061  1.00  0.00     0.071 A 
BRANCH  23  25
HETATM   25  C   UNL     1      28.803  44.952  54.838  1.00  0.00    -0.006 A 
HETATM   26  C   UNL     1      29.360  45.672  55.904  1.00  0.00     0.014 A 
HETATM   27  C   UNL     1      30.423  45.148  56.647  1.00  0.00     0.007 A 
HETATM   28  C   UNL     1      30.960  43.896  56.329  1.00  0.00    -0.062 A 
HETATM   29  C   UNL     1      32.080  43.308  57.136  1.00  0.00     0.048 C 
HETATM   30  C   UNL     1      30.414  43.176  55.263  1.00  0.00     0.007 A 
HETATM   31  C   UNL     1      29.348  43.700  54.523  1.00  0.00     0.014 A 
ENDBRANCH  23  25
ENDBRANCH   1  19
TORSDOF 5
ENDMDL
MODEL 2
REMARK VINA RESULT:     -10.1      1.319      1.731
REMARK  5 active torsions:
REMARK  status: ('A' for Active; 'I' for Inactive)
REMARK    1  A    between atoms: C_5  and  C_6 
REMARK    2  A    between atoms: C_10  and  C_11 
REMARK       I    between atoms: C_11  and  N_12 
REMARK    3  A    between atoms: N_12  and  N_13 
REMARK       I    between atoms: N_13  and  C_14 
REMARK       I    between atoms: C_14  and  N_15 
REMARK    4  A    between atoms: N_15  and  C_16 
REMARK    5  A    between atoms: C_16  and  C_17 
ROOT
HETATM    1  C   UNL     1      24.639  45.033  51.222  1.00  0.00     0.288 C 
HETATM    2  N   UNL     1      24.648  46.206  50.500  1.00  0.00    -0.261 N 
HETATM    3  O   UNL     1      23.625  44.356  51.372  1.00  0.00    -0.264 OA
HETATM    4  H   UNL     1      25.499  46.730  50.308  1.00  0.00     0.190 HD
ENDROOT
BRANCH   2   5
HETATM    5  N   UNL     1      23.546  46.549  49.702  1.00  0.00    -0.249 N 
HETATM    6  C   UNL     1      23.407  47.891  49.421  1.00  0.00     0.334 C 
HETATM    7  N   UNL     1      22.287  48.162  48.675  1.00  0.00    -0.341 N 
HETATM    8  O   UNL     1      24.230  48.730  49.776  1.00  0.00    -0.246 OA
HETATM    9  H   UNL     1      22.004  47.399  48.077  1.00  0.00     0.164 HD
HETATM   10  H   UNL     1      22.717  45.973  49.821  1.00  0.00     0.192 HD
BRANCH   7  11
HETATM   11  C   UNL     1      22.118  49.508  48.162  1.00  0.00     0.129 C 
BRANCH  11  12
HETATM   12  C   UNL     1      20.723  50.111  48.380  1.00  0.00     0.004 C 
HETATM   13  C   UNL     1      20.073  50.575  47.067  1.00  0.00     0.010 C 
HETATM   14  C   UNL     1      18.661  51.150  47.274  1.00  0.00    -0.018 C 
HETATM   15  C   UNL     1      18.665  52.240  48.356  1.00  0.00     0.004 C 
HETATM   16  C   UNL     1      17.639  50.051  47.583  1.00  0.00     0.010 C 
HETATM   17  C   UNL     1      19.329  51.793  49.656  1.00  0.00     0.001 C 
HETATM   18  C   UNL     1      20.734  51.247  49.413  1.00  0.00     0.006 C 
ENDBRANCH  11  12
ENDBRANCH   7  11
ENDBRANCH   2   5
BRANCH   1  19
HETATM   19  C   UNL     1      25.915  44.660  51.775  1.00  0.00     0.121 A 
HETATM   20  N   UNL     1      26.909  44.111  51.015  1.00  0.00    -0.272 N 
HETATM   21  N   UNL     1      28.047  43.873  51.686  1.00  0.00    -0.174 NA
HETATM   22  H   UNL     1      26.870  43.893  50.024  1.00  0.00     0.189 HD
HETATM   23  C   UNL     1      27.788  44.261  52.945  1.00  0.00     0.089 A 
HETATM   24  C   UNL     1      26.456  44.752  53.041  1.00  0.00     0.071 A 
BRANCH  23  25
HETATM   25  C   UNL     1      28.794  44.189  54.010  1.00  0.00    -0.006 A 
HETATM   26  C   UNL     1      28.882  45.199  54.978  1.00  0.00     0.014 A 
HETATM   27  C   UNL     1      29.811  45.114  56.020  1.00  0.00     0.007 A 
HETATM   28  C   UNL     1      30.680  44.024  56.108  1.00  0.00    -0.062 A 
HETATM   29  C   UNL     1      31.661  43.905  57.237  1.00  0.00     0.048 C 
HETATM   30  C   UNL     1      30.603  43.016  55.142  1.00  0.00     0.007 A 
HETATM   31  C   UNL     1      29.672  43.099  54.102  1.00  0.00     0.014 A 
ENDBRANCH  23  25
ENDBRANCH   1  19
TORSDOF 5
ENDMDL
MODEL 3
REMARK VINA RESULT:      -9.4      1.550     11.051
REMARK  5 active torsions:
REMARK  status: ('A' for Active; 'I' for Inactive)
REMARK    1  A    between atoms: C_5  and  C_6 
REMARK    2  A    between atoms: C_10  and  C_11 
REMARK       I    between atoms: C_11  and  N_12 
REMARK    3  A    between atoms: N_12  and  N_13 
REMARK       I    between atoms: N_13  and  C_14 
REMARK       I    between atoms: C_14  and  N_15 
REMARK    4  A    between atoms: N_15  and  C_16 
REMARK    5  A    between atoms: C_16  and  C_17 
ROOT
HETATM    1  C   UNL     1      25.087  47.056  50.440  1.00  0.00     0.288 C 
HETATM    2  N   UNL     1      25.250  45.691  50.530  1.00  0.00    -0.261 N 
HETATM    3  O   UNL     1      25.903  47.852  50.901  1.00  0.00    -0.264 OA
HETATM    4  H   UNL     1      24.619  45.029  50.085  1.00  0.00     0.190 HD
ENDROOT
BRANCH   2   5
HETATM    5  N   UNL     1      26.481  45.155  50.940  1.00  0.00    -0.249 N 
HETATM    6  C   UNL     1      26.475  44.511  52.158  1.00  0.00     0.334 C 
HETATM    7  N   UNL     1      27.716  44.050  52.520  1.00  0.00    -0.341 N 
HETATM    8  O   UNL     1      25.451  44.344  52.814  1.00  0.00    -0.246 OA
HETATM    9  H   UNL     1      28.309  43.825  51.733  1.00  0.00     0.164 HD
HETATM   10  H   UNL     1      27.307  45.671  50.649  1.00  0.00     0.192 HD
BRANCH   7  11
HETATM   11  C   UNL     1      27.816  43.202  53.691  1.00  0.00     0.129 C 
BRANCH  11  12
HETATM   12  C   UNL     1      28.665  43.776  54.834  1.00  0.00     0.004 C 
HETATM   13  C   UNL     1      28.777  45.308  54.767  1.00  0.00     0.010 C 
HETATM   14  C   UNL     1      29.598  45.894  55.929  1.00  0.00    -0.018 C 
HETATM   15  C   UNL     1      30.963  45.199  56.042  1.00  0.00     0.004 C 
HETATM   16  C   UNL     1      28.828  45.844  57.253  1.00  0.00     0.010 C 
HETATM   17  C   UNL     1      30.861  43.676  56.086  1.00  0.00     0.001 C 
HETATM   18  C   UNL     1      30.056  43.131  54.909  1.00  0.00     0.006 C 
ENDBRANCH  11  12
ENDBRANCH   7  11
ENDBRANCH   2   5
BRANCH   1  19
HETATM   19  C   UNL     1      23.892  47.473  49.755  1.00  0.00     0.121 A 
HETATM   20  N   UNL     1      23.047  46.584  49.152  1.00  0.00    -0.272 N 
HETATM   21  N   UNL     1      21.957  47.145  48.606  1.00  0.00    -0.174 NA
HETATM   22  H   UNL     1      23.158  45.577  49.100  1.00  0.00     0.189 HD
HETATM   23  C   UNL     1      22.097  48.460  48.839  1.00  0.00     0.089 A 
HETATM   24  C   UNL     1      23.305  48.705  49.550  1.00  0.00     0.071 A 
BRANCH  23  25
HETATM   25  C   UNL     1      21.093  49.442  48.418  1.00  0.00    -0.006 A 
HETATM   26  C   UNL     1      20.013  49.057  47.611  1.00  0.00     0.014 A 
HETATM   27  C   UNL     1      19.029  49.979  47.241  1.00  0.00     0.007 A 
HETATM   28  C   UNL     1      19.111  51.310  47.660  1.00  0.00    -0.062 A 
HETATM   29  C   UNL     1      18.047  52.303  47.296  1.00  0.00     0.048 C 
HETATM   30  C   UNL     1      20.189  51.703  48.459  1.00  0.00     0.007 A 
HETATM   31  C   UNL     1      21.171  50.779  48.831  1.00  0.00     0.014 A 
ENDBRANCH  23  25
ENDBRANCH   1  19
TORSDOF 5
ENDMDL
MODEL 4
REMARK VINA RESULT:      -9.1      2.127     11.378
REMARK  5 active torsions:
REMARK  status: ('A' for Active; 'I' for Inactive)
REMARK    1  A    between atoms: C_5  and  C_6 
REMARK    2  A    between atoms: C_10  and  C_11 
REMARK       I    between atoms: C_11  and  N_12 
REMARK    3  A    between atoms: N_12  and  N_13 
REMARK       I    between atoms: N_13  and  C_14 
REMARK       I    between atoms: C_14  and  N_15 
REMARK    4  A    between atoms: N_15  and  C_16 
REMARK    5  A    between atoms: C_16  and  C_17 
ROOT
HETATM    1  C   UNL     1      23.157  48.759  48.949  1.00  0.00     0.288 C 
HETATM    2  N   UNL     1      23.701  47.993  49.955  1.00  0.00    -0.261 N 
HETATM    3  O   UNL     1      23.826  49.198  48.016  1.00  0.00    -0.264 OA
HETATM    4  H   UNL     1      23.141  47.563  50.688  1.00  0.00     0.190 HD
ENDROOT
BRANCH   2   5
HETATM    5  N   UNL     1      25.001  47.479  49.824  1.00  0.00    -0.249 N 
HETATM    6  C   UNL     1      25.184  46.193  50.283  1.00  0.00     0.334 C 
HETATM    7  N   UNL     1      26.485  45.769  50.166  1.00  0.00    -0.341 N 
HETATM    8  O   UNL     1      24.262  45.505  50.710  1.00  0.00    -0.246 OA
HETATM    9  H   UNL     1      26.985  46.203  49.403  1.00  0.00     0.164 HD
HETATM   10  H   UNL     1      25.755  48.156  49.912  1.00  0.00     0.192 HD
BRANCH   7  11
HETATM   11  C   UNL     1      26.778  44.377  50.447  1.00  0.00     0.129 C 
BRANCH  11  12
HETATM   12  C   UNL     1      27.621  44.137  51.706  1.00  0.00     0.004 C 
HETATM   13  C   UNL     1      27.874  42.643  51.966  1.00  0.00     0.010 C 
HETATM   14  C   UNL     1      28.748  42.395  53.208  1.00  0.00    -0.018 C 
HETATM   15  C   UNL     1      28.179  43.127  54.433  1.00  0.00     0.004 C 
HETATM   16  C   UNL     1      30.213  42.769  52.957  1.00  0.00     0.010 C 
HETATM   17  C   UNL     1      27.904  44.607  54.176  1.00  0.00     0.001 C 
HETATM   18  C   UNL     1      27.020  44.811  52.948  1.00  0.00     0.006 C 
ENDBRANCH  11  12
ENDBRANCH   7  11
ENDBRANCH   2   5
BRANCH   1  19
HETATM   19  C   UNL     1      21.742  48.994  49.073  1.00  0.00     0.121 A 
HETATM   20  N   UNL     1      20.864  48.003  49.410  1.00  0.00    -0.272 N 
HETATM   21  N   UNL     1      19.591  48.413  49.530  1.00  0.00    -0.174 NA
HETATM   22  H   UNL     1      21.082  47.028  49.590  1.00  0.00     0.189 HD
HETATM   23  C   UNL     1      19.626  49.723  49.239  1.00  0.00     0.089 A 
HETATM   24  C   UNL     1      20.959  50.122  48.938  1.00  0.00     0.071 A 
BRANCH  23  25
HETATM   25  C   UNL     1      18.427  50.567  49.277  1.00  0.00    -0.006 A 
HETATM   26  C   UNL     1      18.483  51.861  49.813  1.00  0.00     0.014 A 
HETATM   27  C   UNL     1      17.353  52.686  49.813  1.00  0.00     0.007 A 
HETATM   28  C   UNL     1      16.141  52.229  49.289  1.00  0.00    -0.062 A 
HETATM   29  C   UNL     1      14.929  53.113  49.255  1.00  0.00     0.048 C 
HETATM   30  C   UNL     1      16.077  50.936  48.759  1.00  0.00     0.007 A 
HETATM   31  C   UNL     1      17.208  50.113  48.756  1.00  0.00     0.014 A 
ENDBRANCH  23  25
ENDBRANCH   1  19
TORSDOF 5
ENDMDL
MODEL 5
REMARK VINA RESULT:      -8.8      1.849      3.020
REMARK  5 active torsions:
REMARK  status: ('A' for Active; 'I' for Inactive)
REMARK    1  A    between atoms: C_5  and  C_6 
REMARK    2  A    between atoms: C_10  and  C_11 
REMARK       I    between atoms: C_11  and  N_12 
REMARK    3  A    between atoms: N_12  and  N_13 
REMARK       I    between atoms: N_13  and  C_14 
REMARK       I    between atoms: C_14  and  N_15 
REMARK    4  A    between atoms: N_15  and  C_16 
REMARK    5  A    between atoms: C_16  and  C_17 
ROOT
HETATM    1  C   UNL     1      24.150  47.511  49.611  1.00  0.00     0.288 C 
HETATM    2  N   UNL     1      22.958  46.969  49.183  1.00  0.00    -0.261 N 
HETATM    3  O   UNL     1      24.670  48.481  49.065  1.00  0.00    -0.264 OA
HETATM    4  H   UNL     1      22.484  46.216  49.676  1.00  0.00     0.190 HD
ENDROOT
BRANCH   2   5
HETATM    5  N   UNL     1      22.167  47.659  48.250  1.00  0.00    -0.249 N 
HETATM    6  C   UNL     1      20.805  47.504  48.392  1.00  0.00     0.334 C 
HETATM    7  N   UNL     1      20.093  48.167  47.425  1.00  0.00    -0.341 N 
HETATM    8  O   UNL     1      20.304  46.869  49.316  1.00  0.00    -0.246 OA
HETATM    9  H   UNL     1      20.562  48.987  47.067  1.00  0.00     0.164 HD
HETATM   10  H   UNL     1      22.566  47.761  47.322  1.00  0.00     0.192 HD
BRANCH   7  11
HETATM   11  C   UNL     1      18.651  48.232  47.561  1.00  0.00     0.129 C 
BRANCH  11  12
HETATM   12  C   UNL     1      18.099  49.616  47.926  1.00  0.00     0.004 C 
HETATM   13  C   UNL     1      18.837  50.247  49.118  1.00  0.00     0.010 C 
HETATM   14  C   UNL     1      18.312  51.650  49.467  1.00  0.00    -0.018 C 
HETATM   15  C   UNL     1      16.787  51.636  49.649  1.00  0.00     0.004 C 
HETATM   16  C   UNL     1      18.747  52.695  48.434  1.00  0.00     0.010 C 
HETATM   17  C   UNL     1      16.048  50.991  48.478  1.00  0.00     0.001 C 
HETATM   18  C   UNL     1      16.584  49.594  48.174  1.00  0.00     0.006 C 
ENDBRANCH  11  12
ENDBRANCH   7  11
ENDBRANCH   2   5
BRANCH   1  19
HETATM   19  C   UNL     1      24.728  46.856  50.755  1.00  0.00     0.121 A 
HETATM   20  N   UNL     1      24.293  45.640  51.199  1.00  0.00    -0.272 N 
HETATM   21  N   UNL     1      24.981  45.157  52.246  1.00  0.00    -0.174 NA
HETATM   22  H   UNL     1      23.537  45.083  50.812  1.00  0.00     0.189 HD
HETATM   23  C   UNL     1      25.895  46.102  52.518  1.00  0.00     0.089 A 
HETATM   24  C   UNL     1      25.761  47.188  51.608  1.00  0.00     0.071 A 
BRANCH  23  25
HETATM   25  C   UNL     1      26.879  45.953  53.595  1.00  0.00    -0.006 A 
HETATM   26  C   UNL     1      27.608  44.764  53.736  1.00  0.00     0.014 A 
HETATM   27  C   UNL     1      28.578  44.632  54.734  1.00  0.00     0.007 A 
HETATM   28  C   UNL     1      28.831  45.682  55.621  1.00  0.00    -0.062 A 
HETATM   29  C   UNL     1      29.889  45.565  56.678  1.00  0.00     0.048 C 
HETATM   30  C   UNL     1      28.102  46.868  55.491  1.00  0.00     0.007 A 
HETATM   31  C   UNL     1      27.135  47.001  54.490  1.00  0.00     0.014 A 
ENDBRANCH  23  25
ENDBRANCH   1  19
TORSDOF 5
ENDMDL
MODEL 6
REMARK VINA RESULT:      -8.7     18.076     20.375
REMARK  5 active torsions:
REMARK  status: ('A' for Active; 'I' for Inactive)
REMARK    1  A    between atoms: C_5  and  C_6 
REMARK    2  A    between atoms: C_10  and  C_11 
REMARK       I    between atoms: C_11  and  N_12 
REMARK    3  A    between atoms: N_12  and  N_13 
REMARK       I    between atoms: N_13  and  C_14 
REMARK       I    between atoms: C_14  and  N_15 
REMARK    4  A    between atoms: N_15  and  C_16 
REMARK    5  A    between atoms: C_16  and  C_17 
ROOT
HETATM    1  C   UNL     1      39.733  43.164  63.149  1.00  0.00     0.288 C 
HETATM    2  N   UNL     1      38.474  43.631  62.844  1.00  0.00    -0.261 N 
HETATM    3  O   UNL     1      40.706  43.907  63.255  1.00  0.00    -0.264 OA
HETATM    4  H   UNL     1      37.651  43.033  62.830  1.00  0.00     0.190 HD
ENDROOT
BRANCH   2   5
HETATM    5  N   UNL     1      38.206  45.008  62.881  1.00  0.00    -0.249 N 
HETATM    6  C   UNL     1      37.335  45.420  63.866  1.00  0.00     0.334 C 
HETATM    7  N   UNL     1      37.083  46.769  63.819  1.00  0.00    -0.341 N 
HETATM    8  O   UNL     1      36.878  44.654  64.709  1.00  0.00    -0.246 OA
HETATM    9  H   UNL     1      37.845  47.311  63.437  1.00  0.00     0.164 HD
HETATM   10  H   UNL     1      38.209  45.484  61.983  1.00  0.00     0.192 HD
BRANCH   7  11
HETATM   11  C   UNL     1      36.325  47.360  64.904  1.00  0.00     0.129 C 
BRANCH  11  12
HETATM   12  C   UNL     1      37.100  48.376  65.754  1.00  0.00     0.004 C 
HETATM   13  C   UNL     1      37.986  49.299  64.902  1.00  0.00     0.010 C 
HETATM   14  C   UNL     1      38.740  50.343  65.743  1.00  0.00    -0.018 C 
HETATM   15  C   UNL     1      39.508  49.671  66.891  1.00  0.00     0.004 C 
HETATM   16  C   UNL     1      37.805  51.443  66.257  1.00  0.00     0.010 C 
HETATM   17  C   UNL     1      38.639  48.736  67.729  1.00  0.00     0.001 C 
HETATM   18  C   UNL     1      37.922  47.704  66.862  1.00  0.00     0.006 C 
ENDBRANCH  11  12
ENDBRANCH   7  11
ENDBRANCH   2   5
BRANCH   1  19
HETATM   19  C   UNL     1      39.813  41.740  63.343  1.00  0.00     0.121 A 
HETATM   20  N   UNL     1      39.342  40.848  62.421  1.00  0.00    -0.272 N 
HETATM   21  N   UNL     1      39.546  39.562  62.745  1.00  0.00    -0.174 NA
HETATM   22  H   UNL     1      38.885  41.065  61.541  1.00  0.00     0.189 HD
HETATM   23  C   UNL     1      40.159  39.604  63.939  1.00  0.00     0.089 A 
HETATM   24  C   UNL     1      40.336  40.954  64.350  1.00  0.00     0.071 A 
BRANCH  23  25
HETATM   25  C   UNL     1      40.585  38.391  64.644  1.00  0.00    -0.006 A 
HETATM   26  C   UNL     1      41.725  37.688  64.230  1.00  0.00     0.014 A 
HETATM   27  C   UNL     1      42.161  36.555  64.924  1.00  0.00     0.007 A 
HETATM   28  C   UNL     1      41.457  36.093  66.041  1.00  0.00    -0.062 A 
HETATM   29  C   UNL     1      41.930  34.897  66.813  1.00  0.00     0.048 C 
HETATM   30  C   UNL     1      40.315  36.785  66.455  1.00  0.00     0.007 A 
HETATM   31  C   UNL     1      39.882  37.921  65.762  1.00  0.00     0.014 A 
ENDBRANCH  23  25
ENDBRANCH   1  19
TORSDOF 5
ENDMDL
MODEL 7
REMARK VINA RESULT:      -8.4      7.015      8.893
REMARK  5 active torsions:
REMARK  status: ('A' for Active; 'I' for Inactive)
REMARK    1  A    between atoms: C_5  and  C_6 
REMARK    2  A    between atoms: C_10  and  C_11 
REMARK       I    between atoms: C_11  and  N_12 
REMARK    3  A    between atoms: N_12  and  N_13 
REMARK       I    between atoms: N_13  and  C_14 
REMARK       I    between atoms: C_14  and  N_15 
REMARK    4  A    between atoms: N_15  and  C_16 
REMARK    5  A    between atoms: C_16  and  C_17 
ROOT
HETATM    1  C   UNL     1      26.778  41.942  50.549  1.00  0.00     0.288 C 
HETATM    2  N   UNL     1      27.246  42.299  49.305  1.00  0.00    -0.261 N 
HETATM    3  O   UNL     1      25.685  41.404  50.716  1.00  0.00    -0.264 OA
HETATM    4  H   UNL     1      28.180  42.674  49.152  1.00  0.00     0.190 HD
ENDROOT
BRANCH   2   5
HETATM    5  N   UNL     1      26.595  41.840  48.149  1.00  0.00    -0.249 N 
HETATM    6  C   UNL     1      27.247  40.847  47.451  1.00  0.00     0.334 C 
HETATM    7  N   UNL     1      26.579  40.475  46.311  1.00  0.00    -0.341 N 
HETATM    8  O   UNL     1      28.292  40.337  47.845  1.00  0.00    -0.246 OA
HETATM    9  H   UNL     1      25.579  40.599  46.369  1.00  0.00     0.164 HD
HETATM   10  H   UNL     1      26.049  42.532  47.644  1.00  0.00     0.192 HD
BRANCH   7  11
HETATM   11  C   UNL     1      27.065  39.321  45.580  1.00  0.00     0.129 C 
BRANCH  11  12
HETATM   12  C   UNL     1      27.653  39.633  44.197  1.00  0.00     0.004 C 
HETATM   13  C   UNL     1      28.838  40.609  44.271  1.00  0.00     0.010 C 
HETATM   14  C   UNL     1      29.456  40.900  42.892  1.00  0.00    -0.018 C 
HETATM   15  C   UNL     1      28.379  41.344  41.892  1.00  0.00     0.004 C 
HETATM   16  C   UNL     1      30.259  39.707  42.365  1.00  0.00     0.010 C 
HETATM   17  C   UNL     1      27.187  40.390  41.829  1.00  0.00     0.001 C 
HETATM   18  C   UNL     1      26.591  40.141  43.212  1.00  0.00     0.006 C 
ENDBRANCH  11  12
ENDBRANCH   7  11
ENDBRANCH   2   5
BRANCH   1  19
HETATM   19  C   UNL     1      27.674  42.240  51.635  1.00  0.00     0.121 A 
HETATM   20  N   UNL     1      28.834  41.546  51.838  1.00  0.00    -0.272 N 
HETATM   21  N   UNL     1      29.571  41.993  52.867  1.00  0.00    -0.174 NA
HETATM   22  H   UNL     1      29.182  40.766  51.289  1.00  0.00     0.189 HD
HETATM   23  C   UNL     1      28.860  43.011  53.378  1.00  0.00     0.089 A 
HETATM   24  C   UNL     1      27.658  43.189  52.637  1.00  0.00     0.071 A 
BRANCH  23  25
HETATM   25  C   UNL     1      29.331  43.800  54.521  1.00  0.00    -0.006 A 
HETATM   26  C   UNL     1      28.612  44.920  54.960  1.00  0.00     0.014 A 
HETATM   27  C   UNL     1      29.033  45.652  56.075  1.00  0.00     0.007 A 
HETATM   28  C   UNL     1      30.192  45.286  56.766  1.00  0.00    -0.062 A 
HETATM   29  C   UNL     1      30.639  46.043  57.981  1.00  0.00     0.048 C 
HETATM   30  C   UNL     1      30.919  44.174  56.329  1.00  0.00     0.007 A 
HETATM   31  C   UNL     1      30.494  43.441  55.216  1.00  0.00     0.014 A 
ENDBRANCH  23  25
ENDBRANCH   1  19
TORSDOF 5
ENDMDL
MODEL 8
REMARK VINA RESULT:      -8.3      7.560      9.237
REMARK  5 active torsions:
REMARK  status: ('A' for Active; 'I' for Inactive)
REMARK    1  A    between atoms: C_5  and  C_6 
REMARK    2  A    between atoms: C_10  and  C_11 
REMARK       I    between atoms: C_11  and  N_12 
REMARK    3  A    between atoms: N_12  and  N_13 
REMARK       I    between atoms: N_13  and  C_14 
REMARK       I    between atoms: C_14  and  N_15 
REMARK    4  A    between atoms: N_15  and  C_16 
REMARK    5  A    between atoms: C_16  and  C_17 
ROOT
HETATM    1  C   UNL     1      28.138  40.338  51.298  1.00  0.00     0.288 C 
HETATM    2  N   UNL     1      26.808  40.141  51.000  1.00  0.00    -0.261 N 
HETATM    3  O   UNL     1      29.020  39.562  50.937  1.00  0.00    -0.264 OA
HETATM    4  H   UNL     1      26.084  40.818  51.229  1.00  0.00     0.190 HD
ENDROOT
BRANCH   2   5
HETATM    5  N   UNL     1      26.435  39.168  50.060  1.00  0.00    -0.249 N 
HETATM    6  C   UNL     1      26.144  39.637  48.798  1.00  0.00     0.334 C 
HETATM    7  N   UNL     1      25.744  38.642  47.942  1.00  0.00    -0.341 N 
HETATM    8  O   UNL     1      26.274  40.817  48.484  1.00  0.00    -0.246 OA
HETATM    9  H   UNL     1      26.135  37.737  48.162  1.00  0.00     0.164 HD
HETATM   10  H   UNL     1      25.924  38.370  50.429  1.00  0.00     0.192 HD
BRANCH   7  11
HETATM   11  C   UNL     1      25.579  38.972  46.539  1.00  0.00     0.129 C 
BRANCH  11  12
HETATM   12  C   UNL     1      26.874  38.961  45.717  1.00  0.00     0.004 C 
HETATM   13  C   UNL     1      26.656  39.437  44.272  1.00  0.00     0.010 C 
HETATM   14  C   UNL     1      27.957  39.462  43.451  1.00  0.00    -0.018 C 
HETATM   15  C   UNL     1      28.682  38.111  43.531  1.00  0.00     0.004 C 
HETATM   16  C   UNL     1      28.870  40.620  43.867  1.00  0.00     0.010 C 
HETATM   17  C   UNL     1      28.884  37.621  44.963  1.00  0.00     0.001 C 
HETATM   18  C   UNL     1      27.569  37.593  45.740  1.00  0.00     0.006 C 
ENDBRANCH  11  12
ENDBRANCH   7  11
ENDBRANCH   2   5
BRANCH   1  19
HETATM   19  C   UNL     1      28.412  41.531  52.056  1.00  0.00     0.121 A 
HETATM   20  N   UNL     1      28.077  42.777  51.606  1.00  0.00    -0.272 N 
HETATM   21  N   UNL     1      28.361  43.768  52.466  1.00  0.00    -0.174 NA
HETATM   22  H   UNL     1      27.633  43.007  50.723  1.00  0.00     0.189 HD
HETATM   23  C   UNL     1      28.927  43.155  53.518  1.00  0.00     0.089 A 
HETATM   24  C   UNL     1      28.984  41.751  53.293  1.00  0.00     0.071 A 
BRANCH  23  25
HETATM   25  C   UNL     1      29.370  43.889  54.708  1.00  0.00    -0.006 A 
HETATM   26  C   UNL     1      30.488  43.459  55.436  1.00  0.00     0.014 A 
HETATM   27  C   UNL     1      30.941  44.178  56.546  1.00  0.00     0.007 A 
HETATM   28  C   UNL     1      30.276  45.337  56.959  1.00  0.00    -0.062 A 
HETATM   29  C   UNL     1      30.768  46.135  58.130  1.00  0.00     0.048 C 
HETATM   30  C   UNL     1      29.156  45.767  56.242  1.00  0.00     0.007 A 
HETATM   31  C   UNL     1      28.706  45.049  55.129  1.00  0.00     0.014 A 
ENDBRANCH  23  25
ENDBRANCH   1  19
TORSDOF 5
ENDMDL
MODEL 9
REMARK VINA RESULT:      -8.2      2.472     11.648
REMARK  5 active torsions:
REMARK  status: ('A' for Active; 'I' for Inactive)
REMARK    1  A    between atoms: C_5  and  C_6 
REMARK    2  A    between atoms: C_10  and  C_11 
REMARK       I    between atoms: C_11  and  N_12 
REMARK    3  A    between atoms: N_12  and  N_13 
REMARK       I    between atoms: N_13  and  C_14 
REMARK       I    between atoms: C_14  and  N_15 
REMARK    4  A    between atoms: N_15  and  C_16 
REMARK    5  A    between atoms: C_16  and  C_17 
ROOT
HETATM    1  C   UNL     1      22.824  48.520  48.711  1.00  0.00     0.288 C 
HETATM    2  N   UNL     1      23.360  47.802  49.756  1.00  0.00    -0.261 N 
HETATM    3  O   UNL     1      23.518  49.043  47.842  1.00  0.00    -0.264 OA
HETATM    4  H   UNL     1      22.789  47.304  50.435  1.00  0.00     0.190 HD
ENDROOT
BRANCH   2   5
HETATM    5  N   UNL     1      24.714  47.433  49.735  1.00  0.00    -0.249 N 
HETATM    6  C   UNL     1      24.986  46.136  50.113  1.00  0.00     0.334 C 
HETATM    7  N   UNL     1      26.329  45.855  50.112  1.00  0.00    -0.341 N 
HETATM    8  O   UNL     1      24.103  45.325  50.378  1.00  0.00    -0.246 OA
HETATM    9  H   UNL     1      26.857  46.401  49.446  1.00  0.00     0.164 HD
HETATM   10  H   UNL     1      25.377  48.170  49.959  1.00  0.00     0.192 HD
BRANCH   7  11
HETATM   11  C   UNL     1      26.739  44.479  50.318  1.00  0.00     0.129 C 
BRANCH  11  12
HETATM   12  C   UNL     1      27.528  44.228  51.610  1.00  0.00     0.004 C 
HETATM   13  C   UNL     1      27.809  42.735  51.844  1.00  0.00     0.010 C 
HETATM   14  C   UNL     1      28.630  42.477  53.120  1.00  0.00    -0.018 C 
HETATM   15  C   UNL     1      27.985  43.160  54.334  1.00  0.00     0.004 C 
HETATM   16  C   UNL     1      30.094  42.894  52.948  1.00  0.00     0.010 C 
HETATM   17  C   UNL     1      27.682  44.639  54.101  1.00  0.00     0.001 C 
HETATM   18  C   UNL     1      26.852  44.853  52.838  1.00  0.00     0.006 C 
ENDBRANCH  11  12
ENDBRANCH   7  11
ENDBRANCH   2   5
BRANCH   1  19
HETATM   19  C   UNL     1      21.386  48.600  48.713  1.00  0.00     0.121 A 
HETATM   20  N   UNL     1      20.668  48.805  49.857  1.00  0.00    -0.272 N 
HETATM   21  N   UNL     1      19.343  48.902  49.665  1.00  0.00    -0.174 NA
HETATM   22  H   UNL     1      21.034  48.904  50.799  1.00  0.00     0.189 HD
HETATM   23  C   UNL     1      19.177  48.734  48.343  1.00  0.00     0.089 A 
HETATM   24  C   UNL     1      20.437  48.533  47.714  1.00  0.00     0.071 A 
BRANCH  23  25
HETATM   25  C   UNL     1      17.858  48.793  47.705  1.00  0.00    -0.006 A 
HETATM   26  C   UNL     1      17.740  49.061  46.334  1.00  0.00     0.014 A 
HETATM   27  C   UNL     1      16.488  49.077  45.711  1.00  0.00     0.007 A 
HETATM   28  C   UNL     1      15.326  48.838  46.450  1.00  0.00    -0.062 A 
HETATM   29  C   UNL     1      13.979  48.822  45.790  1.00  0.00     0.048 C 
HETATM   30  C   UNL     1      15.435  48.578  47.819  1.00  0.00     0.007 A 
HETATM   31  C   UNL     1      16.688  48.559  48.441  1.00  0.00     0.014 A 
ENDBRANCH  23  25
ENDBRANCH   1  19
TORSDOF 5
ENDMDL
MODEL 10
REMARK VINA RESULT:      -8.2      2.915      3.827
REMARK  5 active torsions:
REMARK  status: ('A' for Active; 'I' for Inactive)
REMARK    1  A    between atoms: C_5  and  C_6 
REMARK    2  A    between atoms: C_10  and  C_11 
REMARK       I    between atoms: C_11  and  N_12 
REMARK    3  A    between atoms: N_12  and  N_13 
REMARK       I    between atoms: N_13  and  C_14 
REMARK       I    between atoms: C_14  and  N_15 
REMARK    4  A    between atoms: N_15  and  C_16 
REMARK    5  A    between atoms: C_16  and  C_17 
ROOT
HETATM    1  C   UNL     1      26.893  42.922  50.245  1.00  0.00     0.288 C 
HETATM    2  N   UNL     1      25.541  43.004  50.493  1.00  0.00    -0.261 N 
HETATM    3  O   UNL     1      27.353  42.834  49.108  1.00  0.00    -0.264 OA
HETATM    4  H   UNL     1      25.158  43.154  51.424  1.00  0.00     0.190 HD
ENDROOT
BRANCH   2   5
HETATM    5  N   UNL     1      24.644  43.234  49.438  1.00  0.00    -0.249 N 
HETATM    6  C   UNL     1      23.415  43.742  49.799  1.00  0.00     0.334 C 
HETATM    7  N   UNL     1      22.572  43.901  48.728  1.00  0.00    -0.341 N 
HETATM    8  O   UNL     1      23.140  44.049  50.956  1.00  0.00    -0.246 OA
HETATM    9  H   UNL     1      23.053  44.076  47.857  1.00  0.00     0.164 HD
HETATM   10  H   UNL     1      24.710  42.591  48.654  1.00  0.00     0.192 HD
BRANCH   7  11
HETATM   11  C   UNL     1      21.316  44.591  48.944  1.00  0.00     0.129 C 
BRANCH  11  12
HETATM   12  C   UNL     1      21.061  45.778  48.004  1.00  0.00     0.004 C 
HETATM   13  C   UNL     1      20.050  46.779  48.585  1.00  0.00     0.010 C 
HETATM   14  C   UNL     1      19.815  47.989  47.664  1.00  0.00    -0.018 C 
HETATM   15  C   UNL     1      19.456  47.535  46.242  1.00  0.00     0.004 C 
HETATM   16  C   UNL     1      21.012  48.946  47.666  1.00  0.00     0.010 C 
HETATM   17  C   UNL     1      20.445  46.523  45.666  1.00  0.00     0.001 C 
HETATM   18  C   UNL     1      20.637  45.329  46.599  1.00  0.00     0.006 C 
ENDBRANCH  11  12
ENDBRANCH   7  11
ENDBRANCH   2   5
BRANCH   1  19
HETATM   19  C   UNL     1      27.722  42.960  51.421  1.00  0.00     0.121 A 
HETATM   20  N   UNL     1      28.714  42.048  51.646  1.00  0.00    -0.272 N 
HETATM   21  N   UNL     1      29.419  42.267  52.767  1.00  0.00    -0.174 NA
HETATM   22  H   UNL     1      28.967  41.263  51.054  1.00  0.00     0.189 HD
HETATM   23  C   UNL     1      28.857  43.355  53.316  1.00  0.00     0.089 A 
HETATM   24  C   UNL     1      27.782  43.813  52.504  1.00  0.00     0.071 A 
BRANCH  23  25
HETATM   25  C   UNL     1      29.353  43.949  54.562  1.00  0.00    -0.006 A 
HETATM   26  C   UNL     1      30.486  43.427  55.200  1.00  0.00     0.014 A 
HETATM   27  C   UNL     1      30.990  44.015  56.365  1.00  0.00     0.007 A 
HETATM   28  C   UNL     1      30.360  45.131  56.924  1.00  0.00    -0.062 A 
HETATM   29  C   UNL     1      30.906  45.791  58.156  1.00  0.00     0.048 C 
HETATM   30  C   UNL     1      29.225  45.653  56.297  1.00  0.00     0.007 A 
HETATM   31  C   UNL     1      28.725  45.067  55.130  1.00  0.00     0.014 A 
ENDBRANCH  23  25
ENDBRANCH   1  19
TORSDOF 5
ENDMDL
