MODEL 1
REMARK VINA RESULT:      -9.8      0.000      0.000
REMARK  2 active torsions:
REMARK  status: ('A' for Active; 'I' for Inactive)
REMARK    1  A    between atoms: C_4  and  C_18 
REMARK    2  A    between atoms: C_9  and  C_12 
ROOT
HETATM    1  O   UNL     1      27.697  43.191  51.947  1.00  0.00    -0.267 OA
HETATM    2  C   UNL     1      27.270  44.279  52.310  1.00  0.00     0.259 A 
HETATM    3  N   UNL     1      26.292  44.950  51.625  1.00  0.00    -0.309 N 
HETATM    4  C   UNL     1      25.813  46.182  51.996  1.00  0.00     0.137 A 
HETATM    5  N   UNL     1      26.222  46.809  53.054  1.00  0.00    -0.232 NA
HETATM    6  C   UNL     1      27.228  46.206  53.826  1.00  0.00     0.074 A 
HETATM    7  C   UNL     1      27.707  46.877  54.949  1.00  0.00     0.033 A 
HETATM    8  C   UNL     1      28.712  46.311  55.745  1.00  0.00     0.014 A 
HETATM    9  C   UNL     1      29.255  45.057  55.432  1.00  0.00    -0.022 A 
HETATM   10  C   UNL     1      28.778  44.380  54.302  1.00  0.00     0.031 A 
HETATM   11  C   UNL     1      27.776  44.960  53.514  1.00  0.00     0.061 A 
HETATM   12  H   UNL     1      25.972  44.532  50.760  1.00  0.00     0.170 HD
ENDROOT
BRANCH   4  13
HETATM   13  C   UNL     1      24.710  46.766  51.122  1.00  0.00     0.198 C 
HETATM   14  C   UNL     1      24.242  45.721  50.115  1.00  0.00     0.045 C 
HETATM   15  C   UNL     1      23.090  46.305  49.310  1.00  0.00     0.044 C 
HETATM   16  C   UNL     1      23.400  47.713  48.887  1.00  0.00    -0.025 A 
HETATM   17  C   UNL     1      22.620  48.337  47.903  1.00  0.00     0.010 A 
HETATM   18  C   UNL     1      24.443  48.433  49.484  1.00  0.00     0.076 A 
HETATM   19  C   UNL     1      22.897  49.646  47.507  1.00  0.00     0.001 A 
HETATM   20  C   UNL     1      23.953  50.344  48.092  1.00  0.00     0.003 A 
HETATM   21  C   UNL     1      24.728  49.734  49.077  1.00  0.00     0.037 A 
HETATM   22  O   UNL     1      25.257  47.912  50.455  1.00  0.00    -0.338 OA
ENDBRANCH   4  13
BRANCH   9  23
HETATM   23  C   UNL     1      30.298  44.485  56.265  1.00  0.00     0.010 A 
HETATM   24  C   UNL     1      30.804  44.890  57.523  1.00  0.00     0.152 A 
HETATM   25  N   UNL     1      31.764  44.082  57.980  1.00  0.00    -0.187 NA
HETATM   26  N   UNL     1      31.878  43.154  57.016  1.00  0.00    -0.289 N 
HETATM   27  H   UNL     1      32.559  42.412  57.139  1.00  0.00     0.188 HD
HETATM   28  C   UNL     1      31.021  43.348  55.970  1.00  0.00     0.123 A 
ENDBRANCH   9  23
TORSDOF 2
ENDMDL
MODEL 2
REMARK VINA RESULT:      -9.7      2.827      9.156
REMARK  2 active torsions:
REMARK  status: ('A' for Active; 'I' for Inactive)
REMARK    1  A    between atoms: C_4  and  C_18 
REMARK    2  A    between atoms: C_9  and  C_12 
ROOT
HETATM    1  O   UNL     1      24.163  42.792  51.178  1.00  0.00    -0.267 OA
HETATM    2  C   UNL     1      24.629  43.882  51.484  1.00  0.00     0.259 A 
HETATM    3  N   UNL     1      25.458  44.051  52.562  1.00  0.00    -0.309 N 
HETATM    4  C   UNL     1      25.974  45.265  52.940  1.00  0.00     0.137 A 
HETATM    5  N   UNL     1      25.749  46.362  52.288  1.00  0.00    -0.232 NA
HETATM    6  C   UNL     1      24.908  46.298  51.165  1.00  0.00     0.074 A 
HETATM    7  C   UNL     1      24.626  47.471  50.468  1.00  0.00     0.033 A 
HETATM    8  C   UNL     1      23.789  47.450  49.345  1.00  0.00     0.014 A 
HETATM    9  C   UNL     1      23.221  46.249  48.895  1.00  0.00    -0.022 A 
HETATM   10  C   UNL     1      23.499  45.068  49.594  1.00  0.00     0.031 A 
HETATM   11  C   UNL     1      24.334  45.105  50.718  1.00  0.00     0.061 A 
HETATM   12  H   UNL     1      25.625  43.236  53.140  1.00  0.00     0.170 HD
ENDROOT
BRANCH   4  13
HETATM   13  C   UNL     1      26.893  45.255  54.156  1.00  0.00     0.198 C 
HETATM   14  C   UNL     1      27.393  46.668  54.436  1.00  0.00     0.045 C 
HETATM   15  C   UNL     1      28.243  46.641  55.698  1.00  0.00     0.044 C 
HETATM   16  C   UNL     1      29.184  45.469  55.677  1.00  0.00    -0.025 A 
HETATM   17  C   UNL     1      30.249  45.411  56.587  1.00  0.00     0.010 A 
HETATM   18  C   UNL     1      28.997  44.410  54.781  1.00  0.00     0.076 A 
HETATM   19  C   UNL     1      31.124  44.324  56.580  1.00  0.00     0.001 A 
HETATM   20  C   UNL     1      30.942  43.286  55.666  1.00  0.00     0.003 A 
HETATM   21  C   UNL     1      29.881  43.333  54.764  1.00  0.00     0.037 A 
HETATM   22  O   UNL     1      27.985  44.374  53.858  1.00  0.00    -0.338 OA
ENDBRANCH   4  13
BRANCH   9  23
HETATM   23  C   UNL     1      22.353  46.245  47.730  1.00  0.00     0.010 A 
HETATM   24  C   UNL     1      22.231  45.316  46.670  1.00  0.00     0.152 A 
HETATM   25  N   UNL     1      21.292  45.660  45.785  1.00  0.00    -0.187 NA
HETATM   26  N   UNL     1      20.808  46.812  46.274  1.00  0.00    -0.289 N 
HETATM   27  H   UNL     1      20.064  47.277  45.764  1.00  0.00     0.188 HD
HETATM   28  C   UNL     1      21.406  47.204  47.437  1.00  0.00     0.123 A 
ENDBRANCH   9  23
TORSDOF 2
ENDMDL
MODEL 3
REMARK VINA RESULT:      -9.7      3.949      5.258
REMARK  2 active torsions:
REMARK  status: ('A' for Active; 'I' for Inactive)
REMARK    1  A    between atoms: C_4  and  C_18 
REMARK    2  A    between atoms: C_9  and  C_12 
ROOT
HETATM    1  O   UNL     1      26.249  45.558  53.669  1.00  0.00    -0.267 OA
HETATM    2  C   UNL     1      26.899  44.722  53.056  1.00  0.00     0.259 A 
HETATM    3  N   UNL     1      26.493  44.216  51.849  1.00  0.00    -0.309 N 
HETATM    4  C   UNL     1      27.190  43.261  51.153  1.00  0.00     0.137 A 
HETATM    5  N   UNL     1      28.319  42.773  51.561  1.00  0.00    -0.232 NA
HETATM    6  C   UNL     1      28.822  43.224  52.792  1.00  0.00     0.074 A 
HETATM    7  C   UNL     1      30.018  42.688  53.267  1.00  0.00     0.033 A 
HETATM    8  C   UNL     1      30.552  43.110  54.491  1.00  0.00     0.014 A 
HETATM    9  C   UNL     1      29.900  44.082  55.263  1.00  0.00    -0.022 A 
HETATM   10  C   UNL     1      28.696  44.621  54.791  1.00  0.00     0.031 A 
HETATM   11  C   UNL     1      28.172  44.186  53.567  1.00  0.00     0.061 A 
HETATM   12  H   UNL     1      25.590  44.522  51.507  1.00  0.00     0.170 HD
ENDROOT
BRANCH   4  13
HETATM   13  C   UNL     1      26.593  42.832  49.817  1.00  0.00     0.198 C 
HETATM   14  C   UNL     1      25.304  42.053  50.055  1.00  0.00     0.045 C 
HETATM   15  C   UNL     1      24.691  41.707  48.705  1.00  0.00     0.044 C 
HETATM   16  C   UNL     1      25.744  41.204  47.759  1.00  0.00    -0.025 A 
HETATM   17  C   UNL     1      25.369  40.560  46.572  1.00  0.00     0.010 A 
HETATM   18  C   UNL     1      27.105  41.397  48.026  1.00  0.00     0.076 A 
HETATM   19  C   UNL     1      26.340  40.094  45.684  1.00  0.00     0.001 A 
HETATM   20  C   UNL     1      27.693  40.270  45.973  1.00  0.00     0.003 A 
HETATM   21  C   UNL     1      28.074  40.917  47.146  1.00  0.00     0.037 A 
HETATM   22  O   UNL     1      27.570  42.017  49.156  1.00  0.00    -0.338 OA
ENDBRANCH   4  13
BRANCH   9  23
HETATM   23  C   UNL     1      30.465  44.506  56.532  1.00  0.00     0.010 A 
HETATM   24  C   UNL     1      31.429  43.893  57.367  1.00  0.00     0.152 A 
HETATM   25  N   UNL     1      31.705  44.615  58.457  1.00  0.00    -0.187 NA
HETATM   26  N   UNL     1      30.918  45.694  58.325  1.00  0.00    -0.289 N 
HETATM   27  H   UNL     1      30.954  46.406  59.047  1.00  0.00     0.188 HD
HETATM   28  C   UNL     1      30.160  45.679  57.190  1.00  0.00     0.123 A 
ENDBRANCH   9  23
TORSDOF 2
ENDMDL
MODEL 4
REMARK VINA RESULT:      -9.5      4.055     10.117
REMARK  2 active torsions:
REMARK  status: ('A' for Active; 'I' for Inactive)
REMARK    1  A    between atoms: C_4  and  C_18 
REMARK    2  A    between atoms: C_9  and  C_12 
ROOT
HETATM    1  O   UNL     1      21.141  46.307  48.441  1.00  0.00    -0.267 OA
HETATM    2  C   UNL     1      22.066  47.019  48.808  1.00  0.00     0.259 A 
HETATM    3  N   UNL     1      23.243  46.507  49.287  1.00  0.00    -0.309 N 
HETATM    4  C   UNL     1      24.285  47.283  49.728  1.00  0.00     0.137 A 
HETATM    5  N   UNL     1      24.263  48.578  49.700  1.00  0.00    -0.232 NA
HETATM    6  C   UNL     1      23.097  49.204  49.228  1.00  0.00     0.074 A 
HETATM    7  C   UNL     1      23.038  50.596  49.219  1.00  0.00     0.033 A 
HETATM    8  C   UNL     1      21.893  51.259  48.758  1.00  0.00     0.014 A 
HETATM    9  C   UNL     1      20.784  50.538  48.292  1.00  0.00    -0.022 A 
HETATM   10  C   UNL     1      20.839  49.138  48.301  1.00  0.00     0.031 A 
HETATM   11  C   UNL     1      21.989  48.490  48.769  1.00  0.00     0.061 A 
HETATM   12  H   UNL     1      23.296  45.500  49.382  1.00  0.00     0.170 HD
ENDROOT
BRANCH   4  13
HETATM   13  C   UNL     1      25.523  46.536  50.210  1.00  0.00     0.198 C 
HETATM   14  C   UNL     1      25.585  45.162  49.551  1.00  0.00     0.045 C 
HETATM   15  C   UNL     1      26.869  44.472  49.989  1.00  0.00     0.044 C 
HETATM   16  C   UNL     1      27.082  44.639  51.466  1.00  0.00    -0.025 A 
HETATM   17  C   UNL     1      28.033  43.851  52.130  1.00  0.00     0.010 A 
HETATM   18  C   UNL     1      26.368  45.598  52.194  1.00  0.00     0.076 A 
HETATM   19  C   UNL     1      28.243  44.003  53.501  1.00  0.00     0.001 A 
HETATM   20  C   UNL     1      27.507  44.944  54.221  1.00  0.00     0.003 A 
HETATM   21  C   UNL     1      26.567  45.738  53.566  1.00  0.00     0.037 A 
HETATM   22  O   UNL     1      25.422  46.416  51.635  1.00  0.00    -0.338 OA
ENDBRANCH   4  13
BRANCH   9  23
HETATM   23  C   UNL     1      19.604  51.240  47.820  1.00  0.00     0.010 A 
HETATM   24  C   UNL     1      18.719  50.950  46.754  1.00  0.00     0.152 A 
HETATM   25  N   UNL     1      17.726  51.838  46.649  1.00  0.00    -0.187 NA
HETATM   26  N   UNL     1      17.971  52.701  47.647  1.00  0.00    -0.289 N 
HETATM   27  H   UNL     1      17.336  53.482  47.775  1.00  0.00     0.188 HD
HETATM   28  C   UNL     1      19.080  52.386  48.379  1.00  0.00     0.123 A 
ENDBRANCH   9  23
TORSDOF 2
ENDMDL
MODEL 5
REMARK VINA RESULT:      -9.5      2.913      9.253
REMARK  2 active torsions:
REMARK  status: ('A' for Active; 'I' for Inactive)
REMARK    1  A    between atoms: C_4  and  C_18 
REMARK    2  A    between atoms: C_9  and  C_12 
ROOT
HETATM    1  O   UNL     1      24.912  48.009  50.690  1.00  0.00    -0.267 OA
HETATM    2  C   UNL     1      25.076  46.890  51.160  1.00  0.00     0.259 A 
HETATM    3  N   UNL     1      25.843  46.665  52.272  1.00  0.00    -0.309 N 
HETATM    4  C   UNL     1      26.062  45.419  52.804  1.00  0.00     0.137 A 
HETATM    5  N   UNL     1      25.532  44.341  52.319  1.00  0.00    -0.232 NA
HETATM    6  C   UNL     1      24.728  44.463  51.173  1.00  0.00     0.074 A 
HETATM    7  C   UNL     1      24.175  43.312  50.615  1.00  0.00     0.033 A 
HETATM    8  C   UNL     1      23.370  43.391  49.471  1.00  0.00     0.014 A 
HETATM    9  C   UNL     1      23.099  44.627  48.866  1.00  0.00    -0.022 A 
HETATM   10  C   UNL     1      23.656  45.785  49.423  1.00  0.00     0.031 A 
HETATM   11  C   UNL     1      24.462  45.691  50.564  1.00  0.00     0.061 A 
HETATM   12  H   UNL     1      26.326  47.465  52.663  1.00  0.00     0.170 HD
ENDROOT
BRANCH   4  13
HETATM   13  C   UNL     1      26.929  45.366  54.057  1.00  0.00     0.198 C 
HETATM   14  C   UNL     1      27.455  46.760  54.380  1.00  0.00     0.045 C 
HETATM   15  C   UNL     1      28.251  46.690  55.675  1.00  0.00     0.044 C 
HETATM   16  C   UNL     1      29.159  45.494  55.674  1.00  0.00    -0.025 A 
HETATM   17  C   UNL     1      30.184  45.392  56.626  1.00  0.00     0.010 A 
HETATM   18  C   UNL     1      28.982  44.454  54.754  1.00  0.00     0.076 A 
HETATM   19  C   UNL     1      31.029  44.282  56.637  1.00  0.00     0.001 A 
HETATM   20  C   UNL     1      30.858  43.263  55.699  1.00  0.00     0.003 A 
HETATM   21  C   UNL     1      29.836  43.353  54.756  1.00  0.00     0.037 A 
HETATM   22  O   UNL     1      28.008  44.460  53.790  1.00  0.00    -0.338 OA
ENDBRANCH   4  13
BRANCH   9  23
HETATM   23  C   UNL     1      22.265  44.691  47.680  1.00  0.00     0.010 A 
HETATM   24  C   UNL     1      21.596  43.671  46.962  1.00  0.00     0.152 A 
HETATM   25  N   UNL     1      20.903  44.139  45.920  1.00  0.00    -0.187 NA
HETATM   26  N   UNL     1      21.126  45.462  45.965  1.00  0.00    -0.289 N 
HETATM   27  H   UNL     1      20.692  46.047  45.259  1.00  0.00     0.188 HD
HETATM   28  C   UNL     1      21.931  45.843  47.000  1.00  0.00     0.123 A 
ENDBRANCH   9  23
TORSDOF 2
ENDMDL
MODEL 6
REMARK VINA RESULT:      -9.4      6.448      9.917
REMARK  2 active torsions:
REMARK  status: ('A' for Active; 'I' for Inactive)
REMARK    1  A    between atoms: C_4  and  C_18 
REMARK    2  A    between atoms: C_9  and  C_12 
ROOT
HETATM    1  O   UNL     1      30.191  37.645  51.097  1.00  0.00    -0.267 OA
HETATM    2  C   UNL     1      29.510  38.612  50.778  1.00  0.00     0.259 A 
HETATM    3  N   UNL     1      29.222  39.627  51.651  1.00  0.00    -0.309 N 
HETATM    4  C   UNL     1      28.442  40.708  51.327  1.00  0.00     0.137 A 
HETATM    5  N   UNL     1      27.932  40.884  50.149  1.00  0.00    -0.232 NA
HETATM    6  C   UNL     1      28.167  39.896  49.179  1.00  0.00     0.074 A 
HETATM    7  C   UNL     1      27.601  40.047  47.914  1.00  0.00     0.033 A 
HETATM    8  C   UNL     1      27.809  39.082  46.919  1.00  0.00     0.014 A 
HETATM    9  C   UNL     1      28.593  37.948  47.172  1.00  0.00    -0.022 A 
HETATM   10  C   UNL     1      29.161  37.790  48.442  1.00  0.00     0.031 A 
HETATM   11  C   UNL     1      28.941  38.761  49.428  1.00  0.00     0.061 A 
HETATM   12  H   UNL     1      29.550  39.517  52.603  1.00  0.00     0.170 HD
ENDROOT
BRANCH   4  13
HETATM   13  C   UNL     1      28.245  41.749  52.424  1.00  0.00     0.198 C 
HETATM   14  C   UNL     1      27.706  43.040  51.819  1.00  0.00     0.045 C 
HETATM   15  C   UNL     1      27.447  44.032  52.944  1.00  0.00     0.044 C 
HETATM   16  C   UNL     1      28.594  44.043  53.914  1.00  0.00    -0.025 A 
HETATM   17  C   UNL     1      28.704  45.076  54.856  1.00  0.00     0.010 A 
HETATM   18  C   UNL     1      29.546  43.017  53.917  1.00  0.00     0.076 A 
HETATM   19  C   UNL     1      29.762  45.093  55.765  1.00  0.00     0.001 A 
HETATM   20  C   UNL     1      30.719  44.078  55.742  1.00  0.00     0.003 A 
HETATM   21  C   UNL     1      30.612  43.043  54.815  1.00  0.00     0.037 A 
HETATM   22  O   UNL     1      29.522  41.965  53.039  1.00  0.00    -0.338 OA
ENDBRANCH   4  13
BRANCH   9  23
HETATM   23  C   UNL     1      28.796  36.956  46.131  1.00  0.00     0.010 A 
HETATM   24  C   UNL     1      29.733  36.905  45.071  1.00  0.00     0.152 A 
HETATM   25  N   UNL     1      29.612  35.803  44.325  1.00  0.00    -0.187 NA
HETATM   26  N   UNL     1      28.596  35.143  44.904  1.00  0.00    -0.289 N 
HETATM   27  H   UNL     1      28.312  34.253  44.507  1.00  0.00     0.188 HD
HETATM   28  C   UNL     1      28.076  35.788  45.989  1.00  0.00     0.123 A 
ENDBRANCH   9  23
TORSDOF 2
ENDMDL
MODEL 7
REMARK VINA RESULT:      -9.3      2.434      3.967
REMARK  2 active torsions:
REMARK  status: ('A' for Active; 'I' for Inactive)
REMARK    1  A    between atoms: C_4  and  C_18 
REMARK    2  A    between atoms: C_9  and  C_12 
ROOT
HETATM    1  O   UNL     1      25.983  46.658  54.600  1.00  0.00    -0.267 OA
HETATM    2  C   UNL     1      26.440  45.848  53.803  1.00  0.00     0.259 A 
HETATM    3  N   UNL     1      25.832  45.571  52.608  1.00  0.00    -0.309 N 
HETATM    4  C   UNL     1      26.310  44.651  51.708  1.00  0.00     0.137 A 
HETATM    5  N   UNL     1      27.404  43.983  51.896  1.00  0.00    -0.232 NA
HETATM    6  C   UNL     1      28.104  44.192  53.096  1.00  0.00     0.074 A 
HETATM    7  C   UNL     1      29.266  43.460  53.333  1.00  0.00     0.033 A 
HETATM    8  C   UNL     1      29.991  43.638  54.519  1.00  0.00     0.014 A 
HETATM    9  C   UNL     1      29.568  44.558  55.489  1.00  0.00    -0.022 A 
HETATM   10  C   UNL     1      28.400  45.294  55.255  1.00  0.00     0.031 A 
HETATM   11  C   UNL     1      27.682  45.102  54.067  1.00  0.00     0.061 A 
HETATM   12  H   UNL     1      24.944  46.024  52.431  1.00  0.00     0.170 HD
ENDROOT
BRANCH   4  13
HETATM   13  C   UNL     1      25.509  44.489  50.421  1.00  0.00     0.198 C 
HETATM   14  C   UNL     1      24.271  45.377  50.470  1.00  0.00     0.045 C 
HETATM   15  C   UNL     1      23.534  45.254  49.144  1.00  0.00     0.044 C 
HETATM   16  C   UNL     1      23.448  43.816  48.717  1.00  0.00    -0.025 A 
HETATM   17  C   UNL     1      22.572  43.443  47.689  1.00  0.00     0.010 A 
HETATM   18  C   UNL     1      24.257  42.839  49.309  1.00  0.00     0.076 A 
HETATM   19  C   UNL     1      22.489  42.111  47.281  1.00  0.00     0.001 A 
HETATM   20  C   UNL     1      23.282  41.141  47.895  1.00  0.00     0.003 A 
HETATM   21  C   UNL     1      24.162  41.507  48.911  1.00  0.00     0.037 A 
HETATM   22  O   UNL     1      25.146  43.106  50.317  1.00  0.00    -0.338 OA
ENDBRANCH   4  13
BRANCH   9  23
HETATM   23  C   UNL     1      30.330  44.729  56.713  1.00  0.00     0.010 A 
HETATM   24  C   UNL     1      31.379  43.956  57.267  1.00  0.00     0.152 A 
HETATM   25  N   UNL     1      31.840  44.456  58.416  1.00  0.00    -0.187 NA
HETATM   26  N   UNL     1      31.089  45.552  58.604  1.00  0.00    -0.289 N 
HETATM   27  H   UNL     1      31.259  46.116  59.431  1.00  0.00     0.188 HD
HETATM   28  C   UNL     1      30.173  45.761  57.614  1.00  0.00     0.123 A 
ENDBRANCH   9  23
TORSDOF 2
ENDMDL
MODEL 8
REMARK VINA RESULT:      -9.3      5.512      9.385
REMARK  2 active torsions:
REMARK  status: ('A' for Active; 'I' for Inactive)
REMARK    1  A    between atoms: C_4  and  C_18 
REMARK    2  A    between atoms: C_9  and  C_12 
ROOT
HETATM    1  O   UNL     1      25.184  41.136  49.780  1.00  0.00    -0.267 OA
HETATM    2  C   UNL     1      26.217  41.004  50.423  1.00  0.00     0.259 A 
HETATM    3  N   UNL     1      26.533  41.814  51.482  1.00  0.00    -0.309 N 
HETATM    4  C   UNL     1      27.696  41.702  52.203  1.00  0.00     0.137 A 
HETATM    5  N   UNL     1      28.589  40.795  51.966  1.00  0.00    -0.232 NA
HETATM    6  C   UNL     1      28.362  39.913  50.896  1.00  0.00     0.074 A 
HETATM    7  C   UNL     1      29.325  38.950  50.603  1.00  0.00     0.033 A 
HETATM    8  C   UNL     1      29.137  38.053  49.542  1.00  0.00     0.014 A 
HETATM    9  C   UNL     1      27.977  38.102  48.757  1.00  0.00    -0.022 A 
HETATM   10  C   UNL     1      27.008  39.071  49.047  1.00  0.00     0.031 A 
HETATM   11  C   UNL     1      27.211  39.963  50.108  1.00  0.00     0.061 A 
HETATM   12  H   UNL     1      25.896  42.576  51.679  1.00  0.00     0.170 HD
ENDROOT
BRANCH   4  13
HETATM   13  C   UNL     1      27.866  42.680  53.360  1.00  0.00     0.198 C 
HETATM   14  C   UNL     1      27.602  44.102  52.876  1.00  0.00     0.045 C 
HETATM   15  C   UNL     1      27.702  45.045  54.066  1.00  0.00     0.044 C 
HETATM   16  C   UNL     1      28.905  44.716  54.903  1.00  0.00    -0.025 A 
HETATM   17  C   UNL     1      29.354  45.624  55.872  1.00  0.00     0.010 A 
HETATM   18  C   UNL     1      29.574  43.495  54.755  1.00  0.00     0.076 A 
HETATM   19  C   UNL     1      30.467  45.324  56.659  1.00  0.00     0.001 A 
HETATM   20  C   UNL     1      31.140  44.115  56.486  1.00  0.00     0.003 A 
HETATM   21  C   UNL     1      30.695  43.204  55.530  1.00  0.00     0.037 A 
HETATM   22  O   UNL     1      29.210  42.543  53.840  1.00  0.00    -0.338 OA
ENDBRANCH   4  13
BRANCH   9  23
HETATM   23  C   UNL     1      27.799  37.168  47.660  1.00  0.00     0.010 A 
HETATM   24  C   UNL     1      28.573  36.950  46.495  1.00  0.00     0.152 A 
HETATM   25  N   UNL     1      28.086  35.973  45.725  1.00  0.00    -0.187 NA
HETATM   26  N   UNL     1      26.996  35.562  46.392  1.00  0.00    -0.289 N 
HETATM   27  H   UNL     1      26.445  34.807  45.996  1.00  0.00     0.188 HD
HETATM   28  C   UNL     1      26.782  36.242  47.557  1.00  0.00     0.123 A 
ENDBRANCH   9  23
TORSDOF 2
ENDMDL
MODEL 9
REMARK VINA RESULT:      -9.3      4.090      5.935
REMARK  2 active torsions:
REMARK  status: ('A' for Active; 'I' for Inactive)
REMARK    1  A    between atoms: C_4  and  C_18 
REMARK    2  A    between atoms: C_9  and  C_12 
ROOT
HETATM    1  O   UNL     1      25.631  47.492  51.488  1.00  0.00    -0.267 OA
HETATM    2  C   UNL     1      24.773  47.158  50.681  1.00  0.00     0.259 A 
HETATM    3  N   UNL     1      23.889  48.051  50.136  1.00  0.00    -0.309 N 
HETATM    4  C   UNL     1      22.903  47.698  49.249  1.00  0.00     0.137 A 
HETATM    5  N   UNL     1      22.740  46.487  48.820  1.00  0.00    -0.232 NA
HETATM    6  C   UNL     1      23.594  45.491  49.322  1.00  0.00     0.074 A 
HETATM    7  C   UNL     1      23.416  44.176  48.900  1.00  0.00     0.033 A 
HETATM    8  C   UNL     1      24.246  43.154  49.379  1.00  0.00     0.014 A 
HETATM    9  C   UNL     1      25.276  43.432  50.289  1.00  0.00    -0.022 A 
HETATM   10  C   UNL     1      25.457  44.753  50.718  1.00  0.00     0.031 A 
HETATM   11  C   UNL     1      24.617  45.763  50.233  1.00  0.00     0.061 A 
HETATM   12  H   UNL     1      23.936  49.004  50.475  1.00  0.00     0.170 HD
ENDROOT
BRANCH   4  13
HETATM   13  C   UNL     1      22.026  48.833  48.733  1.00  0.00     0.198 C 
HETATM   14  C   UNL     1      22.822  50.133  48.713  1.00  0.00     0.045 C 
HETATM   15  C   UNL     1      21.947  51.229  48.122  1.00  0.00     0.044 C 
HETATM   16  C   UNL     1      20.562  51.170  48.700  1.00  0.00    -0.025 A 
HETATM   17  C   UNL     1      19.683  52.247  48.523  1.00  0.00     0.010 A 
HETATM   18  C   UNL     1      20.116  50.037  49.392  1.00  0.00     0.076 A 
HETATM   19  C   UNL     1      18.392  52.200  49.051  1.00  0.00     0.001 A 
HETATM   20  C   UNL     1      17.968  51.076  49.760  1.00  0.00     0.003 A 
HETATM   21  C   UNL     1      18.833  49.997  49.933  1.00  0.00     0.037 A 
HETATM   22  O   UNL     1      20.899  48.935  49.614  1.00  0.00    -0.338 OA
ENDBRANCH   4  13
BRANCH   9  23
HETATM   23  C   UNL     1      26.125  42.361  50.778  1.00  0.00     0.010 A 
HETATM   24  C   UNL     1      27.253  42.390  51.633  1.00  0.00     0.152 A 
HETATM   25  N   UNL     1      27.758  41.176  51.867  1.00  0.00    -0.187 NA
HETATM   26  N   UNL     1      26.957  40.362  51.161  1.00  0.00    -0.289 N 
HETATM   27  H   UNL     1      27.143  39.365  51.183  1.00  0.00     0.188 HD
HETATM   28  C   UNL     1      25.963  41.021  50.495  1.00  0.00     0.123 A 
ENDBRANCH   9  23
TORSDOF 2
ENDMDL
MODEL 10
REMARK VINA RESULT:      -9.2      2.849      4.510
REMARK  2 active torsions:
REMARK  status: ('A' for Active; 'I' for Inactive)
REMARK    1  A    between atoms: C_4  and  C_18 
REMARK    2  A    between atoms: C_9  and  C_12 
ROOT
HETATM    1  O   UNL     1      24.018  44.239  48.750  1.00  0.00    -0.267 OA
HETATM    2  C   UNL     1      24.111  45.324  49.309  1.00  0.00     0.259 A 
HETATM    3  N   UNL     1      23.424  46.431  48.885  1.00  0.00    -0.309 N 
HETATM    4  C   UNL     1      23.530  47.663  49.479  1.00  0.00     0.137 A 
HETATM    5  N   UNL     1      24.268  47.885  50.520  1.00  0.00    -0.232 NA
HETATM    6  C   UNL     1      25.018  46.813  51.034  1.00  0.00     0.074 A 
HETATM    7  C   UNL     1      25.844  47.036  52.133  1.00  0.00     0.033 A 
HETATM    8  C   UNL     1      26.610  45.994  52.674  1.00  0.00     0.014 A 
HETATM    9  C   UNL     1      26.558  44.706  52.124  1.00  0.00    -0.022 A 
HETATM   10  C   UNL     1      25.731  44.478  51.017  1.00  0.00     0.031 A 
HETATM   11  C   UNL     1      24.975  45.530  50.485  1.00  0.00     0.061 A 
HETATM   12  H   UNL     1      22.873  46.329  48.042  1.00  0.00     0.170 HD
ENDROOT
BRANCH   4  13
HETATM   13  C   UNL     1      22.675  48.774  48.880  1.00  0.00     0.198 C 
HETATM   14  C   UNL     1      23.335  50.125  49.130  1.00  0.00     0.045 C 
HETATM   15  C   UNL     1      22.501  51.205  48.455  1.00  0.00     0.044 C 
HETATM   16  C   UNL     1      21.039  50.989  48.723  1.00  0.00    -0.025 A 
HETATM   17  C   UNL     1      20.118  52.010  48.449  1.00  0.00     0.010 A 
HETATM   18  C   UNL     1      20.569  49.765  49.215  1.00  0.00     0.076 A 
HETATM   19  C   UNL     1      18.757  51.817  48.689  1.00  0.00     0.001 A 
HETATM   20  C   UNL     1      18.304  50.602  49.202  1.00  0.00     0.003 A 
HETATM   21  C   UNL     1      19.211  49.579  49.469  1.00  0.00     0.037 A 
HETATM   22  O   UNL     1      21.388  48.707  49.510  1.00  0.00    -0.338 OA
ENDBRANCH   4  13
BRANCH   9  23
HETATM   23  C   UNL     1      27.360  43.637  52.694  1.00  0.00     0.010 A 
HETATM   24  C   UNL     1      28.125  43.588  53.884  1.00  0.00     0.152 A 
HETATM   25  N   UNL     1      28.712  42.403  54.073  1.00  0.00    -0.187 NA
HETATM   26  N   UNL     1      28.328  41.688  53.004  1.00  0.00    -0.289 N 
HETATM   27  H   UNL     1      28.653  40.731  52.922  1.00  0.00     0.188 HD
HETATM   28  C   UNL     1      27.516  42.379  52.151  1.00  0.00     0.123 A 
ENDBRANCH   9  23
TORSDOF 2
ENDMDL
