MODEL 1
REMARK VINA RESULT:      -7.5      0.000      0.000
REMARK  8 active torsions:
REMARK  status: ('A' for Active; 'I' for Inactive)
REMARK    1  A    between atoms: C_2  and  O_3 
REMARK    2  A    between atoms: O_3  and  C_4 
REMARK       I    between atoms: C_4  and  N_5 
REMARK    3  A    between atoms: C_8  and  N_9 
REMARK       I    between atoms: N_9  and  C_10 
REMARK    4  A    between atoms: C_10  and  C_11 
REMARK    5  A    between atoms: C_12  and  C_13 
REMARK    6  A    between atoms: N_18  and  C_19 
REMARK    7  A    between atoms: C_19  and  C_20 
REMARK    8  A    between atoms: C_20  and  O_21 
ROOT
HETATM    1  C   UNL     1      16.659  51.308  48.918  1.00  0.00     0.139 C 
HETATM    2  C   UNL     1      15.812  51.001  47.666  1.00  0.00     0.145 C 
HETATM    3  N   UNL     1      16.103  49.622  47.249  1.00  0.00    -0.335 N 
HETATM    4  C   UNL     1      17.418  49.161  47.209  1.00  0.00     0.255 C 
HETATM    5  O   UNL     1      17.722  48.022  46.869  1.00  0.00    -0.267 OA
HETATM    6  C   UNL     1      18.476  50.097  47.703  1.00  0.00     0.039 A 
HETATM    7  C   UNL     1      18.132  51.156  48.576  1.00  0.00    -0.027 A 
HETATM    8  C   UNL     1      19.808  49.864  47.352  1.00  0.00     0.017 A 
HETATM    9  C   UNL     1      20.811  50.688  47.860  1.00  0.00     0.001 A 
HETATM   10  C   UNL     1      20.485  51.723  48.737  1.00  0.00     0.001 A 
HETATM   11  C   UNL     1      19.155  51.950  49.106  1.00  0.00     0.009 A 
ENDROOT
BRANCH   1  12
HETATM   12  C   UNL     1      16.137  52.576  49.574  1.00  0.00     0.229 C 
HETATM   13  N   UNL     1      14.800  52.479  49.917  1.00  0.00    -0.356 N 
HETATM   14  H   UNL     1      14.348  51.576  49.783  1.00  0.00     0.162 HD
HETATM   15  O   UNL     1      16.808  53.583  49.756  1.00  0.00    -0.273 OA
BRANCH  13  16
HETATM   16  C   UNL     1      13.944  53.546  50.433  1.00  0.00     0.087 C 
HETATM   17  C   UNL     1      14.461  54.226  51.702  1.00  0.00     0.045 C 
HETATM   18  C   UNL     1      15.272  55.496  51.466  1.00  0.00     0.130 C 
HETATM   19  N   UNL     1      14.649  56.370  50.480  1.00  0.00    -0.328 N 
HETATM   20  C   UNL     1      14.798  57.750  50.525  1.00  0.00     0.362 C 
HETATM   21  C   UNL     1      14.336  55.760  49.198  1.00  0.00     0.130 C 
HETATM   22  O   UNL     1      14.514  58.501  49.599  1.00  0.00    -0.238 OA
HETATM   23  C   UNL     1      13.463  54.524  49.359  1.00  0.00     0.045 C 
BRANCH  20  24
HETATM   24  O   UNL     1      15.275  58.185  51.724  1.00  0.00    -0.304 OA
BRANCH  24  25
HETATM   25  C   UNL     1      14.347  58.908  52.546  1.00  0.00     0.176 C 
HETATM   26  C   UNL     1      14.199  58.236  53.898  1.00  0.00     0.034 C 
ENDBRANCH  24  25
ENDBRANCH  20  24
ENDBRANCH  13  16
ENDBRANCH   1  12
BRANCH   2  27
HETATM   27  C   UNL     1      15.981  51.937  46.467  1.00  0.00     0.006 A 
HETATM   28  S   UNL     1      14.686  53.003  46.049  1.00  0.00    -0.104 SA
HETATM   29  C   UNL     1      15.548  53.668  44.737  1.00  0.00     0.050 A 
HETATM   30  C   UNL     1      16.808  53.133  44.626  1.00  0.00     0.008 A 
HETATM   31  C   UNL     1      17.060  52.146  45.624  1.00  0.00     0.017 A 
ENDBRANCH   2  27
BRANCH   3  32
HETATM   32  C   UNL     1      15.003  48.656  47.221  1.00  0.00     0.153 C 
BRANCH  32  33
HETATM   33  C   UNL     1      14.212  48.727  45.902  1.00  0.00     0.187 C 
BRANCH  33  34
HETATM   34  O   UNL     1      13.186  47.717  45.823  1.00  0.00    -0.394 OA
HETATM   35  C   UNL     1      13.123  47.112  44.534  1.00  0.00     0.201 C 
ENDBRANCH  33  34
ENDBRANCH  32  33
ENDBRANCH   3  32
TORSDOF 8
ENDMDL
MODEL 2
REMARK VINA RESULT:      -7.3     15.942     19.946
REMARK  8 active torsions:
REMARK  status: ('A' for Active; 'I' for Inactive)
REMARK    1  A    between atoms: C_2  and  O_3 
REMARK    2  A    between atoms: O_3  and  C_4 
REMARK       I    between atoms: C_4  and  N_5 
REMARK    3  A    between atoms: C_8  and  N_9 
REMARK       I    between atoms: N_9  and  C_10 
REMARK    4  A    between atoms: C_10  and  C_11 
REMARK    5  A    between atoms: C_12  and  C_13 
REMARK    6  A    between atoms: N_18  and  C_19 
REMARK    7  A    between atoms: C_19  and  C_20 
REMARK    8  A    between atoms: C_20  and  O_21 
ROOT
HETATM    1  C   UNL     1      32.071  51.152  40.108  1.00  0.00     0.139 C 
HETATM    2  C   UNL     1      32.494  50.250  41.286  1.00  0.00     0.145 C 
HETATM    3  N   UNL     1      31.444  49.240  41.483  1.00  0.00    -0.335 N 
HETATM    4  C   UNL     1      30.100  49.609  41.465  1.00  0.00     0.255 C 
HETATM    5  O   UNL     1      29.181  48.812  41.624  1.00  0.00    -0.267 OA
HETATM    6  C   UNL     1      29.797  51.037  41.137  1.00  0.00     0.039 A 
HETATM    7  C   UNL     1      30.747  51.820  40.439  1.00  0.00    -0.027 A 
HETATM    8  C   UNL     1      28.542  51.558  41.463  1.00  0.00     0.017 A 
HETATM    9  C   UNL     1      28.222  52.865  41.103  1.00  0.00     0.001 A 
HETATM   10  C   UNL     1      29.144  53.639  40.398  1.00  0.00     0.001 A 
HETATM   11  C   UNL     1      30.395  53.118  40.054  1.00  0.00     0.009 A 
ENDROOT
BRANCH   1  12
HETATM   12  C   UNL     1      33.267  51.973  39.655  1.00  0.00     0.229 C 
HETATM   13  N   UNL     1      34.350  51.182  39.313  1.00  0.00    -0.356 N 
HETATM   14  H   UNL     1      34.209  50.173  39.314  1.00  0.00     0.162 HD
HETATM   15  O   UNL     1      33.289  53.196  39.620  1.00  0.00    -0.273 OA
BRANCH  13  16
HETATM   16  C   UNL     1      35.697  51.634  38.971  1.00  0.00     0.087 C 
HETATM   17  C   UNL     1      35.984  53.101  39.298  1.00  0.00     0.045 C 
HETATM   18  C   UNL     1      36.646  53.340  40.651  1.00  0.00     0.130 C 
HETATM   19  N   UNL     1      37.734  52.404  40.903  1.00  0.00    -0.328 N 
HETATM   20  C   UNL     1      38.832  52.748  41.682  1.00  0.00     0.362 C 
HETATM   21  C   UNL     1      37.402  50.994  40.780  1.00  0.00     0.130 C 
HETATM   22  O   UNL     1      39.637  51.938  42.127  1.00  0.00    -0.238 OA
HETATM   23  C   UNL     1      36.801  50.673  39.419  1.00  0.00     0.045 C 
BRANCH  20  24
HETATM   24  O   UNL     1      38.932  54.091  41.880  1.00  0.00    -0.304 OA
BRANCH  24  25
HETATM   25  C   UNL     1      39.302  54.506  43.202  1.00  0.00     0.176 C 
HETATM   26  C   UNL     1      38.071  54.681  44.070  1.00  0.00     0.034 C 
ENDBRANCH  24  25
ENDBRANCH  20  24
ENDBRANCH  13  16
ENDBRANCH   1  12
BRANCH   2  27
HETATM   27  C   UNL     1      32.785  50.941  42.619  1.00  0.00     0.006 A 
HETATM   28  S   UNL     1      34.400  51.458  42.958  1.00  0.00    -0.104 SA
HETATM   29  C   UNL     1      33.966  52.086  44.483  1.00  0.00     0.050 A 
HETATM   30  C   UNL     1      32.622  51.951  44.731  1.00  0.00     0.008 A 
HETATM   31  C   UNL     1      31.943  51.301  43.658  1.00  0.00     0.017 A 
ENDBRANCH   2  27
BRANCH   3  32
HETATM   32  C   UNL     1      31.803  47.826  41.344  1.00  0.00     0.153 C 
BRANCH  32  33
HETATM   33  C   UNL     1      31.472  47.287  39.941  1.00  0.00     0.187 C 
BRANCH  33  34
HETATM   34  O   UNL     1      30.376  46.351  39.958  1.00  0.00    -0.394 OA
HETATM   35  C   UNL     1      29.624  46.378  38.748  1.00  0.00     0.201 C 
ENDBRANCH  33  34
ENDBRANCH  32  33
ENDBRANCH   3  32
TORSDOF 8
ENDMDL
MODEL 3
REMARK VINA RESULT:      -7.2      2.079      3.885
REMARK  8 active torsions:
REMARK  status: ('A' for Active; 'I' for Inactive)
REMARK    1  A    between atoms: C_2  and  O_3 
REMARK    2  A    between atoms: O_3  and  C_4 
REMARK       I    between atoms: C_4  and  N_5 
REMARK    3  A    between atoms: C_8  and  N_9 
REMARK       I    between atoms: N_9  and  C_10 
REMARK    4  A    between atoms: C_10  and  C_11 
REMARK    5  A    between atoms: C_12  and  C_13 
REMARK    6  A    between atoms: N_18  and  C_19 
REMARK    7  A    between atoms: C_19  and  C_20 
REMARK    8  A    between atoms: C_20  and  O_21 
ROOT
HETATM    1  C   UNL     1      16.357  52.228  46.592  1.00  0.00     0.139 C 
HETATM    2  C   UNL     1      16.123  50.791  47.099  1.00  0.00     0.145 C 
HETATM    3  N   UNL     1      17.412  50.087  47.078  1.00  0.00    -0.335 N 
HETATM    4  C   UNL     1      18.260  50.202  45.977  1.00  0.00     0.255 C 
HETATM    5  O   UNL     1      19.346  49.638  45.902  1.00  0.00    -0.267 OA
HETATM    6  C   UNL     1      17.833  51.143  44.894  1.00  0.00     0.039 A 
HETATM    7  C   UNL     1      16.911  52.177  45.178  1.00  0.00    -0.027 A 
HETATM    8  C   UNL     1      18.415  51.031  43.628  1.00  0.00     0.017 A 
HETATM    9  C   UNL     1      18.077  51.942  42.630  1.00  0.00     0.001 A 
HETATM   10  C   UNL     1      17.183  52.977  42.905  1.00  0.00     0.001 A 
HETATM   11  C   UNL     1      16.611  53.105  44.175  1.00  0.00     0.009 A 
ENDROOT
BRANCH   1  12
HETATM   12  C   UNL     1      15.141  53.078  46.923  1.00  0.00     0.229 C 
HETATM   13  N   UNL     1      15.082  53.412  48.265  1.00  0.00    -0.356 N 
HETATM   14  H   UNL     1      15.872  53.143  48.848  1.00  0.00     0.162 HD
HETATM   15  O   UNL     1      14.290  53.410  46.109  1.00  0.00    -0.273 OA
BRANCH  13  16
HETATM   16  C   UNL     1      13.989  54.094  48.955  1.00  0.00     0.087 C 
HETATM   17  C   UNL     1      13.826  53.718  50.429  1.00  0.00     0.045 C 
HETATM   18  C   UNL     1      14.533  54.646  51.411  1.00  0.00     0.130 C 
HETATM   19  N   UNL     1      14.328  56.051  51.084  1.00  0.00    -0.328 N 
HETATM   20  C   UNL     1      14.309  57.037  52.062  1.00  0.00     0.362 C 
HETATM   21  C   UNL     1      14.671  56.444  49.727  1.00  0.00     0.130 C 
HETATM   22  O   UNL     1      14.392  58.237  51.827  1.00  0.00    -0.238 OA
HETATM   23  C   UNL     1      13.939  55.602  48.693  1.00  0.00     0.045 C 
BRANCH  20  24
HETATM   24  O   UNL     1      14.165  56.526  53.316  1.00  0.00    -0.304 OA
BRANCH  24  25
HETATM   25  C   UNL     1      14.667  57.338  54.387  1.00  0.00     0.176 C 
HETATM   26  C   UNL     1      16.149  57.088  54.596  1.00  0.00     0.034 C 
ENDBRANCH  24  25
ENDBRANCH  20  24
ENDBRANCH  13  16
ENDBRANCH   1  12
BRANCH   2  27
HETATM   27  C   UNL     1      15.080  49.954  46.356  1.00  0.00     0.006 A 
HETATM   28  S   UNL     1      14.877  48.292  46.789  1.00  0.00    -0.104 SA
HETATM   29  C   UNL     1      13.646  48.056  45.634  1.00  0.00     0.050 A 
HETATM   30  C   UNL     1      13.352  49.212  44.951  1.00  0.00     0.008 A 
HETATM   31  C   UNL     1      14.169  50.303  45.372  1.00  0.00     0.017 A 
ENDBRANCH   2  27
BRANCH   3  32
HETATM   32  C   UNL     1      17.944  49.566  48.340  1.00  0.00     0.153 C 
BRANCH  32  33
HETATM   33  C   UNL     1      18.002  50.654  49.428  1.00  0.00     0.187 C 
BRANCH  33  34
HETATM   34  O   UNL     1      18.348  50.118  50.721  1.00  0.00    -0.394 OA
HETATM   35  C   UNL     1      18.743  48.750  50.650  1.00  0.00     0.201 C 
ENDBRANCH  33  34
ENDBRANCH  32  33
ENDBRANCH   3  32
TORSDOF 8
ENDMDL
MODEL 4
REMARK VINA RESULT:      -7.0      3.226      8.472
REMARK  8 active torsions:
REMARK  status: ('A' for Active; 'I' for Inactive)
REMARK    1  A    between atoms: C_2  and  O_3 
REMARK    2  A    between atoms: O_3  and  C_4 
REMARK       I    between atoms: C_4  and  N_5 
REMARK    3  A    between atoms: C_8  and  N_9 
REMARK       I    between atoms: N_9  and  C_10 
REMARK    4  A    between atoms: C_10  and  C_11 
REMARK    5  A    between atoms: C_12  and  C_13 
REMARK    6  A    between atoms: N_18  and  C_19 
REMARK    7  A    between atoms: C_19  and  C_20 
REMARK    8  A    between atoms: C_20  and  O_21 
ROOT
HETATM    1  C   UNL     1      15.749  50.255  46.611  1.00  0.00     0.139 C 
HETATM    2  C   UNL     1      15.884  51.518  47.487  1.00  0.00     0.145 C 
HETATM    3  N   UNL     1      15.527  52.681  46.663  1.00  0.00    -0.335 N 
HETATM    4  C   UNL     1      16.015  52.800  45.363  1.00  0.00     0.255 C 
HETATM    5  O   UNL     1      15.753  53.748  44.629  1.00  0.00    -0.267 OA
HETATM    6  C   UNL     1      16.818  51.652  44.836  1.00  0.00     0.039 A 
HETATM    7  C   UNL     1      16.684  50.370  45.419  1.00  0.00    -0.027 A 
HETATM    8  C   UNL     1      17.636  51.849  43.721  1.00  0.00     0.017 A 
HETATM    9  C   UNL     1      18.336  50.774  43.180  1.00  0.00     0.001 A 
HETATM   10  C   UNL     1      18.197  49.501  43.734  1.00  0.00     0.001 A 
HETATM   11  C   UNL     1      17.366  49.294  44.840  1.00  0.00     0.009 A 
ENDROOT
BRANCH   1  12
HETATM   12  C   UNL     1      15.769  49.025  47.503  1.00  0.00     0.229 C 
HETATM   13  N   UNL     1      17.011  48.810  48.076  1.00  0.00    -0.356 N 
HETATM   14  H   UNL     1      17.726  49.518  47.919  1.00  0.00     0.162 HD
HETATM   15  O   UNL     1      14.810  48.286  47.679  1.00  0.00    -0.273 OA
BRANCH  13  16
HETATM   16  C   UNL     1      17.426  47.655  48.869  1.00  0.00     0.087 C 
HETATM   17  C   UNL     1      17.342  46.312  48.140  1.00  0.00     0.045 C 
HETATM   18  C   UNL     1      18.639  45.858  47.478  1.00  0.00     0.130 C 
HETATM   19  N   UNL     1      19.793  46.042  48.348  1.00  0.00    -0.328 N 
HETATM   20  C   UNL     1      20.904  45.211  48.280  1.00  0.00     0.362 C 
HETATM   21  C   UNL     1      19.977  47.381  48.886  1.00  0.00     0.130 C 
HETATM   22  O   UNL     1      21.984  45.466  48.800  1.00  0.00    -0.238 OA
HETATM   23  C   UNL     1      18.739  47.867  49.626  1.00  0.00     0.045 C 
BRANCH  20  24
HETATM   24  O   UNL     1      20.656  44.064  47.589  1.00  0.00    -0.304 OA
BRANCH  24  25
HETATM   25  C   UNL     1      21.616  43.716  46.582  1.00  0.00     0.176 C 
HETATM   26  C   UNL     1      21.607  44.739  45.462  1.00  0.00     0.034 C 
ENDBRANCH  24  25
ENDBRANCH  20  24
ENDBRANCH  13  16
ENDBRANCH   1  12
BRANCH   2  27
HETATM   27  C   UNL     1      17.243  51.764  48.144  1.00  0.00     0.006 A 
HETATM   28  S   UNL     1      17.368  51.677  49.867  1.00  0.00    -0.104 SA
HETATM   29  C   UNL     1      19.036  52.026  49.846  1.00  0.00     0.050 A 
HETATM   30  C   UNL     1      19.516  52.170  48.566  1.00  0.00     0.008 A 
HETATM   31  C   UNL     1      18.489  52.011  47.590  1.00  0.00     0.017 A 
ENDBRANCH   2  27
BRANCH   3  32
HETATM   32  C   UNL     1      14.396  53.512  47.084  1.00  0.00     0.153 C 
BRANCH  32  33
HETATM   33  C   UNL     1      14.631  54.142  48.468  1.00  0.00     0.187 C 
BRANCH  33  34
HETATM   34  O   UNL     1      13.538  53.898  49.375  1.00  0.00    -0.394 OA
HETATM   35  C   UNL     1      13.958  53.229  50.560  1.00  0.00     0.201 C 
ENDBRANCH  33  34
ENDBRANCH  32  33
ENDBRANCH   3  32
TORSDOF 8
ENDMDL
MODEL 5
REMARK VINA RESULT:      -6.9     13.365     16.783
REMARK  8 active torsions:
REMARK  status: ('A' for Active; 'I' for Inactive)
REMARK    1  A    between atoms: C_2  and  O_3 
REMARK    2  A    between atoms: O_3  and  C_4 
REMARK       I    between atoms: C_4  and  N_5 
REMARK    3  A    between atoms: C_8  and  N_9 
REMARK       I    between atoms: N_9  and  C_10 
REMARK    4  A    between atoms: C_10  and  C_11 
REMARK    5  A    between atoms: C_12  and  C_13 
REMARK    6  A    between atoms: N_18  and  C_19 
REMARK    7  A    between atoms: C_19  and  C_20 
REMARK    8  A    between atoms: C_20  and  O_21 
ROOT
HETATM    1  C   UNL     1      27.109  47.348  40.593  1.00  0.00     0.139 C 
HETATM    2  C   UNL     1      26.618  47.603  39.153  1.00  0.00     0.145 C 
HETATM    3  N   UNL     1      25.301  48.249  39.231  1.00  0.00    -0.335 N 
HETATM    4  C   UNL     1      24.334  47.774  40.116  1.00  0.00     0.255 C 
HETATM    5  O   UNL     1      23.218  48.271  40.225  1.00  0.00    -0.267 OA
HETATM    6  C   UNL     1      24.746  46.663  41.031  1.00  0.00     0.039 A 
HETATM    7  C   UNL     1      26.117  46.447  41.308  1.00  0.00    -0.027 A 
HETATM    8  C   UNL     1      23.760  45.900  41.660  1.00  0.00     0.017 A 
HETATM    9  C   UNL     1      24.128  44.907  42.566  1.00  0.00     0.001 A 
HETATM   10  C   UNL     1      25.475  44.698  42.861  1.00  0.00     0.001 A 
HETATM   11  C   UNL     1      26.466  45.471  42.248  1.00  0.00     0.009 A 
ENDROOT
BRANCH   1  12
HETATM   12  C   UNL     1      28.590  47.008  40.562  1.00  0.00     0.229 C 
HETATM   13  N   UNL     1      29.380  48.056  41.003  1.00  0.00    -0.356 N 
HETATM   14  H   UNL     1      28.902  48.877  41.372  1.00  0.00     0.162 HD
HETATM   15  O   UNL     1      29.044  45.943  40.167  1.00  0.00    -0.273 OA
BRANCH  13  16
HETATM   16  C   UNL     1      30.839  48.130  40.976  1.00  0.00     0.087 C 
HETATM   17  C   UNL     1      31.417  48.975  39.838  1.00  0.00     0.045 C 
HETATM   18  C   UNL     1      31.719  50.424  40.204  1.00  0.00     0.130 C 
HETATM   19  N   UNL     1      32.393  50.538  41.491  1.00  0.00    -0.328 N 
HETATM   20  C   UNL     1      33.283  51.568  41.765  1.00  0.00     0.362 C 
HETATM   21  C   UNL     1      31.732  49.892  42.614  1.00  0.00     0.130 C 
HETATM   22  O   UNL     1      33.678  51.851  42.890  1.00  0.00    -0.238 OA
HETATM   23  C   UNL     1      31.467  48.418  42.341  1.00  0.00     0.045 C 
BRANCH  20  24
HETATM   24  O   UNL     1      33.691  52.219  40.641  1.00  0.00    -0.304 OA
BRANCH  24  25
HETATM   25  C   UNL     1      35.106  52.247  40.408  1.00  0.00     0.176 C 
HETATM   26  C   UNL     1      35.495  51.216  39.366  1.00  0.00     0.034 C 
ENDBRANCH  24  25
ENDBRANCH  20  24
ENDBRANCH  13  16
ENDBRANCH   1  12
BRANCH   2  27
HETATM   27  C   UNL     1      26.531  46.390  38.225  1.00  0.00     0.006 A 
HETATM   28  S   UNL     1      27.626  46.277  36.891  1.00  0.00    -0.104 SA
HETATM   29  C   UNL     1      26.975  44.787  36.378  1.00  0.00     0.050 A 
HETATM   30  C   UNL     1      25.974  44.349  37.210  1.00  0.00     0.008 A 
HETATM   31  C   UNL     1      25.725  45.265  38.274  1.00  0.00     0.017 A 
ENDBRANCH   2  27
BRANCH   3  32
HETATM   32  C   UNL     1      25.142  49.582  38.643  1.00  0.00     0.153 C 
BRANCH  32  33
HETATM   33  C   UNL     1      26.475  50.134  38.107  1.00  0.00     0.187 C 
BRANCH  33  34
HETATM   34  O   UNL     1      27.172  50.929  39.086  1.00  0.00    -0.394 OA
HETATM   35  C   UNL     1      28.197  51.728  38.502  1.00  0.00     0.201 C 
ENDBRANCH  33  34
ENDBRANCH  32  33
ENDBRANCH   3  32
TORSDOF 8
ENDMDL
MODEL 6
REMARK VINA RESULT:      -6.9     17.199     21.163
REMARK  8 active torsions:
REMARK  status: ('A' for Active; 'I' for Inactive)
REMARK    1  A    between atoms: C_2  and  O_3 
REMARK    2  A    between atoms: O_3  and  C_4 
REMARK       I    between atoms: C_4  and  N_5 
REMARK    3  A    between atoms: C_8  and  N_9 
REMARK       I    between atoms: N_9  and  C_10 
REMARK    4  A    between atoms: C_10  and  C_11 
REMARK    5  A    between atoms: C_12  and  C_13 
REMARK    6  A    between atoms: N_18  and  C_19 
REMARK    7  A    between atoms: C_19  and  C_20 
REMARK    8  A    between atoms: C_20  and  O_21 
ROOT
HETATM    1  C   UNL     1      36.497  51.714  42.191  1.00  0.00     0.139 C 
HETATM    2  C   UNL     1      36.897  53.175  41.898  1.00  0.00     0.145 C 
HETATM    3  N   UNL     1      37.911  53.163  40.835  1.00  0.00    -0.335 N 
HETATM    4  C   UNL     1      38.964  52.250  40.875  1.00  0.00     0.255 C 
HETATM    5  O   UNL     1      39.839  52.193  40.017  1.00  0.00    -0.267 OA
HETATM    6  C   UNL     1      38.942  51.244  41.983  1.00  0.00     0.039 A 
HETATM    7  C   UNL     1      37.724  50.937  42.635  1.00  0.00    -0.027 A 
HETATM    8  C   UNL     1      40.118  50.564  42.307  1.00  0.00     0.017 A 
HETATM    9  C   UNL     1      40.097  49.576  43.289  1.00  0.00     0.001 A 
HETATM   10  C   UNL     1      38.898  49.252  43.925  1.00  0.00     0.001 A 
HETATM   11  C   UNL     1      37.714  49.918  43.593  1.00  0.00     0.009 A 
ENDROOT
BRANCH   1  12
HETATM   12  C   UNL     1      35.224  51.703  43.021  1.00  0.00     0.229 C 
HETATM   13  N   UNL     1      34.239  50.905  42.465  1.00  0.00    -0.356 N 
HETATM   14  H   UNL     1      34.490  50.361  41.641  1.00  0.00     0.162 HD
HETATM   15  O   UNL     1      35.067  52.346  44.050  1.00  0.00    -0.273 OA
BRANCH  13  16
HETATM   16  C   UNL     1      32.855  50.773  42.914  1.00  0.00     0.087 C 
HETATM   17  C   UNL     1      31.961  51.975  42.602  1.00  0.00     0.045 C 
HETATM   18  C   UNL     1      31.163  51.863  41.308  1.00  0.00     0.130 C 
HETATM   19  N   UNL     1      30.546  50.551  41.154  1.00  0.00    -0.328 N 
HETATM   20  C   UNL     1      29.352  50.377  40.468  1.00  0.00     0.362 C 
HETATM   21  C   UNL     1      31.443  49.412  41.260  1.00  0.00     0.130 C 
HETATM   22  O   UNL     1      28.926  49.289  40.097  1.00  0.00    -0.238 OA
HETATM   23  C   UNL     1      32.220  49.424  42.568  1.00  0.00     0.045 C 
BRANCH  20  24
HETATM   24  O   UNL     1      28.688  51.550  40.269  1.00  0.00    -0.304 OA
BRANCH  24  25
HETATM   25  C   UNL     1      28.091  51.723  38.976  1.00  0.00     0.176 C 
HETATM   26  C   UNL     1      28.761  52.860  38.228  1.00  0.00     0.034 C 
ENDBRANCH  24  25
ENDBRANCH  20  24
ENDBRANCH  13  16
ENDBRANCH   1  12
BRANCH   2  27
HETATM   27  C   UNL     1      37.414  54.002  43.077  1.00  0.00     0.006 A 
HETATM   28  S   UNL     1      37.981  55.610  42.787  1.00  0.00    -0.104 SA
HETATM   29  C   UNL     1      38.349  55.864  44.432  1.00  0.00     0.050 A 
HETATM   30  C   UNL     1      38.021  54.778  45.207  1.00  0.00     0.008 A 
HETATM   31  C   UNL     1      37.476  53.713  44.431  1.00  0.00     0.017 A 
ENDBRANCH   2  27
BRANCH   3  32
HETATM   32  C   UNL     1      37.613  53.859  39.580  1.00  0.00     0.153 C 
BRANCH  32  33
HETATM   33  C   UNL     1      36.113  54.179  39.445  1.00  0.00     0.187 C 
BRANCH  33  34
HETATM   34  O   UNL     1      35.378  53.106  38.825  1.00  0.00    -0.394 OA
HETATM   35  C   UNL     1      34.082  52.941  39.393  1.00  0.00     0.201 C 
ENDBRANCH  33  34
ENDBRANCH  32  33
ENDBRANCH   3  32
TORSDOF 8
ENDMDL
MODEL 7
REMARK VINA RESULT:      -6.8      4.213      5.902
REMARK  8 active torsions:
REMARK  status: ('A' for Active; 'I' for Inactive)
REMARK    1  A    between atoms: C_2  and  O_3 
REMARK    2  A    between atoms: O_3  and  C_4 
REMARK       I    between atoms: C_4  and  N_5 
REMARK    3  A    between atoms: C_8  and  N_9 
REMARK       I    between atoms: N_9  and  C_10 
REMARK    4  A    between atoms: C_10  and  C_11 
REMARK    5  A    between atoms: C_12  and  C_13 
REMARK    6  A    between atoms: N_18  and  C_19 
REMARK    7  A    between atoms: C_19  and  C_20 
REMARK    8  A    between atoms: C_20  and  O_21 
ROOT
HETATM    1  C   UNL     1      19.881  48.607  49.511  1.00  0.00     0.139 C 
HETATM    2  C   UNL     1      19.528  47.540  48.456  1.00  0.00     0.145 C 
HETATM    3  N   UNL     1      20.676  46.633  48.326  1.00  0.00    -0.335 N 
HETATM    4  C   UNL     1      21.972  47.143  48.250  1.00  0.00     0.255 C 
HETATM    5  O   UNL     1      22.968  46.436  48.140  1.00  0.00    -0.267 OA
HETATM    6  C   UNL     1      22.123  48.623  48.409  1.00  0.00     0.039 A 
HETATM    7  C   UNL     1      21.113  49.372  49.058  1.00  0.00    -0.027 A 
HETATM    8  C   UNL     1      23.303  49.236  47.979  1.00  0.00     0.017 A 
HETATM    9  C   UNL     1      23.486  50.601  48.183  1.00  0.00     0.001 A 
HETATM   10  C   UNL     1      22.505  51.346  48.838  1.00  0.00     0.001 A 
HETATM   11  C   UNL     1      21.329  50.735  49.287  1.00  0.00     0.009 A 
ENDROOT
BRANCH   1  12
HETATM   12  C   UNL     1      18.615  49.341  49.922  1.00  0.00     0.229 C 
HETATM   13  N   UNL     1      17.708  49.448  48.882  1.00  0.00    -0.356 N 
HETATM   14  H   UNL     1      17.934  48.967  48.014  1.00  0.00     0.162 HD
HETATM   15  O   UNL     1      18.422  49.812  51.034  1.00  0.00    -0.273 OA
BRANCH  13  16
HETATM   16  C   UNL     1      16.458  50.205  48.879  1.00  0.00     0.087 C 
HETATM   17  C   UNL     1      16.621  51.714  48.680  1.00  0.00     0.045 C 
HETATM   18  C   UNL     1      16.482  52.190  47.238  1.00  0.00     0.130 C 
HETATM   19  N   UNL     1      15.346  51.575  46.563  1.00  0.00    -0.328 N 
HETATM   20  C   UNL     1      14.650  52.229  45.555  1.00  0.00     0.362 C 
HETATM   21  C   UNL     1      15.300  50.122  46.591  1.00  0.00     0.130 C 
HETATM   22  O   UNL     1      13.863  51.675  44.795  1.00  0.00    -0.238 OA
HETATM   23  C   UNL     1      15.361  49.582  48.012  1.00  0.00     0.045 C 
BRANCH  20  24
HETATM   24  O   UNL     1      14.919  53.563  45.514  1.00  0.00    -0.304 OA
BRANCH  24  25
HETATM   25  C   UNL     1      15.269  54.095  44.229  1.00  0.00     0.176 C 
HETATM   26  C   UNL     1      16.655  53.634  43.821  1.00  0.00     0.034 C 
ENDBRANCH  24  25
ENDBRANCH  20  24
ENDBRANCH  13  16
ENDBRANCH   1  12
BRANCH   2  27
HETATM   27  C   UNL     1      19.123  48.043  47.069  1.00  0.00     0.006 A 
HETATM   28  S   UNL     1      18.147  47.030  46.063  1.00  0.00    -0.104 SA
HETATM   29  C   UNL     1      18.112  48.177  44.802  1.00  0.00     0.050 A 
HETATM   30  C   UNL     1      18.788  49.326  45.133  1.00  0.00     0.008 A 
HETATM   31  C   UNL     1      19.360  49.253  46.437  1.00  0.00     0.017 A 
ENDBRANCH   2  27
BRANCH   3  32
HETATM   32  C   UNL     1      20.481  45.213  48.630  1.00  0.00     0.153 C 
BRANCH  32  33
HETATM   33  C   UNL     1      20.510  44.346  47.358  1.00  0.00     0.187 C 
BRANCH  33  34
HETATM   34  O   UNL     1      19.233  43.738  47.080  1.00  0.00    -0.394 OA
HETATM   35  C   UNL     1      19.099  43.365  45.711  1.00  0.00     0.201 C 
ENDBRANCH  33  34
ENDBRANCH  32  33
ENDBRANCH   3  32
TORSDOF 8
ENDMDL
MODEL 8
REMARK VINA RESULT:      -6.5      3.853      6.259
REMARK  8 active torsions:
REMARK  status: ('A' for Active; 'I' for Inactive)
REMARK    1  A    between atoms: C_2  and  O_3 
REMARK    2  A    between atoms: O_3  and  C_4 
REMARK       I    between atoms: C_4  and  N_5 
REMARK    3  A    between atoms: C_8  and  N_9 
REMARK       I    between atoms: N_9  and  C_10 
REMARK    4  A    between atoms: C_10  and  C_11 
REMARK    5  A    between atoms: C_12  and  C_13 
REMARK    6  A    between atoms: N_18  and  C_19 
REMARK    7  A    between atoms: C_19  and  C_20 
REMARK    8  A    between atoms: C_20  and  O_21 
ROOT
HETATM    1  C   UNL     1      19.011  47.801  48.880  1.00  0.00     0.139 C 
HETATM    2  C   UNL     1      19.407  46.622  47.969  1.00  0.00     0.145 C 
HETATM    3  N   UNL     1      20.789  46.243  48.292  1.00  0.00    -0.335 N 
HETATM    4  C   UNL     1      21.767  47.222  48.463  1.00  0.00     0.255 C 
HETATM    5  O   UNL     1      22.936  46.966  48.733  1.00  0.00    -0.267 OA
HETATM    6  C   UNL     1      21.313  48.646  48.400  1.00  0.00     0.039 A 
HETATM    7  C   UNL     1      19.954  48.966  48.632  1.00  0.00    -0.027 A 
HETATM    8  C   UNL     1      22.258  49.653  48.186  1.00  0.00     0.017 A 
HETATM    9  C   UNL     1      21.859  50.987  48.193  1.00  0.00     0.001 A 
HETATM   10  C   UNL     1      20.525  51.315  48.439  1.00  0.00     0.001 A 
HETATM   11  C   UNL     1      19.577  50.313  48.671  1.00  0.00     0.009 A 
ENDROOT
BRANCH   1  12
HETATM   12  C   UNL     1      17.504  47.991  48.823  1.00  0.00     0.229 C 
HETATM   13  N   UNL     1      17.147  49.194  48.240  1.00  0.00    -0.356 N 
HETATM   14  H   UNL     1      17.894  49.761  47.845  1.00  0.00     0.162 HD
HETATM   15  O   UNL     1      16.692  47.190  49.266  1.00  0.00    -0.273 OA
BRANCH  13  16
HETATM   16  C   UNL     1      15.803  49.763  48.148  1.00  0.00     0.087 C 
HETATM   17  C   UNL     1      15.683  51.206  48.642  1.00  0.00     0.045 C 
HETATM   18  C   UNL     1      15.807  52.269  47.556  1.00  0.00     0.130 C 
HETATM   19  N   UNL     1      15.033  51.933  46.367  1.00  0.00    -0.328 N 
HETATM   20  C   UNL     1      14.485  52.911  45.547  1.00  0.00     0.362 C 
HETATM   21  C   UNL     1      15.296  50.626  45.786  1.00  0.00     0.130 C 
HETATM   22  O   UNL     1      14.050  52.697  44.422  1.00  0.00    -0.238 OA
HETATM   23  C   UNL     1      15.117  49.509  46.804  1.00  0.00     0.045 C 
BRANCH  20  24
HETATM   24  O   UNL     1      14.461  54.137  46.140  1.00  0.00    -0.304 OA
BRANCH  24  25
HETATM   25  C   UNL     1      13.169  54.624  46.528  1.00  0.00     0.176 C 
HETATM   26  C   UNL     1      13.096  54.800  48.033  1.00  0.00     0.034 C 
ENDBRANCH  24  25
ENDBRANCH  20  24
ENDBRANCH  13  16
ENDBRANCH   1  12
BRANCH   2  27
HETATM   27  C   UNL     1      19.285  46.841  46.459  1.00  0.00     0.006 A 
HETATM   28  S   UNL     1      19.588  45.513  45.394  1.00  0.00    -0.104 SA
HETATM   29  C   UNL     1      19.275  46.450  44.004  1.00  0.00     0.050 A 
HETATM   30  C   UNL     1      18.908  47.735  44.322  1.00  0.00     0.008 A 
HETATM   31  C   UNL     1      18.906  47.957  45.731  1.00  0.00     0.017 A 
ENDBRANCH   2  27
BRANCH   3  32
HETATM   32  C   UNL     1      21.044  44.883  48.775  1.00  0.00     0.153 C 
BRANCH  32  33
HETATM   33  C   UNL     1      21.917  44.081  47.792  1.00  0.00     0.187 C 
BRANCH  33  34
HETATM   34  O   UNL     1      23.150  43.636  48.391  1.00  0.00    -0.394 OA
HETATM   35  C   UNL     1      22.971  43.207  49.738  1.00  0.00     0.201 C 
ENDBRANCH  33  34
ENDBRANCH  32  33
ENDBRANCH   3  32
TORSDOF 8
ENDMDL
MODEL 9
REMARK VINA RESULT:      -6.4      2.850      7.618
REMARK  8 active torsions:
REMARK  status: ('A' for Active; 'I' for Inactive)
REMARK    1  A    between atoms: C_2  and  O_3 
REMARK    2  A    between atoms: O_3  and  C_4 
REMARK       I    between atoms: C_4  and  N_5 
REMARK    3  A    between atoms: C_8  and  N_9 
REMARK       I    between atoms: N_9  and  C_10 
REMARK    4  A    between atoms: C_10  and  C_11 
REMARK    5  A    between atoms: C_12  and  C_13 
REMARK    6  A    between atoms: N_18  and  C_19 
REMARK    7  A    between atoms: C_19  and  C_20 
REMARK    8  A    between atoms: C_20  and  O_21 
ROOT
HETATM    1  C   UNL     1      15.205  49.650  46.842  1.00  0.00     0.139 C 
HETATM    2  C   UNL     1      16.009  50.880  46.374  1.00  0.00     0.145 C 
HETATM    3  N   UNL     1      15.054  51.944  46.034  1.00  0.00    -0.335 N 
HETATM    4  C   UNL     1      13.915  51.654  45.284  1.00  0.00     0.255 C 
HETATM    5  O   UNL     1      13.083  52.499  44.969  1.00  0.00    -0.267 OA
HETATM    6  C   UNL     1      13.678  50.215  44.947  1.00  0.00     0.039 A 
HETATM    7  C   UNL     1      14.283  49.198  45.722  1.00  0.00    -0.027 A 
HETATM    8  C   UNL     1      12.796  49.896  43.911  1.00  0.00     0.017 A 
HETATM    9  C   UNL     1      12.514  48.561  43.630  1.00  0.00     0.001 A 
HETATM   10  C   UNL     1      13.091  47.551  44.400  1.00  0.00     0.001 A 
HETATM   11  C   UNL     1      13.961  47.864  45.450  1.00  0.00     0.009 A 
ENDROOT
BRANCH   1  12
HETATM   12  C   UNL     1      16.145  48.669  47.523  1.00  0.00     0.229 C 
HETATM   13  N   UNL     1      17.032  49.297  48.379  1.00  0.00    -0.356 N 
HETATM   14  H   UNL     1      16.909  50.298  48.527  1.00  0.00     0.162 HD
HETATM   15  O   UNL     1      16.145  47.462  47.321  1.00  0.00    -0.273 OA
BRANCH  13  16
HETATM   16  C   UNL     1      18.157  48.687  49.085  1.00  0.00     0.087 C 
HETATM   17  C   UNL     1      19.263  48.140  48.179  1.00  0.00     0.045 C 
HETATM   18  C   UNL     1      20.420  49.101  47.928  1.00  0.00     0.130 C 
HETATM   19  N   UNL     1      20.862  49.760  49.150  1.00  0.00    -0.328 N 
HETATM   20  C   UNL     1      22.180  50.159  49.334  1.00  0.00     0.362 C 
HETATM   21  C   UNL     1      19.831  50.447  49.910  1.00  0.00     0.130 C 
HETATM   22  O   UNL     1      22.547  50.927  50.215  1.00  0.00    -0.238 OA
HETATM   23  C   UNL     1      18.675  49.521  50.259  1.00  0.00     0.045 C 
BRANCH  20  24
HETATM   24  O   UNL     1      23.030  49.584  48.438  1.00  0.00    -0.304 OA
BRANCH  24  25
HETATM   25  C   UNL     1      24.202  48.967  48.989  1.00  0.00     0.176 C 
HETATM   26  C   UNL     1      25.454  49.656  48.483  1.00  0.00     0.034 C 
ENDBRANCH  24  25
ENDBRANCH  20  24
ENDBRANCH  13  16
ENDBRANCH   1  12
BRANCH   2  27
HETATM   27  C   UNL     1      16.973  50.675  45.204  1.00  0.00     0.006 A 
HETATM   28  S   UNL     1      17.149  51.935  44.033  1.00  0.00    -0.104 SA
HETATM   29  C   UNL     1      18.293  51.050  43.131  1.00  0.00     0.050 A 
HETATM   30  C   UNL     1      18.579  49.838  43.711  1.00  0.00     0.008 A 
HETATM   31  C   UNL     1      17.828  49.626  44.905  1.00  0.00     0.017 A 
ENDBRANCH   2  27
BRANCH   3  32
HETATM   32  C   UNL     1      15.125  53.207  46.773  1.00  0.00     0.153 C 
BRANCH  32  33
HETATM   33  C   UNL     1      15.147  52.978  48.296  1.00  0.00     0.187 C 
BRANCH  33  34
HETATM   34  O   UNL     1      14.190  53.803  48.988  1.00  0.00    -0.394 OA
HETATM   35  C   UNL     1      14.812  54.861  49.712  1.00  0.00     0.201 C 
ENDBRANCH  33  34
ENDBRANCH  32  33
ENDBRANCH   3  32
TORSDOF 8
ENDMDL
MODEL 10
REMARK VINA RESULT:      -6.3      3.737      7.826
REMARK  8 active torsions:
REMARK  status: ('A' for Active; 'I' for Inactive)
REMARK    1  A    between atoms: C_2  and  O_3 
REMARK    2  A    between atoms: O_3  and  C_4 
REMARK       I    between atoms: C_4  and  N_5 
REMARK    3  A    between atoms: C_8  and  N_9 
REMARK       I    between atoms: N_9  and  C_10 
REMARK    4  A    between atoms: C_10  and  C_11 
REMARK    5  A    between atoms: C_12  and  C_13 
REMARK    6  A    between atoms: N_18  and  C_19 
REMARK    7  A    between atoms: C_19  and  C_20 
REMARK    8  A    between atoms: C_20  and  O_21 
ROOT
HETATM    1  C   UNL     1      16.655  51.984  46.690  1.00  0.00     0.139 C 
HETATM    2  C   UNL     1      16.548  51.105  45.428  1.00  0.00     0.145 C 
HETATM    3  N   UNL     1      16.571  51.990  44.255  1.00  0.00    -0.335 N 
HETATM    4  C   UNL     1      15.808  53.157  44.238  1.00  0.00     0.255 C 
HETATM    5  O   UNL     1      15.787  53.934  43.288  1.00  0.00    -0.267 OA
HETATM    6  C   UNL     1      15.066  53.495  45.492  1.00  0.00     0.039 A 
HETATM    7  C   UNL     1      15.482  52.950  46.730  1.00  0.00    -0.027 A 
HETATM    8  C   UNL     1      14.012  54.411  45.433  1.00  0.00     0.017 A 
HETATM    9  C   UNL     1      13.356  54.786  46.603  1.00  0.00     0.001 A 
HETATM   10  C   UNL     1      13.771  54.269  47.831  1.00  0.00     0.001 A 
HETATM   11  C   UNL     1      14.837  53.366  47.899  1.00  0.00     0.009 A 
ENDROOT
BRANCH   1  12
HETATM   12  C   UNL     1      16.981  51.103  47.885  1.00  0.00     0.229 C 
HETATM   13  N   UNL     1      18.335  51.081  48.168  1.00  0.00    -0.356 N 
HETATM   14  H   UNL     1      18.935  51.701  47.628  1.00  0.00     0.162 HD
HETATM   15  O   UNL     1      16.151  50.461  48.513  1.00  0.00    -0.273 OA
BRANCH  13  16
HETATM   16  C   UNL     1      19.015  50.239  49.151  1.00  0.00     0.087 C 
HETATM   17  C   UNL     1      19.388  48.842  48.650  1.00  0.00     0.045 C 
HETATM   18  C   UNL     1      20.807  48.713  48.105  1.00  0.00     0.130 C 
HETATM   19  N   UNL     1      21.786  49.367  48.963  1.00  0.00    -0.328 N 
HETATM   20  C   UNL     1      23.096  48.914  49.061  1.00  0.00     0.362 C 
HETATM   21  C   UNL     1      21.524  50.762  49.279  1.00  0.00     0.130 C 
HETATM   22  O   UNL     1      24.010  49.561  49.560  1.00  0.00    -0.238 OA
HETATM   23  C   UNL     1      20.146  50.951  49.897  1.00  0.00     0.045 C 
BRANCH  20  24
HETATM   24  O   UNL     1      23.252  47.657  48.562  1.00  0.00    -0.304 OA
BRANCH  24  25
HETATM   25  C   UNL     1      23.855  46.700  49.444  1.00  0.00     0.176 C 
HETATM   26  C   UNL     1      23.258  45.323  49.225  1.00  0.00     0.034 C 
ENDBRANCH  24  25
ENDBRANCH  20  24
ENDBRANCH  13  16
ENDBRANCH   1  12
BRANCH   2  27
HETATM   27  C   UNL     1      15.338  50.173  45.331  1.00  0.00     0.006 A 
HETATM   28  S   UNL     1      15.558  48.483  45.623  1.00  0.00    -0.104 SA
HETATM   29  C   UNL     1      13.908  48.140  45.363  1.00  0.00     0.050 A 
HETATM   30  C   UNL     1      13.182  49.276  45.098  1.00  0.00     0.008 A 
HETATM   31  C   UNL     1      14.001  50.443  45.088  1.00  0.00     0.017 A 
ENDBRANCH   2  27
BRANCH   3  32
HETATM   32  C   UNL     1      17.650  51.824  43.278  1.00  0.00     0.153 C 
BRANCH  32  33
HETATM   33  C   UNL     1      18.535  50.607  43.603  1.00  0.00     0.187 C 
BRANCH  33  34
HETATM   34  O   UNL     1      18.188  49.452  42.815  1.00  0.00    -0.394 OA
HETATM   35  C   UNL     1      19.121  49.214  41.765  1.00  0.00     0.201 C 
ENDBRANCH  33  34
ENDBRANCH  32  33
ENDBRANCH   3  32
TORSDOF 8
ENDMDL
