MODEL 1
REMARK VINA RESULT:      -9.2      0.000      0.000
REMARK  7 active torsions:
REMARK  status: ('A' for Active; 'I' for Inactive)
REMARK    1  A    between atoms: C_2  and  N_3 
REMARK    2  A    between atoms: N_3  and  C_4 
REMARK    3  A    between atoms: C_4  and  N_5 
REMARK    4  A    between atoms: N_5  and  N_6 
REMARK    5  A    between atoms: N_6  and  C_7 
REMARK    6  A    between atoms: N_8  and  C_9 
REMARK    7  A    between atoms: C_9  and  C_10 
ROOT
HETATM    1  C   UNL     1      25.658  42.297  50.937  1.00  0.00     0.204 C 
HETATM    2  N   UNL     1      24.896  42.796  49.902  1.00  0.00    -0.283 N 
HETATM    3  C   UNL     1      24.955  44.138  49.584  1.00  0.00     0.259 C 
HETATM    4  O   UNL     1      24.638  44.562  48.476  1.00  0.00    -0.267 OA
HETATM    5  C   UNL     1      25.449  45.055  50.645  1.00  0.00     0.049 C 
HETATM    6  C   UNL     1      26.068  44.446  51.676  1.00  0.00     0.083 C 
HETATM    7  C   UNL     1      26.622  45.276  52.780  1.00  0.00    -0.000 A 
HETATM    8  C   UNL     1      26.241  46.619  52.909  1.00  0.00    -0.044 A 
HETATM    9  C   UNL     1      26.720  47.396  53.975  1.00  0.00     0.008 A 
HETATM   10  C   UNL     1      27.596  46.846  54.909  1.00  0.00     0.001 A 
HETATM   11  C   UNL     1      27.988  45.517  54.788  1.00  0.00     0.001 A 
HETATM   12  C   UNL     1      27.502  44.739  53.733  1.00  0.00     0.014 A 
HETATM   13  C   UNL     1      25.239  47.197  51.949  1.00  0.00     0.054 C 
HETATM   14  C   UNL     1      25.302  46.584  50.515  1.00  0.00    -0.002 C 
HETATM   15  C   UNL     1      26.542  47.107  49.733  1.00  0.00     0.015 C 
HETATM   16  C   UNL     1      26.509  48.607  49.436  1.00  0.00     0.001 C 
HETATM   17  C   UNL     1      25.216  49.029  48.751  1.00  0.00     0.000 C 
HETATM   18  C   UNL     1      23.981  48.574  49.521  1.00  0.00     0.001 C 
HETATM   19  C   UNL     1      24.011  47.064  49.781  1.00  0.00     0.015 C 
HETATM   20  N   UNL     1      26.257  43.092  51.777  1.00  0.00    -0.217 NA
ENDROOT
BRANCH   1  21
HETATM   21  N   UNL     1      25.818  40.929  51.077  1.00  0.00    -0.171 NA
HETATM   22  H   UNL     1      25.719  40.348  50.247  1.00  0.00     0.156 HD
BRANCH  21  23
HETATM   23  N   UNL     1      26.934  40.546  51.855  1.00  0.00    -0.291 N 
HETATM   24  H   UNL     1      26.681  39.862  52.568  1.00  0.00     0.183 HD
BRANCH  23  25
HETATM   25  C   UNL     1      28.166  40.430  51.261  1.00  0.00     0.182 C 
HETATM   26  S   UNL     1      28.541  39.455  49.956  1.00  0.00    -0.040 SA
BRANCH  25  27
HETATM   27  N   UNL     1      29.146  41.249  51.753  1.00  0.00    -0.367 N 
HETATM   28  H   UNL     1      29.606  41.797  51.034  1.00  0.00     0.161 HD
BRANCH  27  29
HETATM   29  C   UNL     1      29.289  41.725  53.120  1.00  0.00     0.117 C 
HETATM   30  C   UNL     1      30.379  42.779  53.224  1.00  0.00     0.026 C 
ENDBRANCH  27  29
ENDBRANCH  25  27
ENDBRANCH  23  25
ENDBRANCH  21  23
ENDBRANCH   1  21
BRANCH   2  31
HETATM   31  C   UNL     1      24.122  41.938  49.012  1.00  0.00     0.173 C 
BRANCH  31  32
HETATM   32  C   UNL     1      24.804  41.509  47.727  1.00  0.00    -0.040 A 
HETATM   33  C   UNL     1      26.137  41.078  47.664  1.00  0.00     0.009 A 
HETATM   34  C   UNL     1      26.714  40.728  46.441  1.00  0.00     0.001 A 
HETATM   35  C   UNL     1      25.973  40.812  45.264  1.00  0.00     0.000 A 
HETATM   36  C   UNL     1      24.651  41.245  45.309  1.00  0.00     0.001 A 
HETATM   37  C   UNL     1      24.071  41.590  46.530  1.00  0.00     0.009 A 
ENDBRANCH  31  32
ENDBRANCH   2  31
TORSDOF 7
ENDMDL
MODEL 2
REMARK VINA RESULT:      -8.9      1.493      2.375
REMARK  7 active torsions:
REMARK  status: ('A' for Active; 'I' for Inactive)
REMARK    1  A    between atoms: C_2  and  N_3 
REMARK    2  A    between atoms: N_3  and  C_4 
REMARK    3  A    between atoms: C_4  and  N_5 
REMARK    4  A    between atoms: N_5  and  N_6 
REMARK    5  A    between atoms: N_6  and  C_7 
REMARK    6  A    between atoms: N_8  and  C_9 
REMARK    7  A    between atoms: C_9  and  C_10 
ROOT
HETATM    1  C   UNL     1      26.715  41.783  51.380  1.00  0.00     0.204 C 
HETATM    2  N   UNL     1      25.867  42.155  50.359  1.00  0.00    -0.283 N 
HETATM    3  C   UNL     1      25.718  43.488  50.034  1.00  0.00     0.259 C 
HETATM    4  O   UNL     1      25.318  43.852  48.931  1.00  0.00    -0.267 OA
HETATM    5  C   UNL     1      26.091  44.476  51.080  1.00  0.00     0.049 C 
HETATM    6  C   UNL     1      26.815  43.975  52.100  1.00  0.00     0.083 C 
HETATM    7  C   UNL     1      27.263  44.887  53.188  1.00  0.00    -0.000 A 
HETATM    8  C   UNL     1      26.688  46.159  53.318  1.00  0.00    -0.044 A 
HETATM    9  C   UNL     1      27.068  47.007  54.371  1.00  0.00     0.008 A 
HETATM   10  C   UNL     1      28.035  46.601  55.287  1.00  0.00     0.001 A 
HETATM   11  C   UNL     1      28.618  45.344  55.164  1.00  0.00     0.001 A 
HETATM   12  C   UNL     1      28.232  44.494  54.124  1.00  0.00     0.014 A 
HETATM   13  C   UNL     1      25.591  46.573  52.378  1.00  0.00     0.054 C 
HETATM   14  C   UNL     1      25.715  45.965  50.946  1.00  0.00    -0.002 C 
HETATM   15  C   UNL     1      26.846  46.661  50.135  1.00  0.00     0.015 C 
HETATM   16  C   UNL     1      26.584  48.138  49.831  1.00  0.00     0.001 C 
HETATM   17  C   UNL     1      25.228  48.356  49.173  1.00  0.00     0.000 C 
HETATM   18  C   UNL     1      24.091  47.728  49.972  1.00  0.00     0.001 C 
HETATM   19  C   UNL     1      24.352  46.242  50.238  1.00  0.00     0.015 C 
HETATM   20  N   UNL     1      27.206  42.665  52.203  1.00  0.00    -0.217 NA
ENDROOT
BRANCH   1  21
HETATM   21  N   UNL     1      27.081  40.455  51.522  1.00  0.00    -0.171 NA
HETATM   22  H   UNL     1      26.421  39.742  51.221  1.00  0.00     0.156 HD
BRANCH  21  23
HETATM   23  N   UNL     1      28.398  40.162  51.102  1.00  0.00    -0.291 N 
HETATM   24  H   UNL     1      29.094  40.594  51.710  1.00  0.00     0.183 HD
BRANCH  23  25
HETATM   25  C   UNL     1      28.683  38.926  50.577  1.00  0.00     0.182 C 
HETATM   26  S   UNL     1      30.128  38.100  50.734  1.00  0.00    -0.040 SA
BRANCH  25  27
HETATM   27  N   UNL     1      27.653  38.300  49.929  1.00  0.00    -0.367 N 
HETATM   28  H   UNL     1      26.741  38.656  50.193  1.00  0.00     0.161 HD
BRANCH  27  29
HETATM   29  C   UNL     1      27.722  37.560  48.679  1.00  0.00     0.117 C 
HETATM   30  C   UNL     1      26.354  37.037  48.274  1.00  0.00     0.026 C 
ENDBRANCH  27  29
ENDBRANCH  25  27
ENDBRANCH  23  25
ENDBRANCH  21  23
ENDBRANCH   1  21
BRANCH   2  31
HETATM   31  C   UNL     1      25.210  41.184  49.490  1.00  0.00     0.173 C 
BRANCH  31  32
HETATM   32  C   UNL     1      25.877  40.917  48.154  1.00  0.00    -0.040 A 
HETATM   33  C   UNL     1      25.213  40.354  47.055  1.00  0.00     0.009 A 
HETATM   34  C   UNL     1      25.897  40.104  45.863  1.00  0.00     0.001 A 
HETATM   35  C   UNL     1      27.253  40.403  45.754  1.00  0.00     0.000 A 
HETATM   36  C   UNL     1      27.929  40.956  46.838  1.00  0.00     0.001 A 
HETATM   37  C   UNL     1      27.246  41.212  48.029  1.00  0.00     0.009 A 
ENDBRANCH  31  32
ENDBRANCH   2  31
TORSDOF 7
ENDMDL
MODEL 3
REMARK VINA RESULT:      -8.6      2.559      6.830
REMARK  7 active torsions:
REMARK  status: ('A' for Active; 'I' for Inactive)
REMARK    1  A    between atoms: C_2  and  N_3 
REMARK    2  A    between atoms: N_3  and  C_4 
REMARK    3  A    between atoms: C_4  and  N_5 
REMARK    4  A    between atoms: N_5  and  N_6 
REMARK    5  A    between atoms: N_6  and  C_7 
REMARK    6  A    between atoms: N_8  and  C_9 
REMARK    7  A    between atoms: C_9  and  C_10 
ROOT
HETATM    1  C   UNL     1      25.450  44.093  49.371  1.00  0.00     0.204 C 
HETATM    2  N   UNL     1      25.500  44.782  50.564  1.00  0.00    -0.283 N 
HETATM    3  C   UNL     1      26.508  44.524  51.471  1.00  0.00     0.259 C 
HETATM    4  O   UNL     1      26.841  45.338  52.328  1.00  0.00    -0.267 OA
HETATM    5  C   UNL     1      27.198  43.213  51.347  1.00  0.00     0.049 C 
HETATM    6  C   UNL     1      26.976  42.563  50.187  1.00  0.00     0.083 C 
HETATM    7  C   UNL     1      27.641  41.253  49.951  1.00  0.00    -0.000 A 
HETATM    8  C   UNL     1      28.228  40.561  51.021  1.00  0.00    -0.044 A 
HETATM    9  C   UNL     1      28.814  39.301  50.817  1.00  0.00     0.008 A 
HETATM   10  C   UNL     1      28.837  38.733  49.546  1.00  0.00     0.001 A 
HETATM   11  C   UNL     1      28.265  39.414  48.475  1.00  0.00     0.001 A 
HETATM   12  C   UNL     1      27.670  40.662  48.679  1.00  0.00     0.014 A 
HETATM   13  C   UNL     1      28.140  41.134  52.408  1.00  0.00     0.054 C 
HETATM   14  C   UNL     1      28.137  42.694  52.454  1.00  0.00    -0.002 C 
HETATM   15  C   UNL     1      29.556  43.268  52.169  1.00  0.00     0.015 C 
HETATM   16  C   UNL     1      30.599  42.920  53.233  1.00  0.00     0.001 C 
HETATM   17  C   UNL     1      30.133  43.290  54.636  1.00  0.00     0.000 C 
HETATM   18  C   UNL     1      28.766  42.698  54.963  1.00  0.00     0.001 C 
HETATM   19  C   UNL     1      27.725  43.084  53.908  1.00  0.00     0.015 C 
HETATM   20  N   UNL     1      26.189  43.040  49.170  1.00  0.00    -0.217 NA
ENDROOT
BRANCH   1  21
HETATM   21  N   UNL     1      24.625  44.538  48.352  1.00  0.00    -0.171 NA
HETATM   22  H   UNL     1      25.051  44.778  47.460  1.00  0.00     0.156 HD
BRANCH  21  23
HETATM   23  N   UNL     1      23.443  43.781  48.183  1.00  0.00    -0.291 N 
HETATM   24  H   UNL     1      22.654  44.195  48.680  1.00  0.00     0.183 HD
BRANCH  23  25
HETATM   25  C   UNL     1      23.195  43.172  46.978  1.00  0.00     0.182 C 
HETATM   26  S   UNL     1      21.733  43.152  46.169  1.00  0.00    -0.040 SA
BRANCH  25  27
HETATM   27  N   UNL     1      24.275  42.595  46.367  1.00  0.00    -0.367 N 
HETATM   28  H   UNL     1      24.985  43.266  46.094  1.00  0.00     0.161 HD
BRANCH  27  29
HETATM   29  C   UNL     1      24.699  41.207  46.459  1.00  0.00     0.117 C 
HETATM   30  C   UNL     1      24.015  40.499  47.616  1.00  0.00     0.026 C 
ENDBRANCH  27  29
ENDBRANCH  25  27
ENDBRANCH  23  25
ENDBRANCH  21  23
ENDBRANCH   1  21
BRANCH   2  31
HETATM   31  C   UNL     1      24.607  45.896  50.866  1.00  0.00     0.173 C 
BRANCH  31  32
HETATM   32  C   UNL     1      24.828  47.170  50.074  1.00  0.00    -0.040 A 
HETATM   33  C   UNL     1      26.093  47.728  49.839  1.00  0.00     0.009 A 
HETATM   34  C   UNL     1      26.223  48.923  49.129  1.00  0.00     0.001 A 
HETATM   35  C   UNL     1      25.093  49.583  48.651  1.00  0.00     0.000 A 
HETATM   36  C   UNL     1      23.829  49.047  48.881  1.00  0.00     0.001 A 
HETATM   37  C   UNL     1      23.698  47.849  49.585  1.00  0.00     0.009 A 
ENDBRANCH  31  32
ENDBRANCH   2  31
TORSDOF 7
ENDMDL
MODEL 4
REMARK VINA RESULT:      -8.5      2.233      6.079
REMARK  7 active torsions:
REMARK  status: ('A' for Active; 'I' for Inactive)
REMARK    1  A    between atoms: C_2  and  N_3 
REMARK    2  A    between atoms: N_3  and  C_4 
REMARK    3  A    between atoms: C_4  and  N_5 
REMARK    4  A    between atoms: N_5  and  N_6 
REMARK    5  A    between atoms: N_6  and  C_7 
REMARK    6  A    between atoms: N_8  and  C_9 
REMARK    7  A    between atoms: C_9  and  C_10 
ROOT
HETATM    1  C   UNL     1      26.017  45.159  51.610  1.00  0.00     0.204 C 
HETATM    2  N   UNL     1      25.062  45.688  50.768  1.00  0.00    -0.283 N 
HETATM    3  C   UNL     1      24.367  44.864  49.905  1.00  0.00     0.259 C 
HETATM    4  O   UNL     1      23.274  45.176  49.440  1.00  0.00    -0.267 OA
HETATM    5  C   UNL     1      24.996  43.557  49.579  1.00  0.00     0.049 C 
HETATM    6  C   UNL     1      26.008  43.197  50.392  1.00  0.00     0.083 C 
HETATM    7  C   UNL     1      26.690  41.893  50.168  1.00  0.00    -0.000 A 
HETATM    8  C   UNL     1      26.503  41.202  48.962  1.00  0.00    -0.044 A 
HETATM    9  C   UNL     1      27.181  39.996  48.720  1.00  0.00     0.008 A 
HETATM   10  C   UNL     1      28.031  39.462  49.685  1.00  0.00     0.001 A 
HETATM   11  C   UNL     1      28.219  40.134  50.889  1.00  0.00     0.001 A 
HETATM   12  C   UNL     1      27.555  41.341  51.125  1.00  0.00     0.014 A 
HETATM   13  C   UNL     1      25.646  41.810  47.887  1.00  0.00     0.054 C 
HETATM   14  C   UNL     1      24.467  42.679  48.428  1.00  0.00    -0.002 C 
HETATM   15  C   UNL     1      23.331  41.787  49.007  1.00  0.00     0.015 C 
HETATM   16  C   UNL     1      22.629  40.910  47.968  1.00  0.00     0.001 C 
HETATM   17  C   UNL     1      22.133  41.719  46.776  1.00  0.00     0.000 C 
HETATM   18  C   UNL     1      23.238  42.565  46.154  1.00  0.00     0.001 C 
HETATM   19  C   UNL     1      23.907  43.463  47.200  1.00  0.00     0.015 C 
HETATM   20  N   UNL     1      26.452  43.942  51.455  1.00  0.00    -0.217 NA
ENDROOT
BRANCH   1  21
HETATM   21  N   UNL     1      26.506  45.919  52.659  1.00  0.00    -0.171 NA
HETATM   22  H   UNL     1      26.174  46.876  52.753  1.00  0.00     0.156 HD
BRANCH  21  23
HETATM   23  N   UNL     1      26.535  45.249  53.903  1.00  0.00    -0.291 N 
HETATM   24  H   UNL     1      25.798  44.548  53.973  1.00  0.00     0.183 HD
BRANCH  23  25
HETATM   25  C   UNL     1      27.742  44.973  54.496  1.00  0.00     0.182 C 
HETATM   26  S   UNL     1      28.555  45.957  55.575  1.00  0.00    -0.040 SA
BRANCH  25  27
HETATM   27  N   UNL     1      28.278  43.745  54.219  1.00  0.00    -0.367 N 
HETATM   28  H   UNL     1      27.765  43.238  53.506  1.00  0.00     0.161 HD
BRANCH  27  29
HETATM   29  C   UNL     1      29.640  43.302  54.474  1.00  0.00     0.117 C 
HETATM   30  C   UNL     1      30.284  42.751  53.214  1.00  0.00     0.026 C 
ENDBRANCH  27  29
ENDBRANCH  25  27
ENDBRANCH  23  25
ENDBRANCH  21  23
ENDBRANCH   1  21
BRANCH   2  31
HETATM   31  C   UNL     1      24.633  47.081  50.842  1.00  0.00     0.173 C 
BRANCH  31  32
HETATM   32  C   UNL     1      25.312  48.046  49.889  1.00  0.00    -0.040 A 
HETATM   33  C   UNL     1      26.703  48.207  49.809  1.00  0.00     0.009 A 
HETATM   34  C   UNL     1      27.262  49.139  48.932  1.00  0.00     0.001 A 
HETATM   35  C   UNL     1      26.442  49.929  48.129  1.00  0.00     0.000 A 
HETATM   36  C   UNL     1      25.059  49.787  48.202  1.00  0.00     0.001 A 
HETATM   37  C   UNL     1      24.499  48.853  49.074  1.00  0.00     0.009 A 
ENDBRANCH  31  32
ENDBRANCH   2  31
TORSDOF 7
ENDMDL
MODEL 5
REMARK VINA RESULT:      -8.4      5.027      8.640
REMARK  7 active torsions:
REMARK  status: ('A' for Active; 'I' for Inactive)
REMARK    1  A    between atoms: C_2  and  N_3 
REMARK    2  A    between atoms: N_3  and  C_4 
REMARK    3  A    between atoms: C_4  and  N_5 
REMARK    4  A    between atoms: N_5  and  N_6 
REMARK    5  A    between atoms: N_6  and  C_7 
REMARK    6  A    between atoms: N_8  and  C_9 
REMARK    7  A    between atoms: C_9  and  C_10 
ROOT
HETATM    1  C   UNL     1      21.915  46.597  47.841  1.00  0.00     0.204 C 
HETATM    2  N   UNL     1      22.190  47.624  48.719  1.00  0.00    -0.283 N 
HETATM    3  C   UNL     1      21.274  48.639  48.907  1.00  0.00     0.259 C 
HETATM    4  O   UNL     1      21.265  49.334  49.920  1.00  0.00    -0.267 OA
HETATM    5  C   UNL     1      20.269  48.839  47.829  1.00  0.00     0.049 C 
HETATM    6  C   UNL     1      20.174  47.823  46.949  1.00  0.00     0.083 C 
HETATM    7  C   UNL     1      19.179  47.912  45.845  1.00  0.00    -0.000 A 
HETATM    8  C   UNL     1      18.580  49.142  45.537  1.00  0.00    -0.044 A 
HETATM    9  C   UNL     1      17.679  49.246  44.466  1.00  0.00     0.008 A 
HETATM   10  C   UNL     1      17.354  48.124  43.708  1.00  0.00     0.001 A 
HETATM   11  C   UNL     1      17.936  46.896  44.008  1.00  0.00     0.001 A 
HETATM   12  C   UNL     1      18.843  46.794  45.066  1.00  0.00     0.014 A 
HETATM   13  C   UNL     1      18.983  50.371  46.302  1.00  0.00     0.054 C 
HETATM   14  C   UNL     1      19.379  50.097  47.787  1.00  0.00    -0.002 C 
HETATM   15  C   UNL     1      18.124  49.809  48.661  1.00  0.00     0.015 C 
HETATM   16  C   UNL     1      17.171  50.998  48.801  1.00  0.00     0.001 C 
HETATM   17  C   UNL     1      17.888  52.256  49.275  1.00  0.00     0.000 C 
HETATM   18  C   UNL     1      19.095  52.592  48.406  1.00  0.00     0.001 C 
HETATM   19  C   UNL     1      20.056  51.404  48.304  1.00  0.00     0.015 C 
HETATM   20  N   UNL     1      20.918  46.673  47.007  1.00  0.00    -0.217 NA
ENDROOT
BRANCH   1  21
HETATM   21  N   UNL     1      22.690  45.450  47.860  1.00  0.00    -0.171 NA
HETATM   22  H   UNL     1      23.697  45.553  47.963  1.00  0.00     0.156 HD
BRANCH  21  23
HETATM   23  N   UNL     1      22.182  44.414  48.677  1.00  0.00    -0.291 N 
HETATM   24  H   UNL     1      21.422  43.910  48.221  1.00  0.00     0.183 HD
BRANCH  23  25
HETATM   25  C   UNL     1      23.040  43.699  49.475  1.00  0.00     0.182 C 
HETATM   26  S   UNL     1      23.739  42.228  49.097  1.00  0.00    -0.040 SA
BRANCH  25  27
HETATM   27  N   UNL     1      23.398  44.296  50.653  1.00  0.00    -0.367 N 
HETATM   28  H   UNL     1      22.607  44.658  51.174  1.00  0.00     0.161 HD
BRANCH  27  29
HETATM   29  C   UNL     1      24.627  44.089  51.405  1.00  0.00     0.117 C 
HETATM   30  C   UNL     1      25.096  45.379  52.057  1.00  0.00     0.026 C 
ENDBRANCH  27  29
ENDBRANCH  25  27
ENDBRANCH  23  25
ENDBRANCH  21  23
ENDBRANCH   1  21
BRANCH   2  31
HETATM   31  C   UNL     1      23.363  47.623  49.588  1.00  0.00     0.173 C 
BRANCH  31  32
HETATM   32  C   UNL     1      24.535  48.474  49.139  1.00  0.00    -0.040 A 
HETATM   33  C   UNL     1      24.414  49.556  48.256  1.00  0.00     0.009 A 
HETATM   34  C   UNL     1      25.541  50.278  47.857  1.00  0.00     0.001 A 
HETATM   35  C   UNL     1      26.805  49.925  48.326  1.00  0.00     0.000 A 
HETATM   36  C   UNL     1      26.943  48.849  49.198  1.00  0.00     0.001 A 
HETATM   37  C   UNL     1      25.818  48.129  49.602  1.00  0.00     0.009 A 
ENDBRANCH  31  32
ENDBRANCH   2  31
TORSDOF 7
ENDMDL
MODEL 6
REMARK VINA RESULT:      -8.3      1.922      2.821
REMARK  7 active torsions:
REMARK  status: ('A' for Active; 'I' for Inactive)
REMARK    1  A    between atoms: C_2  and  N_3 
REMARK    2  A    between atoms: N_3  and  C_4 
REMARK    3  A    between atoms: C_4  and  N_5 
REMARK    4  A    between atoms: N_5  and  N_6 
REMARK    5  A    between atoms: N_6  and  C_7 
REMARK    6  A    between atoms: N_8  and  C_9 
REMARK    7  A    between atoms: C_9  and  C_10 
ROOT
HETATM    1  C   UNL     1      25.822  40.715  49.528  1.00  0.00     0.204 C 
HETATM    2  N   UNL     1      24.857  41.558  49.019  1.00  0.00    -0.283 N 
HETATM    3  C   UNL     1      24.995  42.926  49.147  1.00  0.00     0.259 C 
HETATM    4  O   UNL     1      24.418  43.714  48.403  1.00  0.00    -0.267 OA
HETATM    5  C   UNL     1      25.903  43.408  50.221  1.00  0.00     0.049 C 
HETATM    6  C   UNL     1      26.718  42.467  50.738  1.00  0.00     0.083 C 
HETATM    7  C   UNL     1      27.685  42.851  51.802  1.00  0.00    -0.000 A 
HETATM    8  C   UNL     1      27.543  44.075  52.472  1.00  0.00    -0.044 A 
HETATM    9  C   UNL     1      28.420  44.424  53.511  1.00  0.00     0.008 A 
HETATM   10  C   UNL     1      29.455  43.566  53.876  1.00  0.00     0.001 A 
HETATM   11  C   UNL     1      29.612  42.353  53.213  1.00  0.00     0.001 A 
HETATM   12  C   UNL     1      28.731  41.998  52.187  1.00  0.00     0.014 A 
HETATM   13  C   UNL     1      26.383  44.970  52.135  1.00  0.00     0.054 C 
HETATM   14  C   UNL     1      25.929  44.890  50.644  1.00  0.00    -0.002 C 
HETATM   15  C   UNL     1      26.933  45.625  49.709  1.00  0.00     0.015 C 
HETATM   16  C   UNL     1      27.012  47.136  49.936  1.00  0.00     0.001 C 
HETATM   17  C   UNL     1      25.639  47.796  49.888  1.00  0.00     0.000 C 
HETATM   18  C   UNL     1      24.646  47.129  50.833  1.00  0.00     0.001 C 
HETATM   19  C   UNL     1      24.552  45.622  50.570  1.00  0.00     0.015 C 
HETATM   20  N   UNL     1      26.747  41.157  50.332  1.00  0.00    -0.217 NA
ENDROOT
BRANCH   1  21
HETATM   21  N   UNL     1      25.834  39.381  49.161  1.00  0.00    -0.171 NA
HETATM   22  H   UNL     1      26.026  39.153  48.188  1.00  0.00     0.156 HD
BRANCH  21  23
HETATM   23  N   UNL     1      26.539  38.535  50.047  1.00  0.00    -0.291 N 
HETATM   24  H   UNL     1      26.114  38.519  50.974  1.00  0.00     0.183 HD
BRANCH  23  25
HETATM   25  C   UNL     1      27.097  37.373  49.575  1.00  0.00     0.182 C 
HETATM   26  S   UNL     1      26.653  36.565  48.181  1.00  0.00    -0.040 SA
BRANCH  25  27
HETATM   27  N   UNL     1      28.159  36.887  50.288  1.00  0.00    -0.367 N 
HETATM   28  H   UNL     1      28.120  35.883  50.427  1.00  0.00     0.161 HD
BRANCH  27  29
HETATM   29  C   UNL     1      29.460  37.515  50.465  1.00  0.00     0.117 C 
HETATM   30  C   UNL     1      29.939  38.161  49.177  1.00  0.00     0.026 C 
ENDBRANCH  27  29
ENDBRANCH  25  27
ENDBRANCH  23  25
ENDBRANCH  21  23
ENDBRANCH   1  21
BRANCH   2  31
HETATM   31  C   UNL     1      23.743  41.078  48.208  1.00  0.00     0.173 C 
BRANCH  31  32
HETATM   32  C   UNL     1      23.896  41.215  46.705  1.00  0.00    -0.040 A 
HETATM   33  C   UNL     1      25.073  40.898  46.013  1.00  0.00     0.009 A 
HETATM   34  C   UNL     1      25.157  41.080  44.631  1.00  0.00     0.001 A 
HETATM   35  C   UNL     1      24.070  41.588  43.922  1.00  0.00     0.000 A 
HETATM   36  C   UNL     1      22.896  41.914  44.595  1.00  0.00     0.001 A 
HETATM   37  C   UNL     1      22.809  41.728  45.975  1.00  0.00     0.009 A 
ENDBRANCH  31  32
ENDBRANCH   2  31
TORSDOF 7
ENDMDL
MODEL 7
REMARK VINA RESULT:      -8.1      5.232      9.113
REMARK  7 active torsions:
REMARK  status: ('A' for Active; 'I' for Inactive)
REMARK    1  A    between atoms: C_2  and  N_3 
REMARK    2  A    between atoms: N_3  and  C_4 
REMARK    3  A    between atoms: C_4  and  N_5 
REMARK    4  A    between atoms: N_5  and  N_6 
REMARK    5  A    between atoms: N_6  and  C_7 
REMARK    6  A    between atoms: N_8  and  C_9 
REMARK    7  A    between atoms: C_9  and  C_10 
ROOT
HETATM    1  C   UNL     1      21.965  46.630  47.850  1.00  0.00     0.204 C 
HETATM    2  N   UNL     1      22.220  47.655  48.736  1.00  0.00    -0.283 N 
HETATM    3  C   UNL     1      21.290  48.659  48.921  1.00  0.00     0.259 C 
HETATM    4  O   UNL     1      21.264  49.348  49.937  1.00  0.00    -0.267 OA
HETATM    5  C   UNL     1      20.294  48.853  47.834  1.00  0.00     0.049 C 
HETATM    6  C   UNL     1      20.218  47.841  46.947  1.00  0.00     0.083 C 
HETATM    7  C   UNL     1      19.234  47.926  45.834  1.00  0.00    -0.000 A 
HETATM    8  C   UNL     1      18.624  49.151  45.527  1.00  0.00    -0.044 A 
HETATM    9  C   UNL     1      17.732  49.251  44.448  1.00  0.00     0.008 A 
HETATM   10  C   UNL     1      17.427  48.129  43.680  1.00  0.00     0.001 A 
HETATM   11  C   UNL     1      18.019  46.906  43.980  1.00  0.00     0.001 A 
HETATM   12  C   UNL     1      18.917  46.808  45.046  1.00  0.00     0.014 A 
HETATM   13  C   UNL     1      19.006  50.380  46.303  1.00  0.00     0.054 C 
HETATM   14  C   UNL     1      19.390  50.101  47.790  1.00  0.00    -0.002 C 
HETATM   15  C   UNL     1      18.130  49.795  48.650  1.00  0.00     0.015 C 
HETATM   16  C   UNL     1      17.162  50.972  48.787  1.00  0.00     0.001 C 
HETATM   17  C   UNL     1      17.861  52.235  49.275  1.00  0.00     0.000 C 
HETATM   18  C   UNL     1      19.072  52.590  48.420  1.00  0.00     0.001 C 
HETATM   19  C   UNL     1      20.048  51.413  48.321  1.00  0.00     0.015 C 
HETATM   20  N   UNL     1      20.975  46.700  47.006  1.00  0.00    -0.217 NA
ENDROOT
BRANCH   1  21
HETATM   21  N   UNL     1      22.752  45.491  47.870  1.00  0.00    -0.171 NA
HETATM   22  H   UNL     1      23.388  45.362  48.653  1.00  0.00     0.156 HD
BRANCH  21  23
HETATM   23  N   UNL     1      22.064  44.299  47.551  1.00  0.00    -0.291 N 
HETATM   24  H   UNL     1      21.054  44.441  47.520  1.00  0.00     0.183 HD
BRANCH  23  25
HETATM   25  C   UNL     1      22.616  43.417  46.655  1.00  0.00     0.182 C 
HETATM   26  S   UNL     1      22.149  41.829  46.423  1.00  0.00    -0.040 SA
BRANCH  25  27
HETATM   27  N   UNL     1      23.589  43.925  45.838  1.00  0.00    -0.367 N 
HETATM   28  H   UNL     1      24.524  43.817  46.215  1.00  0.00     0.161 HD
BRANCH  27  29
HETATM   29  C   UNL     1      23.494  44.174  44.407  1.00  0.00     0.117 C 
HETATM   30  C   UNL     1      22.310  45.069  44.082  1.00  0.00     0.026 C 
ENDBRANCH  27  29
ENDBRANCH  25  27
ENDBRANCH  23  25
ENDBRANCH  21  23
ENDBRANCH   1  21
BRANCH   2  31
HETATM   31  C   UNL     1      23.384  47.662  49.616  1.00  0.00     0.173 C 
BRANCH  31  32
HETATM   32  C   UNL     1      24.568  48.493  49.161  1.00  0.00    -0.040 A 
HETATM   33  C   UNL     1      24.461  49.575  48.276  1.00  0.00     0.009 A 
HETATM   34  C   UNL     1      25.598  50.279  47.872  1.00  0.00     0.001 A 
HETATM   35  C   UNL     1      26.857  49.908  48.338  1.00  0.00     0.000 A 
HETATM   36  C   UNL     1      26.981  48.832  49.212  1.00  0.00     0.001 A 
HETATM   37  C   UNL     1      25.846  48.131  49.622  1.00  0.00     0.009 A 
ENDBRANCH  31  32
ENDBRANCH   2  31
TORSDOF 7
ENDMDL
MODEL 8
REMARK VINA RESULT:      -8.0      2.975      5.257
REMARK  7 active torsions:
REMARK  status: ('A' for Active; 'I' for Inactive)
REMARK    1  A    between atoms: C_2  and  N_3 
REMARK    2  A    between atoms: N_3  and  C_4 
REMARK    3  A    between atoms: C_4  and  N_5 
REMARK    4  A    between atoms: N_5  and  N_6 
REMARK    5  A    between atoms: N_6  and  C_7 
REMARK    6  A    between atoms: N_8  and  C_9 
REMARK    7  A    between atoms: C_9  and  C_10 
ROOT
HETATM    1  C   UNL     1      25.177  45.450  50.287  1.00  0.00     0.204 C 
HETATM    2  N   UNL     1      24.314  44.384  50.153  1.00  0.00    -0.283 N 
HETATM    3  C   UNL     1      23.245  44.463  49.283  1.00  0.00     0.259 C 
HETATM    4  O   UNL     1      22.698  43.463  48.825  1.00  0.00    -0.267 OA
HETATM    5  C   UNL     1      22.797  45.828  48.899  1.00  0.00     0.049 C 
HETATM    6  C   UNL     1      23.667  46.814  49.194  1.00  0.00     0.083 C 
HETATM    7  C   UNL     1      23.326  48.215  48.828  1.00  0.00    -0.000 A 
HETATM    8  C   UNL     1      22.010  48.548  48.476  1.00  0.00    -0.044 A 
HETATM    9  C   UNL     1      21.668  49.877  48.177  1.00  0.00     0.008 A 
HETATM   10  C   UNL     1      22.636  50.877  48.209  1.00  0.00     0.001 A 
HETATM   11  C   UNL     1      23.947  50.558  48.550  1.00  0.00     0.001 A 
HETATM   12  C   UNL     1      24.286  49.238  48.860  1.00  0.00     0.014 A 
HETATM   13  C   UNL     1      20.945  47.488  48.513  1.00  0.00     0.054 C 
HETATM   14  C   UNL     1      21.460  46.055  48.166  1.00  0.00    -0.002 C 
HETATM   15  C   UNL     1      21.733  45.908  46.642  1.00  0.00     0.015 C 
HETATM   16  C   UNL     1      20.482  46.016  45.766  1.00  0.00     0.001 C 
HETATM   17  C   UNL     1      19.382  45.064  46.217  1.00  0.00     0.000 C 
HETATM   18  C   UNL     1      19.056  45.220  47.699  1.00  0.00     0.001 C 
HETATM   19  C   UNL     1      20.313  45.075  48.564  1.00  0.00     0.015 C 
HETATM   20  N   UNL     1      24.885  46.620  49.794  1.00  0.00    -0.217 NA
ENDROOT
BRANCH   1  21
HETATM   21  N   UNL     1      26.390  45.277  50.932  1.00  0.00    -0.171 NA
HETATM   22  H   UNL     1      27.242  45.470  50.409  1.00  0.00     0.156 HD
BRANCH  21  23
HETATM   23  N   UNL     1      26.442  45.816  52.237  1.00  0.00    -0.291 N 
HETATM   24  H   UNL     1      25.765  46.568  52.364  1.00  0.00     0.183 HD
BRANCH  23  25
HETATM   25  C   UNL     1      26.688  44.986  53.303  1.00  0.00     0.182 C 
HETATM   26  S   UNL     1      25.535  44.287  54.291  1.00  0.00    -0.040 SA
BRANCH  25  27
HETATM   27  N   UNL     1      27.999  44.658  53.516  1.00  0.00    -0.367 N 
HETATM   28  H   UNL     1      28.570  45.451  53.789  1.00  0.00     0.161 HD
BRANCH  27  29
HETATM   29  C   UNL     1      28.538  43.340  53.816  1.00  0.00     0.117 C 
HETATM   30  C   UNL     1      29.753  43.035  52.957  1.00  0.00     0.026 C 
ENDBRANCH  27  29
ENDBRANCH  25  27
ENDBRANCH  23  25
ENDBRANCH  21  23
ENDBRANCH   1  21
BRANCH   2  31
HETATM   31  C   UNL     1      24.556  43.092  50.788  1.00  0.00     0.173 C 
BRANCH  31  32
HETATM   32  C   UNL     1      25.728  42.289  50.258  1.00  0.00    -0.040 A 
HETATM   33  C   UNL     1      26.004  42.130  48.893  1.00  0.00     0.009 A 
HETATM   34  C   UNL     1      27.082  41.349  48.471  1.00  0.00     0.001 A 
HETATM   35  C   UNL     1      27.894  40.709  49.406  1.00  0.00     0.000 A 
HETATM   36  C   UNL     1      27.630  40.851  50.765  1.00  0.00     0.001 A 
HETATM   37  C   UNL     1      26.556  41.636  51.188  1.00  0.00     0.009 A 
ENDBRANCH  31  32
ENDBRANCH   2  31
TORSDOF 7
ENDMDL
MODEL 9
REMARK VINA RESULT:      -7.9     17.905     20.112
REMARK  7 active torsions:
REMARK  status: ('A' for Active; 'I' for Inactive)
REMARK    1  A    between atoms: C_2  and  N_3 
REMARK    2  A    between atoms: N_3  and  C_4 
REMARK    3  A    between atoms: C_4  and  N_5 
REMARK    4  A    between atoms: N_5  and  N_6 
REMARK    5  A    between atoms: N_6  and  C_7 
REMARK    6  A    between atoms: N_8  and  C_9 
REMARK    7  A    between atoms: C_9  and  C_10 
ROOT
HETATM    1  C   UNL     1      37.453  45.065  64.171  1.00  0.00     0.204 C 
HETATM    2  N   UNL     1      38.639  44.480  63.780  1.00  0.00    -0.283 N 
HETATM    3  C   UNL     1      39.819  44.822  64.409  1.00  0.00     0.259 C 
HETATM    4  O   UNL     1      40.803  44.086  64.400  1.00  0.00    -0.267 OA
HETATM    5  C   UNL     1      39.840  46.123  65.128  1.00  0.00     0.049 C 
HETATM    6  C   UNL     1      38.627  46.669  65.345  1.00  0.00     0.083 C 
HETATM    7  C   UNL     1      38.535  47.960  66.080  1.00  0.00    -0.000 A 
HETATM    8  C   UNL     1      39.681  48.746  66.267  1.00  0.00    -0.044 A 
HETATM    9  C   UNL     1      39.595  49.988  66.915  1.00  0.00     0.008 A 
HETATM   10  C   UNL     1      38.372  50.446  67.398  1.00  0.00     0.001 A 
HETATM   11  C   UNL     1      37.228  49.672  67.226  1.00  0.00     0.001 A 
HETATM   12  C   UNL     1      37.310  48.441  66.570  1.00  0.00     0.014 A 
HETATM   13  C   UNL     1      40.990  48.292  65.682  1.00  0.00     0.054 C 
HETATM   14  C   UNL     1      41.160  46.741  65.628  1.00  0.00    -0.002 C 
HETATM   15  C   UNL     1      41.444  46.156  67.042  1.00  0.00     0.015 C 
HETATM   16  C   UNL     1      42.775  46.601  67.651  1.00  0.00     0.001 C 
HETATM   17  C   UNL     1      43.948  46.349  66.712  1.00  0.00     0.000 C 
HETATM   18  C   UNL     1      43.721  46.955  65.331  1.00  0.00     0.001 C 
HETATM   19  C   UNL     1      42.401  46.473  64.721  1.00  0.00     0.015 C 
HETATM   20  N   UNL     1      37.440  46.103  64.957  1.00  0.00    -0.217 NA
ENDROOT
BRANCH   1  21
HETATM   21  N   UNL     1      36.249  44.528  63.747  1.00  0.00    -0.171 NA
HETATM   22  H   UNL     1      36.269  43.643  63.245  1.00  0.00     0.156 HD
BRANCH  21  23
HETATM   23  N   UNL     1      35.221  44.557  64.717  1.00  0.00    -0.291 N 
HETATM   24  H   UNL     1      34.328  44.840  64.314  1.00  0.00     0.183 HD
BRANCH  23  25
HETATM   25  C   UNL     1      35.206  43.617  65.717  1.00  0.00     0.182 C 
HETATM   26  S   UNL     1      34.407  42.149  65.675  1.00  0.00    -0.040 SA
BRANCH  25  27
HETATM   27  N   UNL     1      35.980  43.896  66.811  1.00  0.00    -0.367 N 
HETATM   28  H   UNL     1      36.946  43.608  66.700  1.00  0.00     0.161 HD
BRANCH  27  29
HETATM   29  C   UNL     1      35.713  44.881  67.848  1.00  0.00     0.117 C 
HETATM   30  C   UNL     1      34.704  44.358  68.856  1.00  0.00     0.026 C 
ENDBRANCH  27  29
ENDBRANCH  25  27
ENDBRANCH  23  25
ENDBRANCH  21  23
ENDBRANCH   1  21
BRANCH   2  31
HETATM   31  C   UNL     1      38.696  43.388  62.813  1.00  0.00     0.173 C 
BRANCH  31  32
HETATM   32  C   UNL     1      38.802  41.987  63.384  1.00  0.00    -0.040 A 
HETATM   33  C   UNL     1      39.592  40.977  62.817  1.00  0.00     0.009 A 
HETATM   34  C   UNL     1      39.618  39.697  63.376  1.00  0.00     0.001 A 
HETATM   35  C   UNL     1      38.851  39.405  64.501  1.00  0.00     0.000 A 
HETATM   36  C   UNL     1      38.056  40.395  65.072  1.00  0.00     0.001 A 
HETATM   37  C   UNL     1      38.032  41.676  64.519  1.00  0.00     0.009 A 
ENDBRANCH  31  32
ENDBRANCH   2  31
TORSDOF 7
ENDMDL
MODEL 10
REMARK VINA RESULT:      -7.8      4.550      8.566
REMARK  7 active torsions:
REMARK  status: ('A' for Active; 'I' for Inactive)
REMARK    1  A    between atoms: C_2  and  N_3 
REMARK    2  A    between atoms: N_3  and  C_4 
REMARK    3  A    between atoms: C_4  and  N_5 
REMARK    4  A    between atoms: N_5  and  N_6 
REMARK    5  A    between atoms: N_6  and  C_7 
REMARK    6  A    between atoms: N_8  and  C_9 
REMARK    7  A    between atoms: C_9  and  C_10 
ROOT
HETATM    1  C   UNL     1      22.801  47.437  48.989  1.00  0.00     0.204 C 
HETATM    2  N   UNL     1      22.063  48.168  48.082  1.00  0.00    -0.283 N 
HETATM    3  C   UNL     1      21.111  47.544  47.301  1.00  0.00     0.259 C 
HETATM    4  O   UNL     1      20.178  48.158  46.791  1.00  0.00    -0.267 OA
HETATM    5  C   UNL     1      21.253  46.074  47.123  1.00  0.00     0.049 C 
HETATM    6  C   UNL     1      22.101  45.479  47.985  1.00  0.00     0.083 C 
HETATM    7  C   UNL     1      22.295  44.005  47.908  1.00  0.00    -0.000 A 
HETATM    8  C   UNL     1      21.859  43.297  46.780  1.00  0.00    -0.044 A 
HETATM    9  C   UNL     1      22.082  41.915  46.676  1.00  0.00     0.008 A 
HETATM   10  C   UNL     1      22.723  41.227  47.704  1.00  0.00     0.001 A 
HETATM   11  C   UNL     1      23.153  41.917  48.833  1.00  0.00     0.001 A 
HETATM   12  C   UNL     1      22.943  43.295  48.931  1.00  0.00     0.014 A 
HETATM   13  C   UNL     1      21.235  44.045  45.635  1.00  0.00     0.054 C 
HETATM   14  C   UNL     1      20.431  45.313  46.064  1.00  0.00    -0.002 C 
HETATM   15  C   UNL     1      19.073  44.925  46.718  1.00  0.00     0.015 C 
HETATM   16  C   UNL     1      18.093  44.235  45.767  1.00  0.00     0.001 C 
HETATM   17  C   UNL     1      17.874  45.035  44.489  1.00  0.00     0.000 C 
HETATM   18  C   UNL     1      19.186  45.387  43.798  1.00  0.00     0.001 C 
HETATM   19  C   UNL     1      20.143  46.108  44.753  1.00  0.00     0.015 C 
HETATM   20  N   UNL     1      22.795  46.135  48.969  1.00  0.00    -0.217 NA
ENDROOT
BRANCH   1  21
HETATM   21  N   UNL     1      23.542  48.090  49.959  1.00  0.00    -0.171 NA
HETATM   22  H   UNL     1      23.067  48.772  50.547  1.00  0.00     0.156 HD
BRANCH  21  23
HETATM   23  N   UNL     1      24.392  47.249  50.712  1.00  0.00    -0.291 N 
HETATM   24  H   UNL     1      23.887  46.454  51.103  1.00  0.00     0.183 HD
BRANCH  23  25
HETATM   25  C   UNL     1      25.686  47.049  50.300  1.00  0.00     0.182 C 
HETATM   26  S   UNL     1      26.352  45.592  49.824  1.00  0.00    -0.040 SA
BRANCH  25  27
HETATM   27  N   UNL     1      26.465  48.171  50.211  1.00  0.00    -0.367 N 
HETATM   28  H   UNL     1      26.799  48.497  51.112  1.00  0.00     0.161 HD
BRANCH  27  29
HETATM   29  C   UNL     1      27.186  48.650  49.042  1.00  0.00     0.117 C 
HETATM   30  C   UNL     1      26.428  49.770  48.350  1.00  0.00     0.026 C 
ENDBRANCH  27  29
ENDBRANCH  25  27
ENDBRANCH  23  25
ENDBRANCH  21  23
ENDBRANCH   1  21
BRANCH   2  31
HETATM   31  C   UNL     1      22.134  49.624  48.003  1.00  0.00     0.173 C 
BRANCH  31  32
HETATM   32  C   UNL     1      20.967  50.388  48.599  1.00  0.00    -0.040 A 
HETATM   33  C   UNL     1      20.408  51.531  48.010  1.00  0.00     0.009 A 
HETATM   34  C   UNL     1      19.355  52.208  48.630  1.00  0.00     0.001 A 
HETATM   35  C   UNL     1      18.851  51.758  49.849  1.00  0.00     0.000 A 
HETATM   36  C   UNL     1      19.400  50.629  50.450  1.00  0.00     0.001 A 
HETATM   37  C   UNL     1      20.449  49.948  49.830  1.00  0.00     0.009 A 
ENDBRANCH  31  32
ENDBRANCH   2  31
TORSDOF 7
ENDMDL
