MODEL 1
REMARK VINA RESULT:      -9.6      0.000      0.000
REMARK  6 active torsions:
REMARK  status: ('A' for Active; 'I' for Inactive)
REMARK    1  A    between atoms: O_2  and  C_3 
REMARK    2  A    between atoms: C_6  and  C_7 
REMARK    3  A    between atoms: C_11  and  C_12 
REMARK       I    between atoms: C_12  and  N_13 
REMARK    4  A    between atoms: N_13  and  N_14 
REMARK       I    between atoms: N_14  and  C_15 
REMARK    5  A    between atoms: C_15  and  C_16 
REMARK    6  A    between atoms: C_16  and  C_17 
ROOT
HETATM    1  C   UNL     1      24.517  45.066  51.086  1.00  0.00     0.288 C 
HETATM    2  N   UNL     1      24.444  46.360  50.610  1.00  0.00    -0.262 N 
HETATM    3  O   UNL     1      23.574  44.283  50.990  1.00  0.00    -0.264 OA
HETATM    4  H   UNL     1      25.268  46.954  50.542  1.00  0.00     0.190 HD
ENDROOT
BRANCH   1   5
HETATM    5  C   UNL     1      25.776  44.704  51.677  1.00  0.00     0.121 A 
HETATM    6  N   UNL     1      26.744  44.038  50.981  1.00  0.00    -0.272 N 
HETATM    7  N   UNL     1      27.857  43.786  51.688  1.00  0.00    -0.174 NA
HETATM    8  H   UNL     1      26.697  43.727  50.015  1.00  0.00     0.189 HD
HETATM    9  C   UNL     1      27.627  44.337  52.890  1.00  0.00     0.089 A 
HETATM   10  C   UNL     1      26.323  44.904  52.929  1.00  0.00     0.071 A 
BRANCH   9  11
HETATM   11  C   UNL     1      28.628  44.316  53.961  1.00  0.00    -0.005 A 
HETATM   12  C   UNL     1      28.675  45.333  54.923  1.00  0.00     0.016 A 
HETATM   13  C   UNL     1      29.628  45.299  55.946  1.00  0.00     0.037 A 
HETATM   14  C   UNL     1      30.547  44.253  56.032  1.00  0.00     0.068 A 
HETATM   15  C   UNL     1      30.515  43.242  55.073  1.00  0.00     0.037 A 
HETATM   16  C   UNL     1      29.564  43.275  54.044  1.00  0.00     0.016 A 
BRANCH  14  17
HETATM   17  O   UNL     1      31.417  44.343  57.083  1.00  0.00    -0.356 OA
HETATM   18  C   UNL     1      30.946  45.008  58.248  1.00  0.00     0.210 C 
ENDBRANCH  14  17
ENDBRANCH   9  11
ENDBRANCH   1   5
BRANCH   2  19
HETATM   19  N   UNL     1      23.385  46.708  49.757  1.00  0.00    -0.267 N 
HETATM   20  C   UNL     1      23.334  48.024  49.340  1.00  0.00     0.240 C 
HETATM   21  O   UNL     1      24.053  48.895  49.834  1.00  0.00    -0.272 OA
HETATM   22  H   UNL     1      22.947  45.946  49.239  1.00  0.00     0.190 HD
BRANCH  20  23
HETATM   23  C   UNL     1      22.323  48.311  48.250  1.00  0.00     0.143 C 
BRANCH  23  24
HETATM   24  C   UNL     1      21.246  49.300  48.627  1.00  0.00    -0.049 A 
HETATM   25  C   UNL     1      20.185  48.956  49.480  1.00  0.00     0.009 A 
HETATM   26  C   UNL     1      19.231  49.908  49.849  1.00  0.00     0.024 A 
HETATM   27  C   UNL     1      19.340  51.216  49.386  1.00  0.00     0.034 A 
HETATM   28 CL   UNL     1      18.171  52.389  49.849  1.00  0.00    -0.084 Cl
HETATM   29  C   UNL     1      20.397  51.581  48.557  1.00  0.00     0.024 A 
HETATM   30  C   UNL     1      21.348  50.628  48.183  1.00  0.00     0.009 A 
ENDBRANCH  23  24
ENDBRANCH  20  23
ENDBRANCH   2  19
TORSDOF 6
ENDMDL
MODEL 2
REMARK VINA RESULT:      -9.0      3.989     10.939
REMARK  6 active torsions:
REMARK  status: ('A' for Active; 'I' for Inactive)
REMARK    1  A    between atoms: O_2  and  C_3 
REMARK    2  A    between atoms: C_6  and  C_7 
REMARK    3  A    between atoms: C_11  and  C_12 
REMARK       I    between atoms: C_12  and  N_13 
REMARK    4  A    between atoms: N_13  and  N_14 
REMARK       I    between atoms: N_14  and  C_15 
REMARK    5  A    between atoms: C_15  and  C_16 
REMARK    6  A    between atoms: C_16  and  C_17 
ROOT
HETATM    1  C   UNL     1      26.049  48.048  49.370  1.00  0.00     0.288 C 
HETATM    2  N   UNL     1      25.747  47.091  50.317  1.00  0.00    -0.262 N 
HETATM    3  O   UNL     1      27.179  48.162  48.897  1.00  0.00    -0.264 OA
HETATM    4  H   UNL     1      24.787  46.889  50.589  1.00  0.00     0.190 HD
ENDROOT
BRANCH   1   5
HETATM    5  C   UNL     1      24.947  48.877  48.967  1.00  0.00     0.121 A 
HETATM    6  N   UNL     1      25.059  49.808  47.973  1.00  0.00    -0.272 N 
HETATM    7  N   UNL     1      23.929  50.487  47.724  1.00  0.00    -0.174 NA
HETATM    8  H   UNL     1      25.889  50.022  47.429  1.00  0.00     0.189 HD
HETATM    9  C   UNL     1      23.025  49.963  48.566  1.00  0.00     0.089 A 
HETATM   10  C   UNL     1      23.632  48.964  49.377  1.00  0.00     0.071 A 
BRANCH   9  11
HETATM   11  C   UNL     1      21.629  50.409  48.587  1.00  0.00    -0.005 A 
HETATM   12  C   UNL     1      21.048  50.905  49.762  1.00  0.00     0.016 A 
HETATM   13  C   UNL     1      19.718  51.337  49.768  1.00  0.00     0.037 A 
HETATM   14  C   UNL     1      18.945  51.287  48.607  1.00  0.00     0.068 A 
HETATM   15  C   UNL     1      19.511  50.786  47.436  1.00  0.00     0.037 A 
HETATM   16  C   UNL     1      20.842  50.349  47.428  1.00  0.00     0.016 A 
BRANCH  14  17
HETATM   17  O   UNL     1      17.665  51.746  48.755  1.00  0.00    -0.356 OA
HETATM   18  C   UNL     1      17.443  52.704  49.782  1.00  0.00     0.210 C 
ENDBRANCH  14  17
ENDBRANCH   9  11
ENDBRANCH   1   5
BRANCH   2  19
HETATM   19  N   UNL     1      26.663  46.053  50.547  1.00  0.00    -0.267 N 
HETATM   20  C   UNL     1      26.207  44.976  51.283  1.00  0.00     0.240 C 
HETATM   21  O   UNL     1      25.126  45.000  51.875  1.00  0.00    -0.272 OA
HETATM   22  H   UNL     1      27.449  45.987  49.900  1.00  0.00     0.190 HD
BRANCH  20  23
HETATM   23  C   UNL     1      27.138  43.783  51.316  1.00  0.00     0.143 C 
BRANCH  23  24
HETATM   24  C   UNL     1      28.110  43.769  52.473  1.00  0.00    -0.049 A 
HETATM   25  C   UNL     1      27.872  44.490  53.654  1.00  0.00     0.009 A 
HETATM   26  C   UNL     1      28.767  44.416  54.725  1.00  0.00     0.024 A 
HETATM   27  C   UNL     1      29.895  43.607  54.633  1.00  0.00     0.034 A 
HETATM   28 CL   UNL     1      30.990  43.510  55.956  1.00  0.00    -0.084 Cl
HETATM   29  C   UNL     1      30.136  42.868  53.478  1.00  0.00     0.024 A 
HETATM   30  C   UNL     1      29.245  42.945  52.405  1.00  0.00     0.009 A 
ENDBRANCH  23  24
ENDBRANCH  20  23
ENDBRANCH   2  19
TORSDOF 6
ENDMDL
MODEL 3
REMARK VINA RESULT:      -8.9      1.931      2.891
REMARK  6 active torsions:
REMARK  status: ('A' for Active; 'I' for Inactive)
REMARK    1  A    between atoms: O_2  and  C_3 
REMARK    2  A    between atoms: C_6  and  C_7 
REMARK    3  A    between atoms: C_11  and  C_12 
REMARK       I    between atoms: C_12  and  N_13 
REMARK    4  A    between atoms: N_13  and  N_14 
REMARK       I    between atoms: N_14  and  C_15 
REMARK    5  A    between atoms: C_15  and  C_16 
REMARK    6  A    between atoms: C_16  and  C_17 
ROOT
HETATM    1  C   UNL     1      24.117  47.855  49.655  1.00  0.00     0.288 C 
HETATM    2  N   UNL     1      22.744  47.967  49.734  1.00  0.00    -0.262 N 
HETATM    3  O   UNL     1      24.764  48.387  48.754  1.00  0.00    -0.264 OA
HETATM    4  H   UNL     1      22.227  47.667  50.558  1.00  0.00     0.190 HD
ENDROOT
BRANCH   1   5
HETATM    5  C   UNL     1      24.729  47.094  50.710  1.00  0.00     0.121 A 
HETATM    6  N   UNL     1      24.314  45.833  51.035  1.00  0.00    -0.272 N 
HETATM    7  N   UNL     1      25.001  45.269  52.039  1.00  0.00    -0.174 NA
HETATM    8  H   UNL     1      23.560  45.308  50.601  1.00  0.00     0.189 HD
HETATM    9  C   UNL     1      25.928  46.181  52.372  1.00  0.00     0.089 A 
HETATM   10  C   UNL     1      25.775  47.349  51.573  1.00  0.00     0.071 A 
BRANCH   9  11
HETATM   11  C   UNL     1      26.923  45.935  53.419  1.00  0.00    -0.005 A 
HETATM   12  C   UNL     1      27.600  44.711  53.496  1.00  0.00     0.016 A 
HETATM   13  C   UNL     1      28.555  44.490  54.494  1.00  0.00     0.037 A 
HETATM   14  C   UNL     1      28.856  45.482  55.428  1.00  0.00     0.068 A 
HETATM   15  C   UNL     1      28.180  46.699  55.366  1.00  0.00     0.037 A 
HETATM   16  C   UNL     1      27.219  46.922  54.369  1.00  0.00     0.016 A 
BRANCH  14  17
HETATM   17  O   UNL     1      29.811  45.134  56.342  1.00  0.00    -0.356 OA
HETATM   18  C   UNL     1      29.886  45.921  57.523  1.00  0.00     0.210 C 
ENDBRANCH  14  17
ENDBRANCH   9  11
ENDBRANCH   1   5
BRANCH   2  19
HETATM   19  N   UNL     1      22.097  48.926  48.939  1.00  0.00    -0.267 N 
HETATM   20  C   UNL     1      22.061  50.216  49.433  1.00  0.00     0.240 C 
HETATM   21  O   UNL     1      22.400  50.484  50.587  1.00  0.00    -0.272 OA
HETATM   22  H   UNL     1      22.008  48.712  47.946  1.00  0.00     0.190 HD
BRANCH  20  23
HETATM   23  C   UNL     1      21.563  51.261  48.457  1.00  0.00     0.143 C 
BRANCH  23  24
HETATM   24  C   UNL     1      20.065  51.460  48.450  1.00  0.00    -0.049 A 
HETATM   25  C   UNL     1      19.282  51.167  47.322  1.00  0.00     0.009 A 
HETATM   26  C   UNL     1      17.892  51.316  47.363  1.00  0.00     0.024 A 
HETATM   27  C   UNL     1      17.274  51.738  48.537  1.00  0.00     0.034 A 
HETATM   28 CL   UNL     1      15.563  51.911  48.589  1.00  0.00    -0.084 Cl
HETATM   29  C   UNL     1      18.033  52.012  49.671  1.00  0.00     0.024 A 
HETATM   30  C   UNL     1      19.422  51.869  49.629  1.00  0.00     0.009 A 
ENDBRANCH  23  24
ENDBRANCH  20  23
ENDBRANCH   2  19
TORSDOF 6
ENDMDL
MODEL 4
REMARK VINA RESULT:      -8.7      3.722     11.120
REMARK  6 active torsions:
REMARK  status: ('A' for Active; 'I' for Inactive)
REMARK    1  A    between atoms: O_2  and  C_3 
REMARK    2  A    between atoms: C_6  and  C_7 
REMARK    3  A    between atoms: C_11  and  C_12 
REMARK       I    between atoms: C_12  and  N_13 
REMARK    4  A    between atoms: N_13  and  N_14 
REMARK       I    between atoms: N_14  and  C_15 
REMARK    5  A    between atoms: C_15  and  C_16 
REMARK    6  A    between atoms: C_16  and  C_17 
ROOT
HETATM    1  C   UNL     1      25.239  47.511  50.173  1.00  0.00     0.288 C 
HETATM    2  N   UNL     1      25.199  46.683  51.277  1.00  0.00    -0.262 N 
HETATM    3  O   UNL     1      26.300  47.905  49.693  1.00  0.00    -0.264 OA
HETATM    4  H   UNL     1      24.339  46.229  51.577  1.00  0.00     0.190 HD
ENDROOT
BRANCH   1   5
HETATM    5  C   UNL     1      23.957  47.855  49.622  1.00  0.00     0.121 A 
HETATM    6  N   UNL     1      23.035  46.908  49.273  1.00  0.00    -0.272 N 
HETATM    7  N   UNL     1      21.892  47.408  48.780  1.00  0.00    -0.174 NA
HETATM    8  H   UNL     1      23.136  45.901  49.349  1.00  0.00     0.189 HD
HETATM    9  C   UNL     1      22.051  48.740  48.835  1.00  0.00     0.089 A 
HETATM   10  C   UNL     1      23.344  49.058  49.338  1.00  0.00     0.071 A 
BRANCH   9  11
HETATM   11  C   UNL     1      20.997  49.669  48.419  1.00  0.00    -0.005 A 
HETATM   12  C   UNL     1      20.048  49.298  47.458  1.00  0.00     0.016 A 
HETATM   13  C   UNL     1      19.041  50.190  47.074  1.00  0.00     0.037 A 
HETATM   14  C   UNL     1      18.958  51.462  47.642  1.00  0.00     0.068 A 
HETATM   15  C   UNL     1      19.904  51.843  48.592  1.00  0.00     0.037 A 
HETATM   16  C   UNL     1      20.917  50.954  48.975  1.00  0.00     0.016 A 
BRANCH  14  17
HETATM   17  O   UNL     1      17.922  52.225  47.180  1.00  0.00    -0.356 OA
HETATM   18  C   UNL     1      16.716  51.543  46.860  1.00  0.00     0.210 C 
ENDBRANCH  14  17
ENDBRANCH   9  11
ENDBRANCH   1   5
BRANCH   2  19
HETATM   19  N   UNL     1      26.382  46.055  51.695  1.00  0.00    -0.267 N 
HETATM   20  C   UNL     1      26.247  45.015  52.593  1.00  0.00     0.240 C 
HETATM   21  O   UNL     1      25.176  44.769  53.153  1.00  0.00    -0.272 OA
HETATM   22  H   UNL     1      27.193  46.156  51.084  1.00  0.00     0.190 HD
BRANCH  20  23
HETATM   23  C   UNL     1      27.509  44.217  52.845  1.00  0.00     0.143 C 
BRANCH  23  24
HETATM   24  C   UNL     1      28.274  44.614  54.086  1.00  0.00    -0.049 A 
HETATM   25  C   UNL     1      29.387  43.887  54.537  1.00  0.00     0.009 A 
HETATM   26  C   UNL     1      30.103  44.308  55.661  1.00  0.00     0.024 A 
HETATM   27  C   UNL     1      29.725  45.469  56.330  1.00  0.00     0.034 A 
HETATM   28 CL   UNL     1      30.614  45.991  57.708  1.00  0.00    -0.084 Cl
HETATM   29  C   UNL     1      28.638  46.214  55.884  1.00  0.00     0.024 A 
HETATM   30  C   UNL     1      27.918  45.790  54.764  1.00  0.00     0.009 A 
ENDBRANCH  23  24
ENDBRANCH  20  23
ENDBRANCH   2  19
TORSDOF 6
ENDMDL
MODEL 5
REMARK VINA RESULT:      -8.4      1.623      2.176
REMARK  6 active torsions:
REMARK  status: ('A' for Active; 'I' for Inactive)
REMARK    1  A    between atoms: O_2  and  C_3 
REMARK    2  A    between atoms: C_6  and  C_7 
REMARK    3  A    between atoms: C_11  and  C_12 
REMARK       I    between atoms: C_12  and  N_13 
REMARK    4  A    between atoms: N_13  and  N_14 
REMARK       I    between atoms: N_14  and  C_15 
REMARK    5  A    between atoms: C_15  and  C_16 
REMARK    6  A    between atoms: C_16  and  C_17 
ROOT
HETATM    1  C   UNL     1      24.272  46.540  50.127  1.00  0.00     0.288 C 
HETATM    2  N   UNL     1      23.273  45.740  49.611  1.00  0.00    -0.262 N 
HETATM    3  O   UNL     1      24.525  47.649  49.660  1.00  0.00    -0.264 OA
HETATM    4  H   UNL     1      22.956  44.900  50.090  1.00  0.00     0.190 HD
ENDROOT
BRANCH   1   5
HETATM    5  C   UNL     1      24.973  45.989  51.254  1.00  0.00     0.121 A 
HETATM    6  N   UNL     1      24.499  44.916  51.955  1.00  0.00    -0.272 N 
HETATM    7  N   UNL     1      25.284  44.532  52.973  1.00  0.00    -0.174 NA
HETATM    8  H   UNL     1      23.638  44.406  51.782  1.00  0.00     0.189 HD
HETATM    9  C   UNL     1      26.336  45.365  52.923  1.00  0.00     0.089 A 
HETATM   10  C   UNL     1      26.166  46.307  51.870  1.00  0.00     0.071 A 
BRANCH   9  11
HETATM   11  C   UNL     1      27.462  45.255  53.855  1.00  0.00    -0.005 A 
HETATM   12  C   UNL     1      27.752  46.285  54.759  1.00  0.00     0.016 A 
HETATM   13  C   UNL     1      28.823  46.166  55.651  1.00  0.00     0.037 A 
HETATM   14  C   UNL     1      29.620  45.020  55.661  1.00  0.00     0.068 A 
HETATM   15  C   UNL     1      29.346  43.994  54.759  1.00  0.00     0.037 A 
HETATM   16  C   UNL     1      28.275  44.113  53.861  1.00  0.00     0.016 A 
BRANCH  14  17
HETATM   17  O   UNL     1      30.627  45.035  56.587  1.00  0.00    -0.356 OA
HETATM   18  C   UNL     1      31.375  43.836  56.739  1.00  0.00     0.210 C 
ENDBRANCH  14  17
ENDBRANCH   9  11
ENDBRANCH   1   5
BRANCH   2  19
HETATM   19  N   UNL     1      22.345  46.305  48.722  1.00  0.00    -0.267 N 
HETATM   20  C   UNL     1      21.126  45.664  48.609  1.00  0.00     0.240 C 
HETATM   21  O   UNL     1      20.923  44.554  49.104  1.00  0.00    -0.272 OA
HETATM   22  H   UNL     1      22.475  47.290  48.492  1.00  0.00     0.190 HD
BRANCH  20  23
HETATM   23  C   UNL     1      20.076  46.421  47.824  1.00  0.00     0.143 C 
BRANCH  23  24
HETATM   24  C   UNL     1      19.737  47.788  48.370  1.00  0.00    -0.049 A 
HETATM   25  C   UNL     1      19.149  47.961  49.632  1.00  0.00     0.009 A 
HETATM   26  C   UNL     1      18.893  49.242  50.129  1.00  0.00     0.024 A 
HETATM   27  C   UNL     1      19.242  50.360  49.378  1.00  0.00     0.034 A 
HETATM   28 CL   UNL     1      18.936  51.936  49.995  1.00  0.00    -0.084 Cl
HETATM   29  C   UNL     1      19.846  50.209  48.134  1.00  0.00     0.024 A 
HETATM   30  C   UNL     1      20.097  48.929  47.634  1.00  0.00     0.009 A 
ENDBRANCH  23  24
ENDBRANCH  20  23
ENDBRANCH   2  19
TORSDOF 6
ENDMDL
MODEL 6
REMARK VINA RESULT:      -8.4      2.006      2.723
REMARK  6 active torsions:
REMARK  status: ('A' for Active; 'I' for Inactive)
REMARK    1  A    between atoms: O_2  and  C_3 
REMARK    2  A    between atoms: C_6  and  C_7 
REMARK    3  A    between atoms: C_11  and  C_12 
REMARK       I    between atoms: C_12  and  N_13 
REMARK    4  A    between atoms: N_13  and  N_14 
REMARK       I    between atoms: N_14  and  C_15 
REMARK    5  A    between atoms: C_15  and  C_16 
REMARK    6  A    between atoms: C_16  and  C_17 
ROOT
HETATM    1  C   UNL     1      24.507  47.892  50.063  1.00  0.00     0.288 C 
HETATM    2  N   UNL     1      23.133  47.913  49.943  1.00  0.00    -0.262 N 
HETATM    3  O   UNL     1      25.219  48.756  49.554  1.00  0.00    -0.264 OA
HETATM    4  H   UNL     1      22.536  47.297  50.492  1.00  0.00     0.190 HD
ENDROOT
BRANCH   1   5
HETATM    5  C   UNL     1      25.036  46.802  50.836  1.00  0.00     0.121 A 
HETATM    6  N   UNL     1      24.392  45.601  50.939  1.00  0.00    -0.272 N 
HETATM    7  N   UNL     1      25.031  44.697  51.697  1.00  0.00    -0.174 NA
HETATM    8  H   UNL     1      23.508  45.344  50.512  1.00  0.00     0.189 HD
HETATM    9  C   UNL     1      26.158  45.314  52.084  1.00  0.00     0.089 A 
HETATM   10  C   UNL     1      26.187  46.645  51.582  1.00  0.00     0.071 A 
BRANCH   9  11
HETATM   11  C   UNL     1      27.170  44.645  52.908  1.00  0.00    -0.005 A 
HETATM   12  C   UNL     1      27.699  45.267  54.046  1.00  0.00     0.016 A 
HETATM   13  C   UNL     1      28.656  44.616  54.831  1.00  0.00     0.037 A 
HETATM   14  C   UNL     1      29.100  43.335  54.500  1.00  0.00     0.068 A 
HETATM   15  C   UNL     1      28.587  42.712  53.364  1.00  0.00     0.037 A 
HETATM   16  C   UNL     1      27.630  43.363  52.573  1.00  0.00     0.016 A 
BRANCH  14  17
HETATM   17  O   UNL     1      30.032  42.816  55.356  1.00  0.00    -0.356 OA
HETATM   18  C   UNL     1      30.966  43.730  55.915  1.00  0.00     0.210 C 
ENDBRANCH  14  17
ENDBRANCH   9  11
ENDBRANCH   1   5
BRANCH   2  19
HETATM   19  N   UNL     1      22.512  49.082  49.475  1.00  0.00    -0.267 N 
HETATM   20  C   UNL     1      22.086  49.073  48.161  1.00  0.00     0.240 C 
HETATM   21  O   UNL     1      22.399  48.173  47.379  1.00  0.00    -0.272 OA
HETATM   22  H   UNL     1      22.115  49.702  50.181  1.00  0.00     0.190 HD
BRANCH  20  23
HETATM   23  C   UNL     1      21.225  50.251  47.759  1.00  0.00     0.143 C 
BRANCH  23  24
HETATM   24  C   UNL     1      19.742  49.968  47.712  1.00  0.00    -0.049 A 
HETATM   25  C   UNL     1      19.084  49.274  48.740  1.00  0.00     0.009 A 
HETATM   26  C   UNL     1      17.702  49.071  48.690  1.00  0.00     0.024 A 
HETATM   27  C   UNL     1      16.964  49.576  47.623  1.00  0.00     0.034 A 
HETATM   28 CL   UNL     1      15.262  49.333  47.568  1.00  0.00    -0.084 Cl
HETATM   29  C   UNL     1      17.596  50.285  46.606  1.00  0.00     0.024 A 
HETATM   30  C   UNL     1      18.978  50.483  46.653  1.00  0.00     0.009 A 
ENDBRANCH  23  24
ENDBRANCH  20  23
ENDBRANCH   2  19
TORSDOF 6
ENDMDL
MODEL 7
REMARK VINA RESULT:      -8.3      3.721     10.415
REMARK  6 active torsions:
REMARK  status: ('A' for Active; 'I' for Inactive)
REMARK    1  A    between atoms: O_2  and  C_3 
REMARK    2  A    between atoms: C_6  and  C_7 
REMARK    3  A    between atoms: C_11  and  C_12 
REMARK       I    between atoms: C_12  and  N_13 
REMARK    4  A    between atoms: N_13  and  N_14 
REMARK       I    between atoms: N_14  and  C_15 
REMARK    5  A    between atoms: C_15  and  C_16 
REMARK    6  A    between atoms: C_16  and  C_17 
ROOT
HETATM    1  C   UNL     1      26.193  44.437  52.418  1.00  0.00     0.288 C 
HETATM    2  N   UNL     1      26.728  43.198  52.131  1.00  0.00    -0.262 N 
HETATM    3  O   UNL     1      26.283  44.942  53.536  1.00  0.00    -0.264 OA
HETATM    4  H   UNL     1      26.797  42.851  51.176  1.00  0.00     0.190 HD
ENDROOT
BRANCH   1   5
HETATM    5  C   UNL     1      25.548  45.094  51.315  1.00  0.00     0.121 A 
HETATM    6  N   UNL     1      25.496  44.541  50.066  1.00  0.00    -0.272 N 
HETATM    7  N   UNL     1      24.850  45.289  49.159  1.00  0.00    -0.174 NA
HETATM    8  H   UNL     1      25.890  43.651  49.776  1.00  0.00     0.189 HD
HETATM    9  C   UNL     1      24.429  46.365  49.843  1.00  0.00     0.089 A 
HETATM   10  C   UNL     1      24.867  46.288  51.195  1.00  0.00     0.071 A 
BRANCH   9  11
HETATM   11  C   UNL     1      23.635  47.426  49.216  1.00  0.00    -0.005 A 
HETATM   12  C   UNL     1      24.121  48.737  49.138  1.00  0.00     0.016 A 
HETATM   13  C   UNL     1      23.359  49.741  48.529  1.00  0.00     0.037 A 
HETATM   14  C   UNL     1      22.106  49.455  47.985  1.00  0.00     0.068 A 
HETATM   15  C   UNL     1      21.610  48.155  48.068  1.00  0.00     0.037 A 
HETATM   16  C   UNL     1      22.370  47.149  48.681  1.00  0.00     0.016 A 
BRANCH  14  17
HETATM   17  O   UNL     1      21.475  50.527  47.417  1.00  0.00    -0.356 OA
HETATM   18  C   UNL     1      20.055  50.542  47.481  1.00  0.00     0.210 C 
ENDBRANCH  14  17
ENDBRANCH   9  11
ENDBRANCH   1   5
BRANCH   2  19
HETATM   19  N   UNL     1      27.628  42.621  53.041  1.00  0.00    -0.267 N 
HETATM   20  C   UNL     1      28.965  42.916  52.861  1.00  0.00     0.240 C 
HETATM   21  O   UNL     1      29.377  43.489  51.850  1.00  0.00    -0.272 OA
HETATM   22  H   UNL     1      27.242  42.328  53.939  1.00  0.00     0.190 HD
BRANCH  20  23
HETATM   23  C   UNL     1      29.876  42.470  53.984  1.00  0.00     0.143 C 
BRANCH  23  24
HETATM   24  C   UNL     1      30.093  43.497  55.072  1.00  0.00    -0.049 A 
HETATM   25  C   UNL     1      29.338  44.678  55.141  1.00  0.00     0.009 A 
HETATM   26  C   UNL     1      29.529  45.584  56.187  1.00  0.00     0.024 A 
HETATM   27  C   UNL     1      30.462  45.308  57.183  1.00  0.00     0.034 A 
HETATM   28 CL   UNL     1      30.689  46.420  58.476  1.00  0.00    -0.084 Cl
HETATM   29  C   UNL     1      31.204  44.131  57.143  1.00  0.00     0.024 A 
HETATM   30  C   UNL     1      31.017  43.228  56.094  1.00  0.00     0.009 A 
ENDBRANCH  23  24
ENDBRANCH  20  23
ENDBRANCH   2  19
TORSDOF 6
ENDMDL
MODEL 8
REMARK VINA RESULT:      -8.3      7.437      9.058
REMARK  6 active torsions:
REMARK  status: ('A' for Active; 'I' for Inactive)
REMARK    1  A    between atoms: O_2  and  C_3 
REMARK    2  A    between atoms: C_6  and  C_7 
REMARK    3  A    between atoms: C_11  and  C_12 
REMARK       I    between atoms: C_12  and  N_13 
REMARK    4  A    between atoms: N_13  and  N_14 
REMARK       I    between atoms: N_14  and  C_15 
REMARK    5  A    between atoms: C_15  and  C_16 
REMARK    6  A    between atoms: C_16  and  C_17 
ROOT
HETATM    1  C   UNL     1      26.680  41.255  50.096  1.00  0.00     0.288 C 
HETATM    2  N   UNL     1      27.022  42.015  48.996  1.00  0.00    -0.262 N 
HETATM    3  O   UNL     1      25.845  40.354  50.031  1.00  0.00    -0.264 OA
HETATM    4  H   UNL     1      27.821  42.646  49.007  1.00  0.00     0.190 HD
ENDROOT
BRANCH   1   5
HETATM    5  C   UNL     1      27.383  41.582  51.306  1.00  0.00     0.121 A 
HETATM    6  N   UNL     1      27.992  40.631  52.075  1.00  0.00    -0.272 N 
HETATM    7  N   UNL     1      28.606  41.116  53.166  1.00  0.00    -0.174 NA
HETATM    8  H   UNL     1      28.018  39.631  51.902  1.00  0.00     0.189 HD
HETATM    9  C   UNL     1      28.423  42.443  53.098  1.00  0.00     0.089 A 
HETATM   10  C   UNL     1      27.641  42.773  51.955  1.00  0.00     0.071 A 
BRANCH   9  11
HETATM   11  C   UNL     1      28.980  43.360  54.097  1.00  0.00    -0.005 A 
HETATM   12  C   UNL     1      30.180  43.063  54.756  1.00  0.00     0.016 A 
HETATM   13  C   UNL     1      30.709  43.949  55.701  1.00  0.00     0.037 A 
HETATM   14  C   UNL     1      30.056  45.145  56.003  1.00  0.00     0.068 A 
HETATM   15  C   UNL     1      28.856  45.444  55.359  1.00  0.00     0.037 A 
HETATM   16  C   UNL     1      28.322  44.556  54.415  1.00  0.00     0.016 A 
BRANCH  14  17
HETATM   17  O   UNL     1      30.686  45.917  56.938  1.00  0.00    -0.356 OA
HETATM   18  C   UNL     1      30.138  45.909  58.250  1.00  0.00     0.210 C 
ENDBRANCH  14  17
ENDBRANCH   9  11
ENDBRANCH   1   5
BRANCH   2  19
HETATM   19  N   UNL     1      26.624  41.579  47.722  1.00  0.00    -0.267 N 
HETATM   20  C   UNL     1      27.608  41.041  46.916  1.00  0.00     0.240 C 
HETATM   21  O   UNL     1      28.803  41.111  47.208  1.00  0.00    -0.272 OA
HETATM   22  H   UNL     1      25.633  41.367  47.602  1.00  0.00     0.190 HD
BRANCH  20  23
HETATM   23  C   UNL     1      27.107  40.378  45.651  1.00  0.00     0.143 C 
BRANCH  23  24
HETATM   24  C   UNL     1      28.189  39.955  44.685  1.00  0.00    -0.049 A 
HETATM   25  C   UNL     1      28.576  38.613  44.541  1.00  0.00     0.009 A 
HETATM   26  C   UNL     1      29.546  38.249  43.603  1.00  0.00     0.024 A 
HETATM   27  C   UNL     1      30.121  39.219  42.787  1.00  0.00     0.034 A 
HETATM   28 CL   UNL     1      31.307  38.767  41.626  1.00  0.00    -0.084 Cl
HETATM   29  C   UNL     1      29.734  40.550  42.900  1.00  0.00     0.024 A 
HETATM   30  C   UNL     1      28.769  40.916  43.841  1.00  0.00     0.009 A 
ENDBRANCH  23  24
ENDBRANCH  20  23
ENDBRANCH   2  19
TORSDOF 6
ENDMDL
MODEL 9
REMARK VINA RESULT:      -8.1      7.809     10.096
REMARK  6 active torsions:
REMARK  status: ('A' for Active; 'I' for Inactive)
REMARK    1  A    between atoms: O_2  and  C_3 
REMARK    2  A    between atoms: C_6  and  C_7 
REMARK    3  A    between atoms: C_11  and  C_12 
REMARK       I    between atoms: C_12  and  N_13 
REMARK    4  A    between atoms: N_13  and  N_14 
REMARK       I    between atoms: N_14  and  C_15 
REMARK    5  A    between atoms: C_15  and  C_16 
REMARK    6  A    between atoms: C_16  and  C_17 
ROOT
HETATM    1  C   UNL     1      27.906  40.677  50.192  1.00  0.00     0.288 C 
HETATM    2  N   UNL     1      28.008  39.302  50.135  1.00  0.00    -0.262 N 
HETATM    3  O   UNL     1      27.690  41.356  49.190  1.00  0.00    -0.264 OA
HETATM    4  H   UNL     1      28.025  38.729  50.977  1.00  0.00     0.190 HD
ENDROOT
BRANCH   1   5
HETATM    5  C   UNL     1      28.051  41.245  51.504  1.00  0.00     0.121 A 
HETATM    6  N   UNL     1      27.531  40.650  52.619  1.00  0.00    -0.272 N 
HETATM    7  N   UNL     1      27.766  41.316  53.759  1.00  0.00    -0.174 NA
HETATM    8  H   UNL     1      27.001  39.785  52.657  1.00  0.00     0.189 HD
HETATM    9  C   UNL     1      28.499  42.377  53.389  1.00  0.00     0.089 A 
HETATM   10  C   UNL     1      28.681  42.379  51.977  1.00  0.00     0.071 A 
BRANCH   9  11
HETATM   11  C   UNL     1      29.005  43.353  54.359  1.00  0.00    -0.005 A 
HETATM   12  C   UNL     1      30.230  43.153  55.009  1.00  0.00     0.016 A 
HETATM   13  C   UNL     1      30.708  44.095  55.926  1.00  0.00     0.037 A 
HETATM   14  C   UNL     1      29.979  45.251  56.209  1.00  0.00     0.068 A 
HETATM   15  C   UNL     1      28.755  45.454  55.574  1.00  0.00     0.037 A 
HETATM   16  C   UNL     1      28.272  44.510  54.657  1.00  0.00     0.016 A 
BRANCH  14  17
HETATM   17  O   UNL     1      30.567  46.087  57.118  1.00  0.00    -0.356 OA
HETATM   18  C   UNL     1      30.654  45.616  58.457  1.00  0.00     0.210 C 
ENDBRANCH  14  17
ENDBRANCH   9  11
ENDBRANCH   1   5
BRANCH   2  19
HETATM   19  N   UNL     1      27.585  38.640  48.972  1.00  0.00    -0.267 N 
HETATM   20  C   UNL     1      28.536  37.894  48.304  1.00  0.00     0.240 C 
HETATM   21  O   UNL     1      29.734  37.954  48.590  1.00  0.00    -0.272 OA
HETATM   22  H   UNL     1      26.584  38.465  48.885  1.00  0.00     0.190 HD
BRANCH  20  23
HETATM   23  C   UNL     1      27.998  37.017  47.193  1.00  0.00     0.143 C 
BRANCH  23  24
HETATM   24  C   UNL     1      28.575  37.297  45.826  1.00  0.00    -0.049 A 
HETATM   25  C   UNL     1      28.241  38.451  45.099  1.00  0.00     0.009 A 
HETATM   26  C   UNL     1      28.830  38.706  43.858  1.00  0.00     0.024 A 
HETATM   27  C   UNL     1      29.772  37.821  43.342  1.00  0.00     0.034 A 
HETATM   28 CL   UNL     1      30.504  38.141  41.818  1.00  0.00    -0.084 Cl
HETATM   29  C   UNL     1      30.133  36.683  44.058  1.00  0.00     0.024 A 
HETATM   30  C   UNL     1      29.540  36.425  45.296  1.00  0.00     0.009 A 
ENDBRANCH  23  24
ENDBRANCH  20  23
ENDBRANCH   2  19
TORSDOF 6
ENDMDL
MODEL 10
REMARK VINA RESULT:      -8.0      3.850     10.774
REMARK  6 active torsions:
REMARK  status: ('A' for Active; 'I' for Inactive)
REMARK    1  A    between atoms: O_2  and  C_3 
REMARK    2  A    between atoms: C_6  and  C_7 
REMARK    3  A    between atoms: C_11  and  C_12 
REMARK       I    between atoms: C_12  and  N_13 
REMARK    4  A    between atoms: N_13  and  N_14 
REMARK       I    between atoms: N_14  and  C_15 
REMARK    5  A    between atoms: C_15  and  C_16 
REMARK    6  A    between atoms: C_16  and  C_17 
ROOT
HETATM    1  C   UNL     1      26.153  45.104  51.091  1.00  0.00     0.288 C 
HETATM    2  N   UNL     1      27.012  44.051  50.854  1.00  0.00    -0.262 N 
HETATM    3  O   UNL     1      26.261  45.824  52.082  1.00  0.00    -0.264 OA
HETATM    4  H   UNL     1      27.026  43.559  49.963  1.00  0.00     0.190 HD
ENDROOT
BRANCH   1   5
HETATM    5  C   UNL     1      25.143  45.305  50.087  1.00  0.00     0.121 A 
HETATM    6  N   UNL     1      24.984  44.452  49.032  1.00  0.00    -0.272 N 
HETATM    7  N   UNL     1      23.990  44.790  48.197  1.00  0.00    -0.174 NA
HETATM    8  H   UNL     1      25.530  43.620  48.832  1.00  0.00     0.189 HD
HETATM    9  C   UNL     1      23.450  45.893  48.738  1.00  0.00     0.089 A 
HETATM   10  C   UNL     1      24.161  46.259  49.915  1.00  0.00     0.071 A 
BRANCH   9  11
HETATM   11  C   UNL     1      22.292  46.567  48.143  1.00  0.00    -0.005 A 
HETATM   12  C   UNL     1      21.748  47.716  48.730  1.00  0.00     0.016 A 
HETATM   13  C   UNL     1      20.649  48.357  48.149  1.00  0.00     0.037 A 
HETATM   14  C   UNL     1      20.076  47.869  46.974  1.00  0.00     0.068 A 
HETATM   15  C   UNL     1      20.605  46.721  46.387  1.00  0.00     0.037 A 
HETATM   16  C   UNL     1      21.704  46.074  46.970  1.00  0.00     0.016 A 
BRANCH  14  17
HETATM   17  O   UNL     1      19.014  48.596  46.513  1.00  0.00    -0.356 OA
HETATM   18  C   UNL     1      19.137  50.012  46.562  1.00  0.00     0.210 C 
ENDBRANCH  14  17
ENDBRANCH   9  11
ENDBRANCH   1   5
BRANCH   2  19
HETATM   19  N   UNL     1      28.197  43.963  51.603  1.00  0.00    -0.267 N 
HETATM   20  C   UNL     1      28.221  43.021  52.612  1.00  0.00     0.240 C 
HETATM   21  O   UNL     1      27.206  42.422  52.973  1.00  0.00    -0.272 OA
HETATM   22  H   UNL     1      29.043  44.324  51.162  1.00  0.00     0.190 HD
BRANCH  20  23
HETATM   23  C   UNL     1      29.578  42.795  53.244  1.00  0.00     0.143 C 
BRANCH  23  24
HETATM   24  C   UNL     1      29.861  43.644  54.462  1.00  0.00    -0.049 A 
HETATM   25  C   UNL     1      29.082  44.767  54.783  1.00  0.00     0.009 A 
HETATM   26  C   UNL     1      29.339  45.502  55.944  1.00  0.00     0.024 A 
HETATM   27  C   UNL     1      30.362  45.110  56.802  1.00  0.00     0.034 A 
HETATM   28 CL   UNL     1      30.670  46.010  58.235  1.00  0.00    -0.084 Cl
HETATM   29  C   UNL     1      31.129  43.987  56.511  1.00  0.00     0.024 A 
HETATM   30  C   UNL     1      30.877  43.255  55.349  1.00  0.00     0.009 A 
ENDBRANCH  23  24
ENDBRANCH  20  23
ENDBRANCH   2  19
TORSDOF 6
ENDMDL
