MODEL 1
REMARK VINA RESULT:      -8.7      0.000      0.000
REMARK  4 active torsions:
REMARK  status: ('A' for Active; 'I' for Inactive)
REMARK    1  A    between atoms: C_6  and  O_7 
REMARK    2  A    between atoms: C_6  and  C_8 
REMARK    3  A    between atoms: N_15  and  C_17 
REMARK    4  A    between atoms: C_17  and  C_18 
ROOT
HETATM    1  C   UNL     1      26.844  40.813  49.817  1.00  0.00    -0.023 A 
HETATM    2  C   UNL     1      27.480  41.975  50.319  1.00  0.00     0.022 A 
HETATM    3  C   UNL     1      26.792  43.191  50.491  1.00  0.00     0.002 A 
HETATM    4  C   UNL     1      25.434  43.230  50.187  1.00  0.00     0.076 A 
HETATM    5  O   UNL     1      24.710  44.377  50.342  1.00  0.00    -0.349 OA
HETATM    6  C   UNL     1      24.534  44.700  51.729  1.00  0.00     0.203 C 
HETATM    7  C   UNL     1      25.649  45.627  52.224  1.00  0.00     0.262 C 
HETATM    8  N   UNL     1      27.009  44.950  52.312  1.00  0.00    -0.061 N 
HETATM    9  H   UNL     1      27.668  45.706  52.546  1.00  0.00     0.280 HD
HETATM   10  C   UNL     1      27.495  44.425  50.982  1.00  0.00     0.276 C 
HETATM   11  C   UNL     1      24.781  42.111  49.685  1.00  0.00     0.038 A 
HETATM   12  C   UNL     1      25.476  40.909  49.518  1.00  0.00     0.013 A 
ENDROOT
BRANCH   1  13
HETATM   13  C   UNL     1      27.630  39.499  49.710  1.00  0.00     0.088 C 
HETATM   14  C   UNL     1      28.776  39.546  48.677  1.00  0.00     0.070 C 
HETATM   15  C   UNL     1      28.270  39.477  47.248  1.00  0.00     0.237 C 
HETATM   16  N   UNL     1      27.485  38.206  47.059  1.00  0.00    -0.075 N 
HETATM   17  C   UNL     1      27.052  38.031  45.625  1.00  0.00     0.269 C 
HETATM   18  H   UNL     1      28.119  37.415  47.252  1.00  0.00     0.279 HD
HETATM   19  C   UNL     1      26.322  38.102  48.010  1.00  0.00     0.237 C 
HETATM   20  C   UNL     1      26.815  38.215  49.448  1.00  0.00     0.070 C 
BRANCH  13  21
HETATM   21  O   UNL     1      28.257  39.343  50.990  1.00  0.00    -0.385 OA
HETATM   22  H   UNL     1      28.182  38.411  51.264  1.00  0.00     0.211 HD
ENDBRANCH  13  21
ENDBRANCH   1  13
BRANCH   8  23
HETATM   23  C   UNL     1      27.161  43.941  53.432  1.00  0.00     0.278 C 
BRANCH  23  24
HETATM   24  C   UNL     1      28.400  44.106  54.259  1.00  0.00     0.028 A 
HETATM   25  C   UNL     1      29.474  43.208  54.212  1.00  0.00     0.045 A 
HETATM   26 CL   UNL     1      29.458  41.866  53.125  1.00  0.00    -0.084 Cl
HETATM   27  C   UNL     1      30.595  43.389  55.027  1.00  0.00     0.024 A 
HETATM   28  C   UNL     1      30.655  44.474  55.902  1.00  0.00     0.005 A 
HETATM   29  C   UNL     1      29.598  45.380  55.957  1.00  0.00     0.043 A 
HETATM   30  C   UNL     1      28.490  45.188  55.140  1.00  0.00     0.126 A 
HETATM   31  F   UNL     1      27.487  46.077  55.185  1.00  0.00    -0.205 F 
ENDBRANCH  23  24
ENDBRANCH   8  23
TORSDOF 4
ENDMDL
MODEL 2
REMARK VINA RESULT:      -8.6      1.377      1.646
REMARK  4 active torsions:
REMARK  status: ('A' for Active; 'I' for Inactive)
REMARK    1  A    between atoms: C_6  and  O_7 
REMARK    2  A    between atoms: C_6  and  C_8 
REMARK    3  A    between atoms: N_15  and  C_17 
REMARK    4  A    between atoms: C_17  and  C_18 
ROOT
HETATM    1  C   UNL     1      26.932  40.957  49.926  1.00  0.00    -0.023 A 
HETATM    2  C   UNL     1      27.536  42.118  50.467  1.00  0.00     0.022 A 
HETATM    3  C   UNL     1      26.830  43.323  50.634  1.00  0.00     0.002 A 
HETATM    4  C   UNL     1      25.483  43.353  50.283  1.00  0.00     0.076 A 
HETATM    5  O   UNL     1      24.740  44.490  50.431  1.00  0.00    -0.349 OA
HETATM    6  C   UNL     1      24.513  44.789  51.816  1.00  0.00     0.203 C 
HETATM    7  C   UNL     1      25.599  45.719  52.364  1.00  0.00     0.262 C 
HETATM    8  N   UNL     1      26.963  45.056  52.489  1.00  0.00    -0.061 N 
HETATM    9  H   UNL     1      27.605  45.814  52.758  1.00  0.00     0.280 HD
HETATM   10  C   UNL     1      27.502  44.557  51.169  1.00  0.00     0.276 C 
HETATM   11  C   UNL     1      24.860  42.235  49.742  1.00  0.00     0.038 A 
HETATM   12  C   UNL     1      25.574  41.044  49.581  1.00  0.00     0.013 A 
ENDROOT
BRANCH   1  13
HETATM   13  C   UNL     1      27.735  39.654  49.825  1.00  0.00     0.088 C 
HETATM   14  C   UNL     1      28.869  39.705  48.779  1.00  0.00     0.070 C 
HETATM   15  C   UNL     1      28.348  39.611  47.357  1.00  0.00     0.237 C 
HETATM   16  N   UNL     1      27.580  38.327  47.192  1.00  0.00    -0.075 N 
HETATM   17  C   UNL     1      27.134  38.128  45.765  1.00  0.00     0.269 C 
HETATM   18  H   UNL     1      28.227  37.547  47.388  1.00  0.00     0.279 HD
HETATM   19  C   UNL     1      26.429  38.217  48.158  1.00  0.00     0.237 C 
HETATM   20  C   UNL     1      26.937  38.355  49.588  1.00  0.00     0.070 C 
BRANCH  13  21
HETATM   21  O   UNL     1      28.380  39.523  51.100  1.00  0.00    -0.385 OA
HETATM   22  H   UNL     1      27.814  39.934  51.779  1.00  0.00     0.211 HD
ENDBRANCH  13  21
ENDBRANCH   1  13
BRANCH   8  23
HETATM   23  C   UNL     1      27.087  44.030  53.598  1.00  0.00     0.278 C 
BRANCH  23  24
HETATM   24  C   UNL     1      28.351  44.126  54.399  1.00  0.00     0.028 A 
HETATM   25  C   UNL     1      28.669  45.235  55.194  1.00  0.00     0.045 A 
HETATM   26 CL   UNL     1      27.566  46.556  55.351  1.00  0.00    -0.084 Cl
HETATM   27  C   UNL     1      29.874  45.290  55.897  1.00  0.00     0.024 A 
HETATM   28  C   UNL     1      30.781  44.232  55.814  1.00  0.00     0.005 A 
HETATM   29  C   UNL     1      30.478  43.120  55.033  1.00  0.00     0.043 A 
HETATM   30  C   UNL     1      29.274  43.078  54.339  1.00  0.00     0.126 A 
HETATM   31  F   UNL     1      28.984  41.994  53.606  1.00  0.00    -0.205 F 
ENDBRANCH  23  24
ENDBRANCH   8  23
TORSDOF 4
ENDMDL
MODEL 3
REMARK VINA RESULT:      -8.3      5.964      9.183
REMARK  4 active torsions:
REMARK  status: ('A' for Active; 'I' for Inactive)
REMARK    1  A    between atoms: C_6  and  O_7 
REMARK    2  A    between atoms: C_6  and  C_8 
REMARK    3  A    between atoms: N_15  and  C_17 
REMARK    4  A    between atoms: C_17  and  C_18 
ROOT
HETATM    1  C   UNL     1      24.557  44.955  49.561  1.00  0.00    -0.023 A 
HETATM    2  C   UNL     1      23.916  45.862  48.682  1.00  0.00     0.022 A 
HETATM    3  C   UNL     1      22.579  45.697  48.277  1.00  0.00     0.002 A 
HETATM    4  C   UNL     1      21.861  44.621  48.793  1.00  0.00     0.076 A 
HETATM    5  O   UNL     1      20.557  44.413  48.446  1.00  0.00    -0.349 OA
HETATM    6  C   UNL     1      19.700  45.414  49.013  1.00  0.00     0.203 C 
HETATM    7  C   UNL     1      19.513  46.590  48.049  1.00  0.00     0.262 C 
HETATM    8  N   UNL     1      20.767  47.432  47.866  1.00  0.00    -0.061 N 
HETATM    9  H   UNL     1      20.531  48.103  47.122  1.00  0.00     0.280 HD
HETATM   10  C   UNL     1      21.931  46.647  47.309  1.00  0.00     0.276 C 
HETATM   11  C   UNL     1      22.461  43.707  49.650  1.00  0.00     0.038 A 
HETATM   12  C   UNL     1      23.791  43.882  50.044  1.00  0.00     0.013 A 
ENDROOT
BRANCH   1  13
HETATM   13  C   UNL     1      25.998  45.220  50.015  1.00  0.00     0.088 C 
HETATM   14  C   UNL     1      26.366  44.526  51.344  1.00  0.00     0.070 C 
HETATM   15  C   UNL     1      25.753  45.219  52.547  1.00  0.00     0.237 C 
HETATM   16  N   UNL     1      26.220  46.649  52.589  1.00  0.00    -0.075 N 
HETATM   17  C   UNL     1      25.730  47.355  53.829  1.00  0.00     0.269 C 
HETATM   18  H   UNL     1      27.249  46.640  52.669  1.00  0.00     0.279 HD
HETATM   19  C   UNL     1      25.866  47.407  51.338  1.00  0.00     0.237 C 
HETATM   20  C   UNL     1      26.440  46.694  50.119  1.00  0.00     0.070 C 
BRANCH  13  21
HETATM   21  O   UNL     1      26.816  44.607  49.010  1.00  0.00    -0.385 OA
HETATM   22  H   UNL     1      26.241  44.108  48.400  1.00  0.00     0.211 HD
ENDBRANCH  13  21
ENDBRANCH   1  13
BRANCH   8  23
HETATM   23  C   UNL     1      21.154  48.288  49.055  1.00  0.00     0.278 C 
BRANCH  23  24
HETATM   24  C   UNL     1      20.403  49.581  49.164  1.00  0.00     0.028 A 
HETATM   25  C   UNL     1      19.284  49.747  49.990  1.00  0.00     0.045 A 
HETATM   26 CL   UNL     1      18.733  48.460  51.002  1.00  0.00    -0.084 Cl
HETATM   27  C   UNL     1      18.598  50.963  50.032  1.00  0.00     0.024 A 
HETATM   28  C   UNL     1      19.027  52.034  49.246  1.00  0.00     0.005 A 
HETATM   29  C   UNL     1      20.141  51.889  48.424  1.00  0.00     0.043 A 
HETATM   30  C   UNL     1      20.814  50.672  48.392  1.00  0.00     0.126 A 
HETATM   31  F   UNL     1      21.897  50.549  47.613  1.00  0.00    -0.205 F 
ENDBRANCH  23  24
ENDBRANCH   8  23
TORSDOF 4
ENDMDL
MODEL 4
REMARK VINA RESULT:      -8.3      5.838      9.045
REMARK  4 active torsions:
REMARK  status: ('A' for Active; 'I' for Inactive)
REMARK    1  A    between atoms: C_6  and  O_7 
REMARK    2  A    between atoms: C_6  and  C_8 
REMARK    3  A    between atoms: N_15  and  C_17 
REMARK    4  A    between atoms: C_17  and  C_18 
ROOT
HETATM    1  C   UNL     1      21.971  50.011  49.151  1.00  0.00    -0.023 A 
HETATM    2  C   UNL     1      22.545  48.722  49.272  1.00  0.00     0.022 A 
HETATM    3  C   UNL     1      23.879  48.457  48.912  1.00  0.00     0.002 A 
HETATM    4  C   UNL     1      24.661  49.515  48.455  1.00  0.00     0.076 A 
HETATM    5  O   UNL     1      25.966  49.324  48.100  1.00  0.00    -0.349 OA
HETATM    6  C   UNL     1      26.785  49.052  49.247  1.00  0.00     0.203 C 
HETATM    7  C   UNL     1      26.890  47.546  49.504  1.00  0.00     0.262 C 
HETATM    8  N   UNL     1      25.591  46.919  49.990  1.00  0.00    -0.061 N 
HETATM    9  H   UNL     1      25.776  45.907  50.014  1.00  0.00     0.280 HD
HETATM   10  C   UNL     1      24.456  47.072  49.007  1.00  0.00     0.276 C 
HETATM   11  C   UNL     1      24.128  50.790  48.316  1.00  0.00     0.038 A 
HETATM   12  C   UNL     1      22.801  51.039  48.676  1.00  0.00     0.013 A 
ENDROOT
BRANCH   1  13
HETATM   13  C   UNL     1      20.529  50.252  49.617  1.00  0.00     0.088 C 
HETATM   14  C   UNL     1      19.638  48.993  49.551  1.00  0.00     0.070 C 
HETATM   15  C   UNL     1      19.228  48.650  48.131  1.00  0.00     0.237 C 
HETATM   16  N   UNL     1      18.485  49.815  47.532  1.00  0.00    -0.075 N 
HETATM   17  C   UNL     1      17.955  49.486  46.158  1.00  0.00     0.269 C 
HETATM   18  H   UNL     1      17.650  49.986  48.114  1.00  0.00     0.279 HD
HETATM   19  C   UNL     1      19.304  51.078  47.527  1.00  0.00     0.237 C 
HETATM   20  C   UNL     1      19.759  51.407  48.944  1.00  0.00     0.070 C 
BRANCH  13  21
HETATM   21  O   UNL     1      20.646  50.580  51.008  1.00  0.00    -0.385 OA
HETATM   22  H   UNL     1      19.786  50.916  51.323  1.00  0.00     0.211 HD
ENDBRANCH  13  21
ENDBRANCH   1  13
BRANCH   8  23
HETATM   23  C   UNL     1      25.191  47.274  51.408  1.00  0.00     0.278 C 
BRANCH  23  24
HETATM   24  C   UNL     1      25.607  46.274  52.444  1.00  0.00     0.028 A 
HETATM   25  C   UNL     1      25.120  44.961  52.478  1.00  0.00     0.045 A 
HETATM   26 CL   UNL     1      24.037  44.389  51.259  1.00  0.00    -0.084 Cl
HETATM   27  C   UNL     1      25.514  44.076  53.483  1.00  0.00     0.024 A 
HETATM   28  C   UNL     1      26.405  44.495  54.473  1.00  0.00     0.005 A 
HETATM   29  C   UNL     1      26.904  45.794  54.451  1.00  0.00     0.043 A 
HETATM   30  C   UNL     1      26.503  46.665  53.444  1.00  0.00     0.126 A 
HETATM   31  F   UNL     1      27.005  47.907  53.420  1.00  0.00    -0.205 F 
ENDBRANCH  23  24
ENDBRANCH   8  23
TORSDOF 4
ENDMDL
MODEL 5
REMARK VINA RESULT:      -8.2      6.205      9.155
REMARK  4 active torsions:
REMARK  status: ('A' for Active; 'I' for Inactive)
REMARK    1  A    between atoms: C_6  and  O_7 
REMARK    2  A    between atoms: C_6  and  C_8 
REMARK    3  A    between atoms: N_15  and  C_17 
REMARK    4  A    between atoms: C_17  and  C_18 
ROOT
HETATM    1  C   UNL     1      24.224  45.632  50.127  1.00  0.00    -0.023 A 
HETATM    2  C   UNL     1      23.606  46.515  49.208  1.00  0.00     0.022 A 
HETATM    3  C   UNL     1      22.428  46.175  48.517  1.00  0.00     0.002 A 
HETATM    4  C   UNL     1      21.841  44.940  48.780  1.00  0.00     0.076 A 
HETATM    5  O   UNL     1      20.692  44.556  48.149  1.00  0.00    -0.349 OA
HETATM    6  C   UNL     1      19.568  45.325  48.600  1.00  0.00     0.203 C 
HETATM    7  C   UNL     1      19.353  46.557  47.716  1.00  0.00     0.262 C 
HETATM    8  N   UNL     1      20.436  47.614  47.870  1.00  0.00    -0.061 N 
HETATM    9  H   UNL     1      20.226  48.319  47.149  1.00  0.00     0.280 HD
HETATM   10  C   UNL     1      21.812  47.108  47.511  1.00  0.00     0.276 C 
HETATM   11  C   UNL     1      22.425  44.046  49.670  1.00  0.00     0.038 A 
HETATM   12  C   UNL     1      23.596  44.396  50.349  1.00  0.00     0.013 A 
ENDROOT
BRANCH   1  13
HETATM   13  C   UNL     1      25.472  46.082  50.897  1.00  0.00     0.088 C 
HETATM   14  C   UNL     1      26.794  45.808  50.147  1.00  0.00     0.070 C 
HETATM   15  C   UNL     1      27.182  44.341  50.177  1.00  0.00     0.237 C 
HETATM   16  N   UNL     1      27.321  43.892  51.607  1.00  0.00    -0.075 N 
HETATM   17  C   UNL     1      27.815  42.470  51.695  1.00  0.00     0.269 C 
HETATM   18  H   UNL     1      28.059  44.466  52.045  1.00  0.00     0.279 HD
HETATM   19  C   UNL     1      26.056  44.094  52.399  1.00  0.00     0.237 C 
HETATM   20  C   UNL     1      25.634  45.557  52.338  1.00  0.00     0.070 C 
BRANCH  13  21
HETATM   21  O   UNL     1      25.355  47.509  50.980  1.00  0.00    -0.385 OA
HETATM   22  H   UNL     1      24.619  47.796  50.408  1.00  0.00     0.211 HD
ENDBRANCH  13  21
ENDBRANCH   1  13
BRANCH   8  23
HETATM   23  C   UNL     1      20.415  48.378  49.178  1.00  0.00     0.278 C 
BRANCH  23  24
HETATM   24  C   UNL     1      19.758  49.724  49.106  1.00  0.00     0.028 A 
HETATM   25  C   UNL     1      20.404  50.863  48.608  1.00  0.00     0.045 A 
HETATM   26 CL   UNL     1      22.009  50.764  47.974  1.00  0.00    -0.084 Cl
HETATM   27  C   UNL     1      19.760  52.103  48.591  1.00  0.00     0.024 A 
HETATM   28  C   UNL     1      18.455  52.218  49.074  1.00  0.00     0.005 A 
HETATM   29  C   UNL     1      17.797  51.095  49.566  1.00  0.00     0.043 A 
HETATM   30  C   UNL     1      18.450  49.868  49.577  1.00  0.00     0.126 A 
HETATM   31  F   UNL     1      17.799  48.789  50.034  1.00  0.00    -0.205 F 
ENDBRANCH  23  24
ENDBRANCH   8  23
TORSDOF 4
ENDMDL
MODEL 6
REMARK VINA RESULT:      -8.0      9.337     13.022
REMARK  4 active torsions:
REMARK  status: ('A' for Active; 'I' for Inactive)
REMARK    1  A    between atoms: C_6  and  O_7 
REMARK    2  A    between atoms: C_6  and  C_8 
REMARK    3  A    between atoms: N_15  and  C_17 
REMARK    4  A    between atoms: C_17  and  C_18 
ROOT
HETATM    1  C   UNL     1      17.040  50.371  47.823  1.00  0.00    -0.023 A 
HETATM    2  C   UNL     1      18.101  49.789  48.558  1.00  0.00     0.022 A 
HETATM    3  C   UNL     1      18.156  48.409  48.831  1.00  0.00     0.002 A 
HETATM    4  C   UNL     1      17.146  47.596  48.325  1.00  0.00     0.076 A 
HETATM    5  O   UNL     1      17.149  46.248  48.546  1.00  0.00    -0.349 OA
HETATM    6  C   UNL     1      18.203  45.601  47.819  1.00  0.00     0.203 C 
HETATM    7  C   UNL     1      19.474  45.497  48.667  1.00  0.00     0.262 C 
HETATM    8  N   UNL     1      20.151  46.837  48.918  1.00  0.00    -0.061 N 
HETATM    9  H   UNL     1      20.912  46.631  49.580  1.00  0.00     0.280 HD
HETATM   10  C   UNL     1      19.268  47.817  49.652  1.00  0.00     0.276 C 
HETATM   11  C   UNL     1      16.086  48.135  47.606  1.00  0.00     0.038 A 
HETATM   12  C   UNL     1      16.043  49.507  47.343  1.00  0.00     0.013 A 
ENDROOT
BRANCH   1  13
HETATM   13  C   UNL     1      17.066  51.872  47.504  1.00  0.00     0.088 C 
HETATM   14  C   UNL     1      17.890  52.704  48.510  1.00  0.00     0.070 C 
HETATM   15  C   UNL     1      17.168  52.895  49.830  1.00  0.00     0.237 C 
HETATM   16  N   UNL     1      15.850  53.580  49.583  1.00  0.00    -0.075 N 
HETATM   17  C   UNL     1      15.139  53.896  50.875  1.00  0.00     0.269 C 
HETATM   18  H   UNL     1      16.049  54.495  49.149  1.00  0.00     0.279 HD
HETATM   19  C   UNL     1      14.970  52.808  48.636  1.00  0.00     0.237 C 
HETATM   20  C   UNL     1      15.704  52.573  47.321  1.00  0.00     0.070 C 
BRANCH  13  21
HETATM   21  O   UNL     1      17.758  51.967  46.252  1.00  0.00    -0.385 OA
HETATM   22  H   UNL     1      17.444  52.761  45.780  1.00  0.00     0.211 HD
ENDBRANCH  13  21
ENDBRANCH   1  13
BRANCH   8  23
HETATM   23  C   UNL     1      20.837  47.452  47.716  1.00  0.00     0.278 C 
BRANCH  23  24
HETATM   24  C   UNL     1      21.970  48.376  48.048  1.00  0.00     0.028 A 
HETATM   25  C   UNL     1      23.141  47.949  48.689  1.00  0.00     0.045 A 
HETATM   26 CL   UNL     1      23.377  46.283  49.082  1.00  0.00    -0.084 Cl
HETATM   27  C   UNL     1      24.155  48.855  49.006  1.00  0.00     0.024 A 
HETATM   28  C   UNL     1      24.011  50.206  48.685  1.00  0.00     0.005 A 
HETATM   29  C   UNL     1      22.857  50.646  48.042  1.00  0.00     0.043 A 
HETATM   30  C   UNL     1      21.856  49.733  47.732  1.00  0.00     0.126 A 
HETATM   31  F   UNL     1      20.757  50.163  47.095  1.00  0.00    -0.205 F 
ENDBRANCH  23  24
ENDBRANCH   8  23
TORSDOF 4
ENDMDL
MODEL 7
REMARK VINA RESULT:      -7.7     12.741     13.896
REMARK  4 active torsions:
REMARK  status: ('A' for Active; 'I' for Inactive)
REMARK    1  A    between atoms: C_6  and  O_7 
REMARK    2  A    between atoms: C_6  and  C_8 
REMARK    3  A    between atoms: N_15  and  C_17 
REMARK    4  A    between atoms: C_17  and  C_18 
ROOT
HETATM    1  C   UNL     1      27.942  49.229  40.125  1.00  0.00    -0.023 A 
HETATM    2  C   UNL     1      29.241  49.146  39.567  1.00  0.00     0.022 A 
HETATM    3  C   UNL     1      30.030  50.288  39.331  1.00  0.00     0.002 A 
HETATM    4  C   UNL     1      29.518  51.530  39.694  1.00  0.00     0.076 A 
HETATM    5  O   UNL     1      30.240  52.674  39.500  1.00  0.00    -0.349 OA
HETATM    6  C   UNL     1      31.364  52.740  40.388  1.00  0.00     0.203 C 
HETATM    7  C   UNL     1      32.613  52.133  39.742  1.00  0.00     0.262 C 
HETATM    8  N   UNL     1      32.538  50.623  39.571  1.00  0.00    -0.061 N 
HETATM    9  H   UNL     1      33.380  50.373  39.034  1.00  0.00     0.280 HD
HETATM   10  C   UNL     1      31.389  50.183  38.696  1.00  0.00     0.276 C 
HETATM   11  C   UNL     1      28.245  51.648  40.236  1.00  0.00     0.038 A 
HETATM   12  C   UNL     1      27.471  50.507  40.465  1.00  0.00     0.013 A 
ENDROOT
BRANCH   1  13
HETATM   13  C   UNL     1      27.154  47.945  40.417  1.00  0.00     0.088 C 
HETATM   14  C   UNL     1      27.446  46.800  39.424  1.00  0.00     0.070 C 
HETATM   15  C   UNL     1      26.783  47.020  38.077  1.00  0.00     0.237 C 
HETATM   16  N   UNL     1      25.295  47.142  38.269  1.00  0.00    -0.075 N 
HETATM   17  C   UNL     1      24.573  47.250  36.948  1.00  0.00     0.269 C 
HETATM   18  H   UNL     1      24.960  46.262  38.692  1.00  0.00     0.279 HD
HETATM   19  C   UNL     1      24.925  48.266  39.200  1.00  0.00     0.237 C 
HETATM   20  C   UNL     1      25.622  48.077  40.543  1.00  0.00     0.070 C 
BRANCH  13  21
HETATM   21  O   UNL     1      27.642  47.499  41.689  1.00  0.00    -0.385 OA
HETATM   22  H   UNL     1      27.675  46.524  41.687  1.00  0.00     0.211 HD
ENDBRANCH  13  21
ENDBRANCH   1  13
BRANCH   8  23
HETATM   23  C   UNL     1      32.641  49.819  40.851  1.00  0.00     0.278 C 
BRANCH  23  24
HETATM   24  C   UNL     1      33.058  50.610  42.055  1.00  0.00     0.028 A 
HETATM   25  C   UNL     1      34.374  51.038  42.269  1.00  0.00     0.045 A 
HETATM   26 CL   UNL     1      35.607  50.726  41.098  1.00  0.00    -0.084 Cl
HETATM   27  C   UNL     1      34.720  51.745  43.423  1.00  0.00     0.024 A 
HETATM   28  C   UNL     1      33.747  52.036  44.381  1.00  0.00     0.005 A 
HETATM   29  C   UNL     1      32.432  51.624  44.181  1.00  0.00     0.043 A 
HETATM   30  C   UNL     1      32.103  50.921  43.028  1.00  0.00     0.126 A 
HETATM   31  F   UNL     1      30.830  50.547  42.835  1.00  0.00    -0.205 F 
ENDBRANCH  23  24
ENDBRANCH   8  23
TORSDOF 4
ENDMDL
MODEL 8
REMARK VINA RESULT:      -7.7      5.825      9.101
REMARK  4 active torsions:
REMARK  status: ('A' for Active; 'I' for Inactive)
REMARK    1  A    between atoms: C_6  and  O_7 
REMARK    2  A    between atoms: C_6  and  C_8 
REMARK    3  A    between atoms: N_15  and  C_17 
REMARK    4  A    between atoms: C_17  and  C_18 
ROOT
HETATM    1  C   UNL     1      24.869  46.063  51.527  1.00  0.00    -0.023 A 
HETATM    2  C   UNL     1      24.654  47.147  50.642  1.00  0.00     0.022 A 
HETATM    3  C   UNL     1      23.925  47.007  49.446  1.00  0.00     0.002 A 
HETATM    4  C   UNL     1      23.373  45.763  49.152  1.00  0.00     0.076 A 
HETATM    5  O   UNL     1      22.646  45.566  48.012  1.00  0.00    -0.349 OA
HETATM    6  C   UNL     1      21.386  46.249  48.072  1.00  0.00     0.203 C 
HETATM    7  C   UNL     1      21.491  47.653  47.470  1.00  0.00     0.262 C 
HETATM    8  N   UNL     1      22.318  48.616  48.310  1.00  0.00    -0.061 N 
HETATM    9  H   UNL     1      22.394  49.470  47.741  1.00  0.00     0.280 HD
HETATM   10  C   UNL     1      23.745  48.160  48.498  1.00  0.00     0.276 C 
HETATM   11  C   UNL     1      23.571  44.676  49.994  1.00  0.00     0.038 A 
HETATM   12  C   UNL     1      24.298  44.829  51.178  1.00  0.00     0.013 A 
ENDROOT
BRANCH   1  13
HETATM   13  C   UNL     1      25.619  46.291  52.846  1.00  0.00     0.088 C 
HETATM   14  C   UNL     1      27.149  46.117  52.726  1.00  0.00     0.070 C 
HETATM   15  C   UNL     1      27.559  44.660  52.628  1.00  0.00     0.237 C 
HETATM   16  N   UNL     1      27.071  43.922  53.847  1.00  0.00    -0.075 N 
HETATM   17  C   UNL     1      27.548  42.491  53.856  1.00  0.00     0.269 C 
HETATM   18  H   UNL     1      27.506  44.361  54.674  1.00  0.00     0.279 HD
HETATM   19  C   UNL     1      25.577  44.014  54.014  1.00  0.00     0.237 C 
HETATM   20  C   UNL     1      25.150  45.476  54.069  1.00  0.00     0.070 C 
BRANCH  13  21
HETATM   21  O   UNL     1      25.402  47.674  53.155  1.00  0.00    -0.385 OA
HETATM   22  H   UNL     1      26.260  48.086  53.363  1.00  0.00     0.211 HD
ENDBRANCH  13  21
ENDBRANCH   1  13
BRANCH   8  23
HETATM   23  C   UNL     1      21.672  49.068  49.604  1.00  0.00     0.278 C 
BRANCH  23  24
HETATM   24  C   UNL     1      20.538  50.034  49.432  1.00  0.00     0.028 A 
HETATM   25  C   UNL     1      19.231  49.761  49.856  1.00  0.00     0.045 A 
HETATM   26 CL   UNL     1      18.858  48.289  50.679  1.00  0.00    -0.084 Cl
HETATM   27  C   UNL     1      18.202  50.682  49.644  1.00  0.00     0.024 A 
HETATM   28  C   UNL     1      18.469  51.893  49.002  1.00  0.00     0.005 A 
HETATM   29  C   UNL     1      19.764  52.182  48.580  1.00  0.00     0.043 A 
HETATM   30  C   UNL     1      20.779  51.257  48.798  1.00  0.00     0.126 A 
HETATM   31  F   UNL     1      22.026  51.555  48.406  1.00  0.00    -0.205 F 
ENDBRANCH  23  24
ENDBRANCH   8  23
TORSDOF 4
ENDMDL
MODEL 9
REMARK VINA RESULT:      -7.6     12.736     14.962
REMARK  4 active torsions:
REMARK  status: ('A' for Active; 'I' for Inactive)
REMARK    1  A    between atoms: C_6  and  O_7 
REMARK    2  A    between atoms: C_6  and  C_8 
REMARK    3  A    between atoms: N_15  and  C_17 
REMARK    4  A    between atoms: C_17  and  C_18 
ROOT
HETATM    1  C   UNL     1      30.303  52.230  39.968  1.00  0.00    -0.023 A 
HETATM    2  C   UNL     1      29.294  51.526  40.669  1.00  0.00     0.022 A 
HETATM    3  C   UNL     1      28.213  50.911  40.010  1.00  0.00     0.002 A 
HETATM    4  C   UNL     1      28.165  50.974  38.620  1.00  0.00     0.076 A 
HETATM    5  O   UNL     1      27.147  50.388  37.922  1.00  0.00    -0.349 OA
HETATM    6  C   UNL     1      27.233  48.957  37.976  1.00  0.00     0.203 C 
HETATM    7  C   UNL     1      26.422  48.401  39.150  1.00  0.00     0.262 C 
HETATM    8  N   UNL     1      27.021  48.723  40.511  1.00  0.00    -0.061 N 
HETATM    9  H   UNL     1      26.326  48.390  41.194  1.00  0.00     0.280 HD
HETATM   10  C   UNL     1      27.128  50.206  40.775  1.00  0.00     0.276 C 
HETATM   11  C   UNL     1      29.134  51.664  37.902  1.00  0.00     0.038 A 
HETATM   12  C   UNL     1      30.202  52.272  38.569  1.00  0.00     0.013 A 
ENDROOT
BRANCH   1  13
HETATM   13  C   UNL     1      31.490  52.828  40.736  1.00  0.00     0.088 C 
HETATM   14  C   UNL     1      32.824  52.763  39.961  1.00  0.00     0.070 C 
HETATM   15  C   UNL     1      33.412  51.364  39.940  1.00  0.00     0.237 C 
HETATM   16  N   UNL     1      33.637  50.898  41.354  1.00  0.00    -0.075 N 
HETATM   17  C   UNL     1      34.326  49.556  41.392  1.00  0.00     0.269 C 
HETATM   18  H   UNL     1      34.295  51.556  41.800  1.00  0.00     0.279 HD
HETATM   19  C   UNL     1      32.370  50.898  42.168  1.00  0.00     0.237 C 
HETATM   20  C   UNL     1      31.747  52.289  42.158  1.00  0.00     0.070 C 
BRANCH  13  21
HETATM   21  O   UNL     1      31.176  54.221  40.865  1.00  0.00    -0.385 OA
HETATM   22  H   UNL     1      30.246  54.307  41.144  1.00  0.00     0.211 HD
ENDBRANCH  13  21
ENDBRANCH   1  13
BRANCH   8  23
HETATM   23  C   UNL     1      28.292  47.973  40.855  1.00  0.00     0.278 C 
BRANCH  23  24
HETATM   24  C   UNL     1      28.356  46.574  40.321  1.00  0.00     0.028 A 
HETATM   25  C   UNL     1      29.234  46.185  39.300  1.00  0.00     0.045 A 
HETATM   26 CL   UNL     1      30.364  47.308  38.631  1.00  0.00    -0.084 Cl
HETATM   27  C   UNL     1      29.234  44.876  38.814  1.00  0.00     0.024 A 
HETATM   28  C   UNL     1      28.350  43.934  39.346  1.00  0.00     0.005 A 
HETATM   29  C   UNL     1      27.476  44.302  40.364  1.00  0.00     0.043 A 
HETATM   30  C   UNL     1      27.487  45.609  40.839  1.00  0.00     0.126 A 
HETATM   31  F   UNL     1      26.655  45.947  41.833  1.00  0.00    -0.205 F 
ENDBRANCH  23  24
ENDBRANCH   8  23
TORSDOF 4
ENDMDL
MODEL 10
REMARK VINA RESULT:      -7.4     12.531     13.600
REMARK  4 active torsions:
REMARK  status: ('A' for Active; 'I' for Inactive)
REMARK    1  A    between atoms: C_6  and  O_7 
REMARK    2  A    between atoms: C_6  and  C_8 
REMARK    3  A    between atoms: N_15  and  C_17 
REMARK    4  A    between atoms: C_17  and  C_18 
ROOT
HETATM    1  C   UNL     1      28.834  48.140  39.829  1.00  0.00    -0.023 A 
HETATM    2  C   UNL     1      29.901  49.033  39.566  1.00  0.00     0.022 A 
HETATM    3  C   UNL     1      29.842  50.395  39.914  1.00  0.00     0.002 A 
HETATM    4  C   UNL     1      28.705  50.861  40.569  1.00  0.00     0.076 A 
HETATM    5  O   UNL     1      28.592  52.170  40.941  1.00  0.00    -0.349 OA
HETATM    6  C   UNL     1      29.490  52.487  42.014  1.00  0.00     0.203 C 
HETATM    7  C   UNL     1      30.826  53.009  41.478  1.00  0.00     0.262 C 
HETATM    8  N   UNL     1      31.661  51.944  40.782  1.00  0.00    -0.061 N 
HETATM    9  H   UNL     1      32.462  52.452  40.383  1.00  0.00     0.280 HD
HETATM   10  C   UNL     1      30.967  51.337  39.586  1.00  0.00     0.276 C 
HETATM   11  C   UNL     1      27.636  50.014  40.835  1.00  0.00     0.038 A 
HETATM   12  C   UNL     1      27.707  48.662  40.484  1.00  0.00     0.013 A 
ENDROOT
BRANCH   1  13
HETATM   13  C   UNL     1      28.980  46.652  39.483  1.00  0.00     0.088 C 
HETATM   14  C   UNL     1      28.950  46.364  37.967  1.00  0.00     0.070 C 
HETATM   15  C   UNL     1      27.551  46.463  37.388  1.00  0.00     0.237 C 
HETATM   16  N   UNL     1      26.648  45.488  38.096  1.00  0.00    -0.075 N 
HETATM   17  C   UNL     1      25.269  45.465  37.484  1.00  0.00     0.269 C 
HETATM   18  H   UNL     1      27.030  44.541  37.946  1.00  0.00     0.279 HD
HETATM   19  C   UNL     1      26.596  45.728  39.582  1.00  0.00     0.237 C 
HETATM   20  C   UNL     1      28.002  45.674  40.166  1.00  0.00     0.070 C 
BRANCH  13  21
HETATM   21  O   UNL     1      30.299  46.303  39.925  1.00  0.00    -0.385 OA
HETATM   22  H   UNL     1      30.230  45.579  40.574  1.00  0.00     0.211 HD
ENDBRANCH  13  21
ENDBRANCH   1  13
BRANCH   8  23
HETATM   23  C   UNL     1      32.275  50.902  41.694  1.00  0.00     0.278 C 
BRANCH  23  24
HETATM   24  C   UNL     1      33.599  51.289  42.282  1.00  0.00     0.028 A 
HETATM   25  C   UNL     1      33.743  51.762  43.593  1.00  0.00     0.045 A 
HETATM   26 CL   UNL     1      32.381  51.866  44.650  1.00  0.00    -0.084 Cl
HETATM   27  C   UNL     1      34.995  52.140  44.084  1.00  0.00     0.024 A 
HETATM   28  C   UNL     1      36.123  52.049  43.267  1.00  0.00     0.005 A 
HETATM   29  C   UNL     1      35.998  51.575  41.964  1.00  0.00     0.043 A 
HETATM   30  C   UNL     1      34.746  51.202  41.488  1.00  0.00     0.126 A 
HETATM   31  F   UNL     1      34.641  50.727  40.239  1.00  0.00    -0.205 F 
ENDBRANCH  23  24
ENDBRANCH   8  23
TORSDOF 4
ENDMDL
