MODEL 1
REMARK VINA RESULT:      -8.5      0.000      0.000
REMARK  4 active torsions:
REMARK  status: ('A' for Active; 'I' for Inactive)
REMARK    1  A    between atoms: C_2  and  O_3 
REMARK    2  A    between atoms: C_2  and  C_12 
REMARK    3  A    between atoms: O_3  and  C_4 
REMARK       I    between atoms: C_12  and  N_13 
REMARK    4  A    between atoms: N_13  and  C_14 
ROOT
HETATM    1  C   UNL     1      25.341  44.476  54.091  1.00  0.00     0.050 C 
HETATM    2  C   UNL     1      26.447  45.523  54.176  1.00  0.00     0.217 C 
ENDROOT
BRANCH   2   3
HETATM    3  O   UNL     1      27.664  44.969  53.664  1.00  0.00    -0.336 OA
BRANCH   3   4
HETATM    4  C   UNL     1      28.731  44.779  54.500  1.00  0.00     0.087 A 
HETATM    5  C   UNL     1      29.509  43.628  54.272  1.00  0.00     0.047 A 
HETATM    6 BR   UNL     1      29.104  42.434  52.847  1.00  0.00    -0.048 Br
HETATM    7  C   UNL     1      30.607  43.332  55.080  1.00  0.00     0.064 A 
HETATM    8  C   UNL     1      30.927  44.189  56.124  1.00  0.00     0.117 A 
HETATM    9  F   UNL     1      31.978  43.911  56.905  1.00  0.00    -0.206 F 
HETATM   10  C   UNL     1      30.171  45.327  56.372  1.00  0.00     0.045 A 
HETATM   11  C   UNL     1      29.070  45.622  55.563  1.00  0.00     0.041 A 
ENDBRANCH   3   4
ENDBRANCH   2   3
BRANCH   2  12
HETATM   12  C   UNL     1      26.037  46.734  53.314  1.00  0.00     0.252 C 
HETATM   13  N   UNL     1      26.060  46.455  51.961  1.00  0.00    -0.309 N 
HETATM   14  H   UNL     1      26.385  45.528  51.709  1.00  0.00     0.170 HD
HETATM   15  O   UNL     1      25.719  47.793  53.849  1.00  0.00    -0.270 OA
BRANCH  13  16
HETATM   16  C   UNL     1      25.707  47.328  50.931  1.00  0.00     0.129 A 
HETATM   17  N   UNL     1      24.416  47.545  50.623  1.00  0.00    -0.242 NA
HETATM   18  C   UNL     1      24.141  48.400  49.608  1.00  0.00     0.142 A 
HETATM   19  C   UNL     1      25.111  49.057  48.873  1.00  0.00     0.051 A 
HETATM   20 CL   UNL     1      24.689  50.126  47.599  1.00  0.00    -0.083 Cl
HETATM   21  C   UNL     1      26.441  48.828  49.196  1.00  0.00     0.029 A 
HETATM   22  C   UNL     1      26.744  47.950  50.239  1.00  0.00     0.052 A 
ENDBRANCH  13  16
ENDBRANCH   2  12
TORSDOF 4
ENDMDL
MODEL 2
REMARK VINA RESULT:      -7.9      2.202      2.782
REMARK  4 active torsions:
REMARK  status: ('A' for Active; 'I' for Inactive)
REMARK    1  A    between atoms: C_2  and  O_3 
REMARK    2  A    between atoms: C_2  and  C_12 
REMARK    3  A    between atoms: O_3  and  C_4 
REMARK       I    between atoms: C_12  and  N_13 
REMARK    4  A    between atoms: N_13  and  C_14 
ROOT
HETATM    1  C   UNL     1      28.192  42.036  52.884  1.00  0.00     0.050 C 
HETATM    2  C   UNL     1      27.876  43.165  53.858  1.00  0.00     0.217 C 
ENDROOT
BRANCH   2   3
HETATM    3  O   UNL     1      28.995  44.055  53.931  1.00  0.00    -0.336 OA
BRANCH   3   4
HETATM    4  C   UNL     1      29.708  44.159  55.094  1.00  0.00     0.087 A 
HETATM    5  C   UNL     1      29.506  45.330  55.850  1.00  0.00     0.047 A 
HETATM    6 BR   UNL     1      28.272  46.664  55.286  1.00  0.00    -0.048 Br
HETATM    7  C   UNL     1      30.199  45.543  57.042  1.00  0.00     0.064 A 
HETATM    8  C   UNL     1      31.101  44.584  57.479  1.00  0.00     0.117 A 
HETATM    9  F   UNL     1      31.772  44.782  58.621  1.00  0.00    -0.206 F 
HETATM   10  C   UNL     1      31.322  43.425  56.748  1.00  0.00     0.045 A 
HETATM   11  C   UNL     1      30.629  43.212  55.553  1.00  0.00     0.041 A 
ENDBRANCH   3   4
ENDBRANCH   2   3
BRANCH   2  12
HETATM   12  C   UNL     1      26.647  43.933  53.330  1.00  0.00     0.252 C 
HETATM   13  N   UNL     1      26.876  44.518  52.099  1.00  0.00    -0.309 N 
HETATM   14  H   UNL     1      27.815  44.414  51.731  1.00  0.00     0.170 HD
HETATM   15  O   UNL     1      25.608  43.960  53.984  1.00  0.00    -0.270 OA
BRANCH  13  16
HETATM   16  C   UNL     1      25.954  45.245  51.345  1.00  0.00     0.129 A 
HETATM   17  N   UNL     1      25.020  44.621  50.606  1.00  0.00    -0.242 NA
HETATM   18  C   UNL     1      24.159  45.385  49.894  1.00  0.00     0.142 A 
HETATM   19  C   UNL     1      24.187  46.768  49.882  1.00  0.00     0.051 A 
HETATM   20 CL   UNL     1      23.064  47.672  48.954  1.00  0.00    -0.083 Cl
HETATM   21  C   UNL     1      25.152  47.406  50.647  1.00  0.00     0.029 A 
HETATM   22  C   UNL     1      26.050  46.635  51.389  1.00  0.00     0.052 A 
ENDBRANCH  13  16
ENDBRANCH   2  12
TORSDOF 4
ENDMDL
MODEL 3
REMARK VINA RESULT:      -7.8      1.352      1.697
REMARK  4 active torsions:
REMARK  status: ('A' for Active; 'I' for Inactive)
REMARK    1  A    between atoms: C_2  and  O_3 
REMARK    2  A    between atoms: C_2  and  C_12 
REMARK    3  A    between atoms: O_3  and  C_4 
REMARK       I    between atoms: C_12  and  N_13 
REMARK    4  A    between atoms: N_13  and  C_14 
ROOT
HETATM    1  C   UNL     1      26.142  43.916  54.662  1.00  0.00     0.050 C 
HETATM    2  C   UNL     1      26.775  45.303  54.625  1.00  0.00     0.217 C 
ENDROOT
BRANCH   2   3
HETATM    3  O   UNL     1      28.122  45.197  54.151  1.00  0.00    -0.336 OA
BRANCH   3   4
HETATM    4  C   UNL     1      29.125  44.864  55.019  1.00  0.00     0.087 A 
HETATM    5  C   UNL     1      29.852  43.695  54.720  1.00  0.00     0.047 A 
HETATM    6 BR   UNL     1      29.468  42.672  53.162  1.00  0.00    -0.048 Br
HETATM    7  C   UNL     1      30.882  43.257  55.552  1.00  0.00     0.064 A 
HETATM    8  C   UNL     1      31.186  43.988  56.691  1.00  0.00     0.117 A 
HETATM    9  F   UNL     1      32.172  43.573  57.496  1.00  0.00    -0.206 F 
HETATM   10  C   UNL     1      30.480  45.139  57.011  1.00  0.00     0.045 A 
HETATM   11  C   UNL     1      29.447  45.578  56.179  1.00  0.00     0.041 A 
ENDBRANCH   3   4
ENDBRANCH   2   3
BRANCH   2  12
HETATM   12  C   UNL     1      25.961  46.183  53.654  1.00  0.00     0.252 C 
HETATM   13  N   UNL     1      25.737  45.564  52.438  1.00  0.00    -0.309 N 
HETATM   14  H   UNL     1      26.170  44.655  52.322  1.00  0.00     0.170 HD
HETATM   15  O   UNL     1      25.573  47.294  54.005  1.00  0.00    -0.270 OA
BRANCH  13  16
HETATM   16  C   UNL     1      25.006  46.083  51.369  1.00  0.00     0.129 A 
HETATM   17  N   UNL     1      24.983  47.405  51.125  1.00  0.00    -0.242 NA
HETATM   18  C   UNL     1      24.248  47.844  50.076  1.00  0.00     0.142 A 
HETATM   19  C   UNL     1      23.522  47.012  49.244  1.00  0.00     0.051 A 
HETATM   20 CL   UNL     1      22.612  47.639  47.932  1.00  0.00    -0.083 Cl
HETATM   21  C   UNL     1      23.549  45.649  49.501  1.00  0.00     0.029 A 
HETATM   22  C   UNL     1      24.301  45.176  50.579  1.00  0.00     0.052 A 
ENDBRANCH  13  16
ENDBRANCH   2  12
TORSDOF 4
ENDMDL
MODEL 4
REMARK VINA RESULT:      -7.7      3.809      4.151
REMARK  4 active torsions:
REMARK  status: ('A' for Active; 'I' for Inactive)
REMARK    1  A    between atoms: C_2  and  O_3 
REMARK    2  A    between atoms: C_2  and  C_12 
REMARK    3  A    between atoms: O_3  and  C_4 
REMARK       I    between atoms: C_12  and  N_13 
REMARK    4  A    between atoms: N_13  and  C_14 
ROOT
HETATM    1  C   UNL     1      28.142  41.776  53.604  1.00  0.00     0.050 C 
HETATM    2  C   UNL     1      27.767  43.239  53.811  1.00  0.00     0.217 C 
ENDROOT
BRANCH   2   3
HETATM    3  O   UNL     1      28.959  44.033  53.852  1.00  0.00    -0.336 OA
BRANCH   3   4
HETATM    4  C   UNL     1      29.659  44.151  55.020  1.00  0.00     0.087 A 
HETATM    5  C   UNL     1      29.428  45.317  55.775  1.00  0.00     0.047 A 
HETATM    6 BR   UNL     1      28.172  46.626  55.201  1.00  0.00    -0.048 Br
HETATM    7  C   UNL     1      30.106  45.543  56.973  1.00  0.00     0.064 A 
HETATM    8  C   UNL     1      31.023  44.603  57.418  1.00  0.00     0.117 A 
HETATM    9  F   UNL     1      31.680  44.813  58.565  1.00  0.00    -0.206 F 
HETATM   10  C   UNL     1      31.273  43.448  56.688  1.00  0.00     0.045 A 
HETATM   11  C   UNL     1      30.595  43.222  55.487  1.00  0.00     0.041 A 
ENDBRANCH   3   4
ENDBRANCH   2   3
BRANCH   2  12
HETATM   12  C   UNL     1      26.895  43.691  52.622  1.00  0.00     0.252 C 
HETATM   13  N   UNL     1      26.161  42.654  52.078  1.00  0.00    -0.309 N 
HETATM   14  H   UNL     1      26.325  41.740  52.485  1.00  0.00     0.170 HD
HETATM   15  O   UNL     1      26.893  44.867  52.269  1.00  0.00    -0.270 OA
BRANCH  13  16
HETATM   16  C   UNL     1      25.254  42.748  51.022  1.00  0.00     0.129 A 
HETATM   17  N   UNL     1      24.004  43.200  51.223  1.00  0.00    -0.242 NA
HETATM   18  C   UNL     1      23.172  43.262  50.157  1.00  0.00     0.142 A 
HETATM   19  C   UNL     1      23.534  42.885  48.876  1.00  0.00     0.051 A 
HETATM   20 CL   UNL     1      22.426  42.989  47.571  1.00  0.00    -0.083 Cl
HETATM   21  C   UNL     1      24.825  42.420  48.674  1.00  0.00     0.029 A 
HETATM   22  C   UNL     1      25.699  42.349  49.762  1.00  0.00     0.052 A 
ENDBRANCH  13  16
ENDBRANCH   2  12
TORSDOF 4
ENDMDL
MODEL 5
REMARK VINA RESULT:      -7.5      3.486      3.956
REMARK  4 active torsions:
REMARK  status: ('A' for Active; 'I' for Inactive)
REMARK    1  A    between atoms: C_2  and  O_3 
REMARK    2  A    between atoms: C_2  and  C_12 
REMARK    3  A    between atoms: O_3  and  C_4 
REMARK       I    between atoms: C_12  and  N_13 
REMARK    4  A    between atoms: N_13  and  C_14 
ROOT
HETATM    1  C   UNL     1      26.101  43.761  54.836  1.00  0.00     0.050 C 
HETATM    2  C   UNL     1      26.453  44.873  53.855  1.00  0.00     0.217 C 
ENDROOT
BRANCH   2   3
HETATM    3  O   UNL     1      27.835  44.768  53.495  1.00  0.00    -0.336 OA
BRANCH   3   4
HETATM    4  C   UNL     1      28.789  44.686  54.472  1.00  0.00     0.087 A 
HETATM    5  C   UNL     1      29.648  43.572  54.417  1.00  0.00     0.047 A 
HETATM    6 BR   UNL     1      29.499  42.283  53.025  1.00  0.00    -0.048 Br
HETATM    7  C   UNL     1      30.642  43.384  55.377  1.00  0.00     0.064 A 
HETATM    8  C   UNL     1      30.777  44.311  56.400  1.00  0.00     0.117 A 
HETATM    9  F   UNL     1      31.727  44.137  57.327  1.00  0.00    -0.206 F 
HETATM   10  C   UNL     1      29.937  45.415  56.479  1.00  0.00     0.045 A 
HETATM   11  C   UNL     1      28.940  45.602  55.518  1.00  0.00     0.041 A 
ENDBRANCH   3   4
ENDBRANCH   2   3
BRANCH   2  12
HETATM   12  C   UNL     1      25.583  44.701  52.592  1.00  0.00     0.252 C 
HETATM   13  N   UNL     1      25.529  43.390  52.160  1.00  0.00    -0.309 N 
HETATM   14  H   UNL     1      26.095  42.731  52.683  1.00  0.00     0.170 HD
HETATM   15  O   UNL     1      25.017  45.671  52.096  1.00  0.00    -0.270 OA
BRANCH  13  16
HETATM   16  C   UNL     1      24.798  42.908  51.073  1.00  0.00     0.129 A 
HETATM   17  N   UNL     1      23.522  43.282  50.878  1.00  0.00    -0.242 NA
HETATM   18  C   UNL     1      22.868  42.773  49.807  1.00  0.00     0.142 A 
HETATM   19  C   UNL     1      23.437  41.892  48.906  1.00  0.00     0.051 A 
HETATM   20 CL   UNL     1      22.547  41.286  47.571  1.00  0.00    -0.083 Cl
HETATM   21  C   UNL     1      24.754  41.509  49.113  1.00  0.00     0.029 A 
HETATM   22  C   UNL     1      25.446  42.023  50.212  1.00  0.00     0.052 A 
ENDBRANCH  13  16
ENDBRANCH   2  12
TORSDOF 4
ENDMDL
MODEL 6
REMARK VINA RESULT:      -7.3      2.308      2.845
REMARK  4 active torsions:
REMARK  status: ('A' for Active; 'I' for Inactive)
REMARK    1  A    between atoms: C_2  and  O_3 
REMARK    2  A    between atoms: C_2  and  C_12 
REMARK    3  A    between atoms: O_3  and  C_4 
REMARK       I    between atoms: C_12  and  N_13 
REMARK    4  A    between atoms: N_13  and  C_14 
ROOT
HETATM    1  C   UNL     1      26.841  42.428  51.179  1.00  0.00     0.050 C 
HETATM    2  C   UNL     1      26.612  43.462  52.275  1.00  0.00     0.217 C 
ENDROOT
BRANCH   2   3
HETATM    3  O   UNL     1      27.770  44.298  52.388  1.00  0.00    -0.336 OA
BRANCH   3   4
HETATM    4  C   UNL     1      28.670  44.082  53.395  1.00  0.00     0.087 A 
HETATM    5  C   UNL     1      28.628  44.980  54.478  1.00  0.00     0.047 A 
HETATM    6 BR   UNL     1      27.348  46.388  54.538  1.00  0.00    -0.048 Br
HETATM    7  C   UNL     1      29.516  44.859  55.547  1.00  0.00     0.064 A 
HETATM    8  C   UNL     1      30.455  43.838  55.531  1.00  0.00     0.117 A 
HETATM    9  F   UNL     1      31.313  43.717  56.551  1.00  0.00    -0.206 F 
HETATM   10  C   UNL     1      30.522  42.944  54.471  1.00  0.00     0.045 A 
HETATM   11  C   UNL     1      29.633  43.066  53.400  1.00  0.00     0.041 A 
ENDBRANCH   3   4
ENDBRANCH   2   3
BRANCH   2  12
HETATM   12  C   UNL     1      25.396  44.327  51.883  1.00  0.00     0.252 C 
HETATM   13  N   UNL     1      25.576  44.980  50.679  1.00  0.00    -0.309 N 
HETATM   14  H   UNL     1      26.483  44.854  50.242  1.00  0.00     0.170 HD
HETATM   15  O   UNL     1      24.405  44.362  52.607  1.00  0.00    -0.270 OA
BRANCH  13  16
HETATM   16  C   UNL     1      24.649  45.803  50.038  1.00  0.00     0.129 A 
HETATM   17  N   UNL     1      24.626  47.127  50.269  1.00  0.00    -0.242 NA
HETATM   18  C   UNL     1      23.697  47.869  49.619  1.00  0.00     0.142 A 
HETATM   19  C   UNL     1      22.773  47.341  48.736  1.00  0.00     0.051 A 
HETATM   20 CL   UNL     1      21.623  48.341  47.949  1.00  0.00    -0.083 Cl
HETATM   21  C   UNL     1      22.802  45.973  48.502  1.00  0.00     0.029 A 
HETATM   22  C   UNL     1      23.752  45.192  49.163  1.00  0.00     0.052 A 
ENDBRANCH  13  16
ENDBRANCH   2  12
TORSDOF 4
ENDMDL
MODEL 7
REMARK VINA RESULT:      -7.2      6.357      9.803
REMARK  4 active torsions:
REMARK  status: ('A' for Active; 'I' for Inactive)
REMARK    1  A    between atoms: C_2  and  O_3 
REMARK    2  A    between atoms: C_2  and  C_12 
REMARK    3  A    between atoms: O_3  and  C_4 
REMARK       I    between atoms: C_12  and  N_13 
REMARK    4  A    between atoms: N_13  and  C_14 
ROOT
HETATM    1  C   UNL     1      21.789  47.059  47.681  1.00  0.00     0.050 C 
HETATM    2  C   UNL     1      22.132  48.255  48.562  1.00  0.00     0.217 C 
ENDROOT
BRANCH   2   3
HETATM    3  O   UNL     1      21.024  48.544  49.422  1.00  0.00    -0.336 OA
BRANCH   3   4
HETATM    4  C   UNL     1      20.370  49.740  49.312  1.00  0.00     0.087 A 
HETATM    5  C   UNL     1      19.178  49.872  50.049  1.00  0.00     0.047 A 
HETATM    6 BR   UNL     1      18.549  48.465  51.164  1.00  0.00    -0.048 Br
HETATM    7  C   UNL     1      18.424  51.045  49.991  1.00  0.00     0.064 A 
HETATM    8  C   UNL     1      18.862  52.090  49.190  1.00  0.00     0.117 A 
HETATM    9  F   UNL     1      18.144  53.217  49.126  1.00  0.00    -0.206 F 
HETATM   10  C   UNL     1      20.031  51.980  48.449  1.00  0.00     0.045 A 
HETATM   11  C   UNL     1      20.785  50.805  48.505  1.00  0.00     0.041 A 
ENDBRANCH   3   4
ENDBRANCH   2   3
BRANCH   2  12
HETATM   12  C   UNL     1      23.361  47.891  49.420  1.00  0.00     0.252 C 
HETATM   13  N   UNL     1      23.566  46.526  49.503  1.00  0.00    -0.309 N 
HETATM   14  H   UNL     1      22.869  45.949  49.044  1.00  0.00     0.170 HD
HETATM   15  O   UNL     1      24.046  48.776  49.926  1.00  0.00    -0.270 OA
BRANCH  13  16
HETATM   16  C   UNL     1      24.610  45.886  50.171  1.00  0.00     0.129 A 
HETATM   17  N   UNL     1      24.458  45.450  51.433  1.00  0.00    -0.242 NA
HETATM   18  C   UNL     1      25.512  44.842  52.026  1.00  0.00     0.142 A 
HETATM   19  C   UNL     1      26.734  44.645  51.408  1.00  0.00     0.051 A 
HETATM   20 CL   UNL     1      28.028  43.867  52.222  1.00  0.00    -0.083 Cl
HETATM   21  C   UNL     1      26.885  45.097  50.105  1.00  0.00     0.029 A 
HETATM   22  C   UNL     1      25.809  45.728  49.476  1.00  0.00     0.052 A 
ENDBRANCH  13  16
ENDBRANCH   2  12
TORSDOF 4
ENDMDL
MODEL 8
REMARK VINA RESULT:      -7.1      4.521      5.357
REMARK  4 active torsions:
REMARK  status: ('A' for Active; 'I' for Inactive)
REMARK    1  A    between atoms: C_2  and  O_3 
REMARK    2  A    between atoms: C_2  and  C_12 
REMARK    3  A    between atoms: O_3  and  C_4 
REMARK       I    between atoms: C_12  and  N_13 
REMARK    4  A    between atoms: N_13  and  C_14 
ROOT
HETATM    1  C   UNL     1      25.790  46.331  52.310  1.00  0.00     0.050 C 
HETATM    2  C   UNL     1      26.736  45.145  52.461  1.00  0.00     0.217 C 
ENDROOT
BRANCH   2   3
HETATM    3  O   UNL     1      26.795  44.759  53.839  1.00  0.00    -0.336 OA
BRANCH   3   4
HETATM    4  C   UNL     1      28.003  44.486  54.419  1.00  0.00     0.087 A 
HETATM    5  C   UNL     1      28.569  45.511  55.200  1.00  0.00     0.047 A 
HETATM    6 BR   UNL     1      27.664  47.165  55.457  1.00  0.00    -0.048 Br
HETATM    7  C   UNL     1      29.808  45.341  55.820  1.00  0.00     0.064 A 
HETATM    8  C   UNL     1      30.487  44.143  55.654  1.00  0.00     0.117 A 
HETATM    9  F   UNL     1      31.677  43.973  56.242  1.00  0.00    -0.206 F 
HETATM   10  C   UNL     1      29.952  43.120  54.882  1.00  0.00     0.045 A 
HETATM   11  C   UNL     1      28.712  43.290  54.261  1.00  0.00     0.041 A 
ENDBRANCH   3   4
ENDBRANCH   2   3
BRANCH   2  12
HETATM   12  C   UNL     1      26.184  43.972  51.626  1.00  0.00     0.252 C 
HETATM   13  N   UNL     1      27.179  43.274  50.969  1.00  0.00    -0.309 N 
HETATM   14  H   UNL     1      28.118  43.643  51.075  1.00  0.00     0.170 HD
HETATM   15  O   UNL     1      24.979  43.736  51.613  1.00  0.00    -0.270 OA
BRANCH  13  16
HETATM   16  C   UNL     1      27.006  42.144  50.169  1.00  0.00     0.129 A 
HETATM   17  N   UNL     1      27.115  42.222  48.832  1.00  0.00    -0.242 NA
HETATM   18  C   UNL     1      26.930  41.089  48.112  1.00  0.00     0.142 A 
HETATM   19  C   UNL     1      26.635  39.861  48.676  1.00  0.00     0.051 A 
HETATM   20 CL   UNL     1      26.411  38.466  47.702  1.00  0.00    -0.083 Cl
HETATM   21  C   UNL     1      26.523  39.787  50.056  1.00  0.00     0.029 A 
HETATM   22  C   UNL     1      26.711  40.944  50.815  1.00  0.00     0.052 A 
ENDBRANCH  13  16
ENDBRANCH   2  12
TORSDOF 4
ENDMDL
MODEL 9
REMARK VINA RESULT:      -7.0      3.522      5.117
REMARK  4 active torsions:
REMARK  status: ('A' for Active; 'I' for Inactive)
REMARK    1  A    between atoms: C_2  and  O_3 
REMARK    2  A    between atoms: C_2  and  C_12 
REMARK    3  A    between atoms: O_3  and  C_4 
REMARK       I    between atoms: C_12  and  N_13 
REMARK    4  A    between atoms: N_13  and  C_14 
ROOT
HETATM    1  C   UNL     1      26.645  48.163  49.925  1.00  0.00     0.050 C 
HETATM    2  C   UNL     1      25.218  47.627  49.961  1.00  0.00     0.217 C 
ENDROOT
BRANCH   2   3
HETATM    3  O   UNL     1      24.775  47.551  51.321  1.00  0.00    -0.336 OA
BRANCH   3   4
HETATM    4  C   UNL     1      25.434  46.745  52.209  1.00  0.00     0.087 A 
HETATM    5  C   UNL     1      25.218  45.360  52.078  1.00  0.00     0.047 A 
HETATM    6 BR   UNL     1      24.097  44.665  50.706  1.00  0.00    -0.048 Br
HETATM    7  C   UNL     1      25.827  44.453  52.946  1.00  0.00     0.064 A 
HETATM    8  C   UNL     1      26.653  44.933  53.952  1.00  0.00     0.117 A 
HETATM    9  F   UNL     1      27.240  44.070  54.790  1.00  0.00    -0.206 F 
HETATM   10  C   UNL     1      26.877  46.295  54.105  1.00  0.00     0.045 A 
HETATM   11  C   UNL     1      26.265  47.203  53.237  1.00  0.00     0.041 A 
ENDBRANCH   3   4
ENDBRANCH   2   3
BRANCH   2  12
HETATM   12  C   UNL     1      24.312  48.602  49.184  1.00  0.00     0.252 C 
HETATM   13  N   UNL     1      22.984  48.501  49.553  1.00  0.00    -0.309 N 
HETATM   14  H   UNL     1      22.770  47.780  50.233  1.00  0.00     0.170 HD
HETATM   15  O   UNL     1      24.796  49.369  48.356  1.00  0.00    -0.270 OA
BRANCH  13  16
HETATM   16  C   UNL     1      21.929  49.271  49.061  1.00  0.00     0.129 A 
HETATM   17  N   UNL     1      21.109  48.791  48.110  1.00  0.00    -0.242 NA
HETATM   18  C   UNL     1      20.107  49.591  47.673  1.00  0.00     0.142 A 
HETATM   19  C   UNL     1      19.883  50.871  48.147  1.00  0.00     0.051 A 
HETATM   20 CL   UNL     1      18.594  51.829  47.545  1.00  0.00    -0.083 Cl
HETATM   21  C   UNL     1      20.732  51.360  49.129  1.00  0.00     0.029 A 
HETATM   22  C   UNL     1      21.771  50.550  49.593  1.00  0.00     0.052 A 
ENDBRANCH  13  16
ENDBRANCH   2  12
TORSDOF 4
ENDMDL
MODEL 10
REMARK VINA RESULT:      -6.8      5.571      6.671
REMARK  4 active torsions:
REMARK  status: ('A' for Active; 'I' for Inactive)
REMARK    1  A    between atoms: C_2  and  O_3 
REMARK    2  A    between atoms: C_2  and  C_12 
REMARK    3  A    between atoms: O_3  and  C_4 
REMARK       I    between atoms: C_12  and  N_13 
REMARK    4  A    between atoms: N_13  and  C_14 
ROOT
HETATM    1  C   UNL     1      27.259  43.990  50.891  1.00  0.00     0.050 C 
HETATM    2  C   UNL     1      28.173  43.162  51.787  1.00  0.00     0.217 C 
ENDROOT
BRANCH   2   3
HETATM    3  O   UNL     1      27.735  43.276  53.146  1.00  0.00    -0.336 OA
BRANCH   3   4
HETATM    4  C   UNL     1      28.603  43.715  54.107  1.00  0.00     0.087 A 
HETATM    5  C   UNL     1      28.318  44.966  54.685  1.00  0.00     0.047 A 
HETATM    6 BR   UNL     1      26.778  45.959  54.171  1.00  0.00    -0.048 Br
HETATM    7  C   UNL     1      29.152  45.513  55.661  1.00  0.00     0.064 A 
HETATM    8  C   UNL     1      30.278  44.809  56.058  1.00  0.00     0.117 A 
HETATM    9  F   UNL     1      31.085  45.327  56.992  1.00  0.00    -0.206 F 
HETATM   10  C   UNL     1      30.584  43.575  55.498  1.00  0.00     0.045 A 
HETATM   11  C   UNL     1      29.750  43.028  54.520  1.00  0.00     0.041 A 
ENDBRANCH   3   4
ENDBRANCH   2   3
BRANCH   2  12
HETATM   12  C   UNL     1      28.083  41.687  51.345  1.00  0.00     0.252 C 
HETATM   13  N   UNL     1      27.780  41.553  50.003  1.00  0.00    -0.309 N 
HETATM   14  H   UNL     1      27.607  42.418  49.503  1.00  0.00     0.170 HD
HETATM   15  O   UNL     1      28.291  40.786  52.153  1.00  0.00    -0.270 OA
BRANCH  13  16
HETATM   16  C   UNL     1      27.666  40.355  49.297  1.00  0.00     0.129 A 
HETATM   17  N   UNL     1      26.461  39.840  49.001  1.00  0.00    -0.242 NA
HETATM   18  C   UNL     1      26.420  38.671  48.318  1.00  0.00     0.142 A 
HETATM   19  C   UNL     1      27.547  37.978  47.912  1.00  0.00     0.051 A 
HETATM   20 CL   UNL     1      27.420  36.500  47.051  1.00  0.00    -0.083 Cl
HETATM   21  C   UNL     1      28.788  38.515  48.221  1.00  0.00     0.029 A 
HETATM   22  C   UNL     1      28.850  39.720  48.925  1.00  0.00     0.052 A 
ENDBRANCH  13  16
ENDBRANCH   2  12
TORSDOF 4
ENDMDL
