MODEL 1
REMARK VINA RESULT:     -10.8      0.000      0.000
REMARK  7 active torsions:
REMARK  status: ('A' for Active; 'I' for Inactive)
REMARK    1  A    between atoms: C_3  and  C_4 
REMARK    2  A    between atoms: C_4  and  S_5 
REMARK    3  A    between atoms: S_5  and  C_6 
REMARK    4  A    between atoms: C_6  and  C_7 
REMARK    5  A    between atoms: C_16  and  C_17 
REMARK       I    between atoms: C_17  and  N_18 
REMARK    6  A    between atoms: N_18  and  C_19 
REMARK    7  A    between atoms: C_19  and  C_20 
ROOT
HETATM    1  C   UNL     1      25.853  44.569  51.838  1.00  0.00     0.162 C 
HETATM    2  N   UNL     1      26.723  45.415  50.980  1.00  0.00    -0.277 NA
HETATM    3  C   UNL     1      26.043  46.500  50.390  1.00  0.00     0.036 A 
HETATM    4  C   UNL     1      24.665  46.465  50.134  1.00  0.00     0.057 A 
HETATM    5  N   UNL     1      23.921  45.339  50.504  1.00  0.00    -0.324 N 
HETATM    6  C   UNL     1      24.464  44.303  51.224  1.00  0.00     0.240 C 
HETATM    7  O   UNL     1      23.810  43.284  51.442  1.00  0.00    -0.271 OA
HETATM    8  C   UNL     1      26.785  47.586  49.922  1.00  0.00     0.027 A 
HETATM    9  C   UNL     1      26.153  48.662  49.287  1.00  0.00     0.019 A 
HETATM   10  C   UNL     1      24.769  48.642  49.069  1.00  0.00     0.034 A 
HETATM   11  C   UNL     1      24.030  47.523  49.482  1.00  0.00     0.048 A 
HETATM   12  H   UNL     1      27.165  44.858  50.249  1.00  0.00     0.128 HD
HETATM   13  H   UNL     1      22.960  45.233  50.203  1.00  0.00     0.169 HD
ENDROOT
BRANCH  10  14
HETATM   14  C   UNL     1      24.012  49.777  48.455  1.00  0.00     0.252 C 
HETATM   15  N   UNL     1      22.949  50.298  49.158  1.00  0.00    -0.353 N 
HETATM   16  H   UNL     1      22.809  50.081  50.131  1.00  0.00     0.163 HD
HETATM   17  O   UNL     1      24.342  50.199  47.352  1.00  0.00    -0.268 OA
BRANCH  15  18
HETATM   18  C   UNL     1      22.143  51.366  48.604  1.00  0.00     0.161 C 
BRANCH  18  19
HETATM   19  C   UNL     1      20.679  50.999  48.592  1.00  0.00    -0.040 A 
HETATM   20  C   UNL     1      19.696  51.996  48.519  1.00  0.00     0.010 A 
HETATM   21  C   UNL     1      18.341  51.654  48.471  1.00  0.00     0.024 A 
HETATM   22  C   UNL     1      17.963  50.314  48.492  1.00  0.00     0.034 A 
HETATM   23 CL   UNL     1      16.296  49.895  48.432  1.00  0.00    -0.084 Cl
HETATM   24  C   UNL     1      18.926  49.310  48.552  1.00  0.00     0.024 A 
HETATM   25  C   UNL     1      20.280  49.652  48.594  1.00  0.00     0.010 A 
ENDBRANCH  18  19
ENDBRANCH  15  18
ENDBRANCH  10  14
BRANCH   1  26
HETATM   26  C   UNL     1      26.528  43.231  52.186  1.00  0.00     0.103 C 
BRANCH  26  27
HETATM   27  S   UNL     1      27.251  43.116  53.870  1.00  0.00    -0.162 SA
BRANCH  27  28
HETATM   28  C   UNL     1      28.802  44.030  53.601  1.00  0.00     0.112 C 
BRANCH  28  29
HETATM   29  C   UNL     1      29.586  44.201  54.883  1.00  0.00    -0.043 A 
HETATM   30  C   UNL     1      29.463  45.350  55.695  1.00  0.00    -0.055 A 
HETATM   31  C   UNL     1      28.535  46.481  55.341  1.00  0.00     0.049 C 
HETATM   32  C   UNL     1      30.204  45.431  56.886  1.00  0.00     0.007 A 
HETATM   33  C   UNL     1      31.070  44.405  57.262  1.00  0.00     0.001 A 
HETATM   34  C   UNL     1      31.210  43.283  56.453  1.00  0.00     0.001 A 
HETATM   35  C   UNL     1      30.476  43.183  55.272  1.00  0.00     0.008 A 
ENDBRANCH  28  29
ENDBRANCH  27  28
ENDBRANCH  26  27
ENDBRANCH   1  26
TORSDOF 7
ENDMDL
MODEL 2
REMARK VINA RESULT:     -10.1      4.204     11.034
REMARK  7 active torsions:
REMARK  status: ('A' for Active; 'I' for Inactive)
REMARK    1  A    between atoms: C_3  and  C_4 
REMARK    2  A    between atoms: C_4  and  S_5 
REMARK    3  A    between atoms: S_5  and  C_6 
REMARK    4  A    between atoms: C_6  and  C_7 
REMARK    5  A    between atoms: C_16  and  C_17 
REMARK       I    between atoms: C_17  and  N_18 
REMARK    6  A    between atoms: N_18  and  C_19 
REMARK    7  A    between atoms: C_19  and  C_20 
ROOT
HETATM    1  C   UNL     1      22.373  46.282  48.446  1.00  0.00     0.162 C 
HETATM    2  N   UNL     1      23.321  47.002  49.336  1.00  0.00    -0.277 NA
HETATM    3  C   UNL     1      24.235  46.150  49.989  1.00  0.00     0.036 A 
HETATM    4  C   UNL     1      23.939  44.806  50.258  1.00  0.00     0.057 A 
HETATM    5  N   UNL     1      22.715  44.270  49.840  1.00  0.00    -0.324 N 
HETATM    6  C   UNL     1      21.831  44.977  49.062  1.00  0.00     0.240 C 
HETATM    7  O   UNL     1      20.722  44.512  48.800  1.00  0.00    -0.271 OA
HETATM    8  C   UNL     1      25.414  46.693  50.502  1.00  0.00     0.027 A 
HETATM    9  C   UNL     1      26.326  45.891  51.198  1.00  0.00     0.019 A 
HETATM   10  C   UNL     1      26.045  44.537  51.431  1.00  0.00     0.034 A 
HETATM   11  C   UNL     1      24.831  44.004  50.970  1.00  0.00     0.048 A 
HETATM   12  H   UNL     1      22.818  47.553  50.033  1.00  0.00     0.128 HD
HETATM   13  H   UNL     1      22.422  43.350  50.146  1.00  0.00     0.169 HD
ENDROOT
BRANCH  10  14
HETATM   14  C   UNL     1      26.994  43.601  52.110  1.00  0.00     0.252 C 
HETATM   15  N   UNL     1      28.202  44.105  52.535  1.00  0.00    -0.353 N 
HETATM   16  H   UNL     1      28.367  45.097  52.587  1.00  0.00     0.163 HD
HETATM   17  O   UNL     1      26.684  42.423  52.255  1.00  0.00    -0.268 OA
BRANCH  15  18
HETATM   18  C   UNL     1      29.188  43.246  53.157  1.00  0.00     0.161 C 
BRANCH  18  19
HETATM   19  C   UNL     1      29.666  43.819  54.469  1.00  0.00    -0.040 A 
HETATM   20  C   UNL     1      29.071  44.972  55.001  1.00  0.00     0.010 A 
HETATM   21  C   UNL     1      29.489  45.482  56.234  1.00  0.00     0.024 A 
HETATM   22  C   UNL     1      30.502  44.839  56.943  1.00  0.00     0.034 A 
HETATM   23 CL   UNL     1      31.016  45.468  58.459  1.00  0.00    -0.084 Cl
HETATM   24  C   UNL     1      31.096  43.687  56.435  1.00  0.00     0.024 A 
HETATM   25  C   UNL     1      30.674  43.175  55.206  1.00  0.00     0.010 A 
ENDBRANCH  18  19
ENDBRANCH  15  18
ENDBRANCH  10  14
BRANCH   1  26
HETATM   26  C   UNL     1      21.197  47.180  48.023  1.00  0.00     0.103 C 
BRANCH  26  27
HETATM   27  S   UNL     1      21.609  48.944  47.723  1.00  0.00    -0.162 SA
BRANCH  27  28
HETATM   28  C   UNL     1      21.209  49.635  49.360  1.00  0.00     0.112 C 
BRANCH  28  29
HETATM   29  C   UNL     1      20.017  50.564  49.304  1.00  0.00    -0.043 A 
HETATM   30  C   UNL     1      18.832  50.316  50.030  1.00  0.00    -0.055 A 
HETATM   31  C   UNL     1      18.678  49.109  50.917  1.00  0.00     0.049 C 
HETATM   32  C   UNL     1      17.773  51.236  49.951  1.00  0.00     0.007 A 
HETATM   33  C   UNL     1      17.871  52.373  49.150  1.00  0.00     0.001 A 
HETATM   34  C   UNL     1      19.028  52.609  48.416  1.00  0.00     0.001 A 
HETATM   35  C   UNL     1      20.092  51.710  48.491  1.00  0.00     0.008 A 
ENDBRANCH  28  29
ENDBRANCH  27  28
ENDBRANCH  26  27
ENDBRANCH   1  26
TORSDOF 7
ENDMDL
MODEL 3
REMARK VINA RESULT:      -9.4      2.096      2.914
REMARK  7 active torsions:
REMARK  status: ('A' for Active; 'I' for Inactive)
REMARK    1  A    between atoms: C_3  and  C_4 
REMARK    2  A    between atoms: C_4  and  S_5 
REMARK    3  A    between atoms: S_5  and  C_6 
REMARK    4  A    between atoms: C_6  and  C_7 
REMARK    5  A    between atoms: C_16  and  C_17 
REMARK       I    between atoms: C_17  and  N_18 
REMARK    6  A    between atoms: N_18  and  C_19 
REMARK    7  A    between atoms: C_19  and  C_20 
ROOT
HETATM    1  C   UNL     1      27.413  43.361  51.748  1.00  0.00     0.162 C 
HETATM    2  N   UNL     1      27.146  44.818  51.622  1.00  0.00    -0.277 NA
HETATM    3  C   UNL     1      26.013  45.114  50.838  1.00  0.00     0.036 A 
HETATM    4  C   UNL     1      25.557  44.251  49.831  1.00  0.00     0.057 A 
HETATM    5  N   UNL     1      26.217  43.036  49.610  1.00  0.00    -0.324 N 
HETATM    6  C   UNL     1      27.229  42.591  50.426  1.00  0.00     0.240 C 
HETATM    7  O   UNL     1      27.855  41.570  50.142  1.00  0.00    -0.271 OA
HETATM    8  C   UNL     1      25.406  46.364  50.974  1.00  0.00     0.027 A 
HETATM    9  C   UNL     1      24.308  46.716  50.180  1.00  0.00     0.019 A 
HETATM   10  C   UNL     1      23.830  45.834  49.202  1.00  0.00     0.034 A 
HETATM   11  C   UNL     1      24.478  44.602  49.020  1.00  0.00     0.048 A 
HETATM   12  H   UNL     1      27.957  45.305  51.239  1.00  0.00     0.128 HD
HETATM   13  H   UNL     1      25.997  42.468  48.802  1.00  0.00     0.169 HD
ENDROOT
BRANCH  10  14
HETATM   14  C   UNL     1      22.626  46.109  48.358  1.00  0.00     0.252 C 
HETATM   15  N   UNL     1      21.710  47.025  48.822  1.00  0.00    -0.353 N 
HETATM   16  H   UNL     1      21.929  47.644  49.585  1.00  0.00     0.163 HD
HETATM   17  O   UNL     1      22.479  45.511  47.297  1.00  0.00    -0.268 OA
BRANCH  15  18
HETATM   18  C   UNL     1      20.498  47.306  48.081  1.00  0.00     0.161 C 
BRANCH  18  19
HETATM   19  C   UNL     1      19.886  48.618  48.506  1.00  0.00    -0.040 A 
HETATM   20  C   UNL     1      18.566  48.668  48.979  1.00  0.00     0.010 A 
HETATM   21  C   UNL     1      18.012  49.878  49.408  1.00  0.00     0.024 A 
HETATM   22  C   UNL     1      18.774  51.043  49.369  1.00  0.00     0.034 A 
HETATM   23 CL   UNL     1      18.090  52.530  49.897  1.00  0.00    -0.084 Cl
HETATM   24  C   UNL     1      20.090  51.010  48.914  1.00  0.00     0.024 A 
HETATM   25  C   UNL     1      20.645  49.800  48.491  1.00  0.00     0.010 A 
ENDBRANCH  18  19
ENDBRANCH  15  18
ENDBRANCH  10  14
BRANCH   1  26
HETATM   26  C   UNL     1      28.818  43.089  52.313  1.00  0.00     0.103 C 
BRANCH  26  27
HETATM   27  S   UNL     1      28.878  42.459  54.036  1.00  0.00    -0.162 SA
BRANCH  27  28
HETATM   28  C   UNL     1      30.428  43.235  54.593  1.00  0.00     0.112 C 
BRANCH  28  29
HETATM   29  C   UNL     1      30.196  44.207  55.728  1.00  0.00    -0.043 A 
HETATM   30  C   UNL     1      30.949  44.166  56.922  1.00  0.00    -0.055 A 
HETATM   31  C   UNL     1      32.040  43.153  57.143  1.00  0.00     0.049 C 
HETATM   32  C   UNL     1      30.696  45.117  57.925  1.00  0.00     0.007 A 
HETATM   33  C   UNL     1      29.701  46.081  57.764  1.00  0.00     0.001 A 
HETATM   34  C   UNL     1      28.944  46.109  56.599  1.00  0.00     0.001 A 
HETATM   35  C   UNL     1      29.187  45.179  55.590  1.00  0.00     0.008 A 
ENDBRANCH  28  29
ENDBRANCH  27  28
ENDBRANCH  26  27
ENDBRANCH   1  26
TORSDOF 7
ENDMDL
MODEL 4
REMARK VINA RESULT:      -9.4      4.232     11.480
REMARK  7 active torsions:
REMARK  status: ('A' for Active; 'I' for Inactive)
REMARK    1  A    between atoms: C_3  and  C_4 
REMARK    2  A    between atoms: C_4  and  S_5 
REMARK    3  A    between atoms: S_5  and  C_6 
REMARK    4  A    between atoms: C_6  and  C_7 
REMARK    5  A    between atoms: C_16  and  C_17 
REMARK       I    between atoms: C_17  and  N_18 
REMARK    6  A    between atoms: N_18  and  C_19 
REMARK    7  A    between atoms: C_19  and  C_20 
ROOT
HETATM    1  C   UNL     1      22.266  46.255  48.367  1.00  0.00     0.162 C 
HETATM    2  N   UNL     1      23.050  46.927  49.436  1.00  0.00    -0.277 NA
HETATM    3  C   UNL     1      24.028  46.096  50.021  1.00  0.00     0.036 A 
HETATM    4  C   UNL     1      23.899  44.700  50.049  1.00  0.00     0.057 A 
HETATM    5  N   UNL     1      22.787  44.096  49.450  1.00  0.00    -0.324 N 
HETATM    6  C   UNL     1      21.866  44.809  48.722  1.00  0.00     0.240 C 
HETATM    7  O   UNL     1      20.849  44.262  48.298  1.00  0.00    -0.271 OA
HETATM    8  C   UNL     1      25.089  46.686  50.711  1.00  0.00     0.027 A 
HETATM    9  C   UNL     1      26.055  45.896  51.345  1.00  0.00     0.019 A 
HETATM   10  C   UNL     1      25.944  44.499  51.337  1.00  0.00     0.034 A 
HETATM   11  C   UNL     1      24.845  43.906  50.698  1.00  0.00     0.048 A 
HETATM   12  H   UNL     1      22.436  47.287  50.166  1.00  0.00     0.128 HD
HETATM   13  H   UNL     1      22.603  43.109  49.582  1.00  0.00     0.169 HD
ENDROOT
BRANCH  10  14
HETATM   14  C   UNL     1      26.966  43.586  51.938  1.00  0.00     0.252 C 
HETATM   15  N   UNL     1      28.044  44.156  52.577  1.00  0.00    -0.353 N 
HETATM   16  H   UNL     1      28.049  45.133  52.823  1.00  0.00     0.163 HD
HETATM   17  O   UNL     1      26.829  42.372  51.834  1.00  0.00    -0.268 OA
BRANCH  15  18
HETATM   18  C   UNL     1      29.094  43.334  53.139  1.00  0.00     0.161 C 
BRANCH  18  19
HETATM   19  C   UNL     1      29.558  43.871  54.472  1.00  0.00    -0.040 A 
HETATM   20  C   UNL     1      30.600  43.243  55.168  1.00  0.00     0.010 A 
HETATM   21  C   UNL     1      31.054  43.762  56.385  1.00  0.00     0.024 A 
HETATM   22  C   UNL     1      30.469  44.913  56.910  1.00  0.00     0.034 A 
HETATM   23 CL   UNL     1      31.028  45.550  58.407  1.00  0.00    -0.084 Cl
HETATM   24  C   UNL     1      29.441  45.556  56.226  1.00  0.00     0.024 A 
HETATM   25  C   UNL     1      28.992  45.041  55.007  1.00  0.00     0.010 A 
ENDBRANCH  18  19
ENDBRANCH  15  18
ENDBRANCH  10  14
BRANCH   1  26
HETATM   26  C   UNL     1      21.009  47.060  47.994  1.00  0.00     0.103 C 
BRANCH  26  27
HETATM   27  S   UNL     1      20.841  48.699  48.806  1.00  0.00    -0.162 SA
BRANCH  27  28
HETATM   28  C   UNL     1      20.031  49.624  47.463  1.00  0.00     0.112 C 
BRANCH  28  29
HETATM   29  C   UNL     1      18.606  49.991  47.810  1.00  0.00    -0.043 A 
HETATM   30  C   UNL     1      18.258  51.257  48.330  1.00  0.00    -0.055 A 
HETATM   31  C   UNL     1      19.286  52.331  48.567  1.00  0.00     0.049 C 
HETATM   32  C   UNL     1      16.910  51.538  48.607  1.00  0.00     0.007 A 
HETATM   33  C   UNL     1      15.920  50.579  48.396  1.00  0.00     0.001 A 
HETATM   34  C   UNL     1      16.262  49.324  47.906  1.00  0.00     0.001 A 
HETATM   35  C   UNL     1      17.595  49.032  47.617  1.00  0.00     0.008 A 
ENDBRANCH  28  29
ENDBRANCH  27  28
ENDBRANCH  26  27
ENDBRANCH   1  26
TORSDOF 7
ENDMDL
MODEL 5
REMARK VINA RESULT:      -9.3      1.972      2.566
REMARK  7 active torsions:
REMARK  status: ('A' for Active; 'I' for Inactive)
REMARK    1  A    between atoms: C_3  and  C_4 
REMARK    2  A    between atoms: C_4  and  S_5 
REMARK    3  A    between atoms: S_5  and  C_6 
REMARK    4  A    between atoms: C_6  and  C_7 
REMARK    5  A    between atoms: C_16  and  C_17 
REMARK       I    between atoms: C_17  and  N_18 
REMARK    6  A    between atoms: N_18  and  C_19 
REMARK    7  A    between atoms: C_19  and  C_20 
ROOT
HETATM    1  C   UNL     1      27.043  42.948  51.764  1.00  0.00     0.162 C 
HETATM    2  N   UNL     1      27.112  44.316  52.341  1.00  0.00    -0.277 NA
HETATM    3  C   UNL     1      26.338  45.262  51.639  1.00  0.00     0.036 A 
HETATM    4  C   UNL     1      26.038  45.115  50.277  1.00  0.00     0.057 A 
HETATM    5  N   UNL     1      26.485  43.980  49.589  1.00  0.00    -0.324 N 
HETATM    6  C   UNL     1      27.108  42.934  50.223  1.00  0.00     0.240 C 
HETATM    7  O   UNL     1      27.578  42.001  49.573  1.00  0.00    -0.271 OA
HETATM    8  C   UNL     1      25.973  46.446  52.282  1.00  0.00     0.027 A 
HETATM    9  C   UNL     1      25.244  47.431  51.605  1.00  0.00     0.019 A 
HETATM   10  C   UNL     1      24.912  47.263  50.254  1.00  0.00     0.034 A 
HETATM   11  C   UNL     1      25.332  46.101  49.588  1.00  0.00     0.048 A 
HETATM   12  H   UNL     1      28.078  44.642  52.390  1.00  0.00     0.128 HD
HETATM   13  H   UNL     1      26.404  43.923  48.581  1.00  0.00     0.169 HD
ENDROOT
BRANCH  10  14
HETATM   14  C   UNL     1      24.084  48.239  49.479  1.00  0.00     0.252 C 
HETATM   15  N   UNL     1      22.720  48.214  49.660  1.00  0.00    -0.353 N 
HETATM   16  H   UNL     1      22.304  47.717  50.431  1.00  0.00     0.163 HD
HETATM   17  O   UNL     1      24.631  49.014  48.701  1.00  0.00    -0.268 OA
BRANCH  15  18
HETATM   18  C   UNL     1      21.854  49.098  48.908  1.00  0.00     0.161 C 
BRANCH  18  19
HETATM   19  C   UNL     1      20.743  48.332  48.232  1.00  0.00    -0.040 A 
HETATM   20  C   UNL     1      20.806  46.936  48.120  1.00  0.00     0.010 A 
HETATM   21  C   UNL     1      19.760  46.223  47.526  1.00  0.00     0.024 A 
HETATM   22  C   UNL     1      18.643  46.904  47.044  1.00  0.00     0.034 A 
HETATM   23 CL   UNL     1      17.357  46.026  46.314  1.00  0.00    -0.084 Cl
HETATM   24  C   UNL     1      18.559  48.289  47.157  1.00  0.00     0.024 A 
HETATM   25  C   UNL     1      19.602  48.999  47.756  1.00  0.00     0.010 A 
ENDBRANCH  18  19
ENDBRANCH  15  18
ENDBRANCH  10  14
BRANCH   1  26
HETATM   26  C   UNL     1      28.141  42.035  52.335  1.00  0.00     0.103 C 
BRANCH  26  27
HETATM   27  S   UNL     1      28.492  42.233  54.126  1.00  0.00    -0.162 SA
BRANCH  27  28
HETATM   28  C   UNL     1      29.899  43.386  54.036  1.00  0.00     0.112 C 
BRANCH  28  29
HETATM   29  C   UNL     1      30.263  43.939  55.396  1.00  0.00    -0.043 A 
HETATM   30  C   UNL     1      29.736  45.156  55.881  1.00  0.00    -0.055 A 
HETATM   31  C   UNL     1      28.769  45.983  55.076  1.00  0.00     0.049 C 
HETATM   32  C   UNL     1      30.099  45.598  57.164  1.00  0.00     0.007 A 
HETATM   33  C   UNL     1      30.985  44.862  57.951  1.00  0.00     0.001 A 
HETATM   34  C   UNL     1      31.522  43.675  57.467  1.00  0.00     0.001 A 
HETATM   35  C   UNL     1      31.166  43.218  56.199  1.00  0.00     0.008 A 
ENDBRANCH  28  29
ENDBRANCH  27  28
ENDBRANCH  26  27
ENDBRANCH   1  26
TORSDOF 7
ENDMDL
MODEL 6
REMARK VINA RESULT:      -9.1      6.581     10.031
REMARK  7 active torsions:
REMARK  status: ('A' for Active; 'I' for Inactive)
REMARK    1  A    between atoms: C_3  and  C_4 
REMARK    2  A    between atoms: C_4  and  S_5 
REMARK    3  A    between atoms: S_5  and  C_6 
REMARK    4  A    between atoms: C_6  and  C_7 
REMARK    5  A    between atoms: C_16  and  C_17 
REMARK       I    between atoms: C_17  and  N_18 
REMARK    6  A    between atoms: N_18  and  C_19 
REMARK    7  A    between atoms: C_19  and  C_20 
ROOT
HETATM    1  C   UNL     1      26.550  44.157  52.046  1.00  0.00     0.162 C 
HETATM    2  N   UNL     1      27.525  43.077  52.349  1.00  0.00    -0.277 NA
HETATM    3  C   UNL     1      27.394  41.951  51.511  1.00  0.00     0.036 A 
HETATM    4  C   UNL     1      26.177  41.616  50.899  1.00  0.00     0.057 A 
HETATM    5  N   UNL     1      25.058  42.435  51.089  1.00  0.00    -0.324 N 
HETATM    6  C   UNL     1      25.129  43.633  51.758  1.00  0.00     0.240 C 
HETATM    7  O   UNL     1      24.107  44.276  51.995  1.00  0.00    -0.271 OA
HETATM    8  C   UNL     1      28.469  41.069  51.394  1.00  0.00     0.027 A 
HETATM    9  C   UNL     1      28.364  39.914  50.608  1.00  0.00     0.019 A 
HETATM   10  C   UNL     1      27.158  39.603  49.966  1.00  0.00     0.034 A 
HETATM   11  C   UNL     1      26.056  40.456  50.133  1.00  0.00     0.048 A 
HETATM   12  H   UNL     1      27.448  42.781  53.323  1.00  0.00     0.128 HD
HETATM   13  H   UNL     1      24.142  42.138  50.777  1.00  0.00     0.169 HD
ENDROOT
BRANCH  10  14
HETATM   14  C   UNL     1      26.984  38.424  49.061  1.00  0.00     0.252 C 
HETATM   15  N   UNL     1      27.111  38.627  47.706  1.00  0.00    -0.353 N 
HETATM   16  H   UNL     1      27.513  39.475  47.339  1.00  0.00     0.163 HD
HETATM   17  O   UNL     1      26.720  37.326  49.540  1.00  0.00    -0.268 OA
BRANCH  15  18
HETATM   18  C   UNL     1      26.909  37.542  46.769  1.00  0.00     0.161 C 
BRANCH  18  19
HETATM   19  C   UNL     1      27.969  37.540  45.694  1.00  0.00    -0.040 A 
HETATM   20  C   UNL     1      29.089  36.703  45.802  1.00  0.00     0.010 A 
HETATM   21  C   UNL     1      30.053  36.674  44.789  1.00  0.00     0.024 A 
HETATM   22  C   UNL     1      29.899  37.478  43.662  1.00  0.00     0.034 A 
HETATM   23 CL   UNL     1      31.084  37.441  42.416  1.00  0.00    -0.084 Cl
HETATM   24  C   UNL     1      28.787  38.306  43.533  1.00  0.00     0.024 A 
HETATM   25  C   UNL     1      27.822  38.330  44.543  1.00  0.00     0.010 A 
ENDBRANCH  18  19
ENDBRANCH  15  18
ENDBRANCH  10  14
BRANCH   1  26
HETATM   26  C   UNL     1      26.495  45.205  53.171  1.00  0.00     0.103 C 
BRANCH  26  27
HETATM   27  S   UNL     1      27.150  44.663  54.799  1.00  0.00    -0.162 SA
BRANCH  27  28
HETATM   28  C   UNL     1      28.709  45.603  54.830  1.00  0.00     0.112 C 
BRANCH  28  29
HETATM   29  C   UNL     1      29.677  45.056  55.856  1.00  0.00    -0.043 A 
HETATM   30  C   UNL     1      30.466  43.911  55.613  1.00  0.00    -0.055 A 
HETATM   31  C   UNL     1      30.401  43.159  54.310  1.00  0.00     0.049 C 
HETATM   32  C   UNL     1      31.362  43.473  56.602  1.00  0.00     0.007 A 
HETATM   33  C   UNL     1      31.465  44.141  57.822  1.00  0.00     0.001 A 
HETATM   34  C   UNL     1      30.673  45.255  58.072  1.00  0.00     0.001 A 
HETATM   35  C   UNL     1      29.784  45.708  57.098  1.00  0.00     0.008 A 
ENDBRANCH  28  29
ENDBRANCH  27  28
ENDBRANCH  26  27
ENDBRANCH   1  26
TORSDOF 7
ENDMDL
MODEL 7
REMARK VINA RESULT:      -9.0      3.978     11.316
REMARK  7 active torsions:
REMARK  status: ('A' for Active; 'I' for Inactive)
REMARK    1  A    between atoms: C_3  and  C_4 
REMARK    2  A    between atoms: C_4  and  S_5 
REMARK    3  A    between atoms: S_5  and  C_6 
REMARK    4  A    between atoms: C_6  and  C_7 
REMARK    5  A    between atoms: C_16  and  C_17 
REMARK       I    between atoms: C_17  and  N_18 
REMARK    6  A    between atoms: N_18  and  C_19 
REMARK    7  A    between atoms: C_19  and  C_20 
ROOT
HETATM    1  C   UNL     1      22.217  48.503  48.895  1.00  0.00     0.162 C 
HETATM    2  N   UNL     1      22.009  47.126  48.376  1.00  0.00    -0.277 NA
HETATM    3  C   UNL     1      22.799  46.156  49.024  1.00  0.00     0.036 A 
HETATM    4  C   UNL     1      24.024  46.476  49.628  1.00  0.00     0.057 A 
HETATM    5  N   UNL     1      24.472  47.802  49.624  1.00  0.00    -0.324 N 
HETATM    6  C   UNL     1      23.699  48.837  49.157  1.00  0.00     0.240 C 
HETATM    7  O   UNL     1      24.164  49.974  49.075  1.00  0.00    -0.271 OA
HETATM    8  C   UNL     1      22.419  44.815  48.948  1.00  0.00     0.027 A 
HETATM    9  C   UNL     1      23.201  43.816  49.538  1.00  0.00     0.019 A 
HETATM   10  C   UNL     1      24.406  44.144  50.175  1.00  0.00     0.034 A 
HETATM   11  C   UNL     1      24.822  45.484  50.199  1.00  0.00     0.048 A 
HETATM   12  H   UNL     1      22.184  47.086  47.371  1.00  0.00     0.128 HD
HETATM   13  H   UNL     1      25.411  48.031  49.924  1.00  0.00     0.169 HD
ENDROOT
BRANCH  10  14
HETATM   14  C   UNL     1      25.266  43.144  50.882  1.00  0.00     0.252 C 
HETATM   15  N   UNL     1      26.192  43.615  51.785  1.00  0.00    -0.353 N 
HETATM   16  H   UNL     1      26.160  44.563  52.122  1.00  0.00     0.163 HD
HETATM   17  O   UNL     1      25.137  41.950  50.633  1.00  0.00    -0.268 OA
BRANCH  15  18
HETATM   18  C   UNL     1      27.090  42.709  52.470  1.00  0.00     0.161 C 
BRANCH  18  19
HETATM   19  C   UNL     1      27.921  43.434  53.501  1.00  0.00    -0.040 A 
HETATM   20  C   UNL     1      29.104  42.862  53.991  1.00  0.00     0.010 A 
HETATM   21  C   UNL     1      29.892  43.550  54.919  1.00  0.00     0.024 A 
HETATM   22  C   UNL     1      29.503  44.814  55.358  1.00  0.00     0.034 A 
HETATM   23 CL   UNL     1      30.474  45.658  56.500  1.00  0.00    -0.084 Cl
HETATM   24  C   UNL     1      28.337  45.401  54.874  1.00  0.00     0.024 A 
HETATM   25  C   UNL     1      27.553  44.716  53.942  1.00  0.00     0.010 A 
ENDBRANCH  18  19
ENDBRANCH  15  18
ENDBRANCH  10  14
BRANCH   1  26
HETATM   26  C   UNL     1      21.608  49.561  47.959  1.00  0.00     0.103 C 
BRANCH  26  27
HETATM   27  S   UNL     1      20.923  51.054  48.780  1.00  0.00    -0.162 SA
BRANCH  27  28
HETATM   28  C   UNL     1      19.623  50.278  49.792  1.00  0.00     0.112 C 
BRANCH  28  29
HETATM   29  C   UNL     1      18.254  50.835  49.474  1.00  0.00    -0.043 A 
HETATM   30  C   UNL     1      17.311  50.122  48.702  1.00  0.00    -0.055 A 
HETATM   31  C   UNL     1      17.604  48.753  48.148  1.00  0.00     0.049 C 
HETATM   32  C   UNL     1      16.047  50.690  48.466  1.00  0.00     0.007 A 
HETATM   33  C   UNL     1      15.724  51.951  48.966  1.00  0.00     0.001 A 
HETATM   34  C   UNL     1      16.659  52.664  49.707  1.00  0.00     0.001 A 
HETATM   35  C   UNL     1      17.914  52.112  49.958  1.00  0.00     0.008 A 
ENDBRANCH  28  29
ENDBRANCH  27  28
ENDBRANCH  26  27
ENDBRANCH   1  26
TORSDOF 7
ENDMDL
MODEL 8
REMARK VINA RESULT:      -8.9     12.454     16.292
REMARK  7 active torsions:
REMARK  status: ('A' for Active; 'I' for Inactive)
REMARK    1  A    between atoms: C_3  and  C_4 
REMARK    2  A    between atoms: C_4  and  S_5 
REMARK    3  A    between atoms: S_5  and  C_6 
REMARK    4  A    between atoms: C_6  and  C_7 
REMARK    5  A    between atoms: C_16  and  C_17 
REMARK       I    between atoms: C_17  and  N_18 
REMARK    6  A    between atoms: N_18  and  C_19 
REMARK    7  A    between atoms: C_19  and  C_20 
ROOT
HETATM    1  C   UNL     1      30.980  49.095  41.591  1.00  0.00     0.162 C 
HETATM    2  N   UNL     1      31.308  49.781  42.868  1.00  0.00    -0.277 NA
HETATM    3  C   UNL     1      32.579  50.391  42.867  1.00  0.00     0.036 A 
HETATM    4  C   UNL     1      33.626  49.930  42.056  1.00  0.00     0.057 A 
HETATM    5  N   UNL     1      33.406  48.854  41.188  1.00  0.00    -0.324 N 
HETATM    6  C   UNL     1      32.163  48.299  41.005  1.00  0.00     0.240 C 
HETATM    7  O   UNL     1      32.026  47.290  40.314  1.00  0.00    -0.271 OA
HETATM    8  C   UNL     1      32.845  51.396  43.798  1.00  0.00     0.027 A 
HETATM    9  C   UNL     1      34.109  51.995  43.862  1.00  0.00     0.019 A 
HETATM   10  C   UNL     1      35.142  51.559  43.021  1.00  0.00     0.034 A 
HETATM   11  C   UNL     1      34.894  50.505  42.127  1.00  0.00     0.048 A 
HETATM   12  H   UNL     1      31.247  49.133  43.654  1.00  0.00     0.128 HD
HETATM   13  H   UNL     1      34.179  48.416  40.702  1.00  0.00     0.169 HD
ENDROOT
BRANCH  10  14
HETATM   14  C   UNL     1      36.498  52.188  42.985  1.00  0.00     0.252 C 
HETATM   15  N   UNL     1      36.597  53.526  43.291  1.00  0.00    -0.353 N 
HETATM   16  H   UNL     1      35.836  54.020  43.727  1.00  0.00     0.163 HD
HETATM   17  O   UNL     1      37.472  51.510  42.672  1.00  0.00    -0.268 OA
BRANCH  15  18
HETATM   18  C   UNL     1      37.871  54.211  43.230  1.00  0.00     0.161 C 
BRANCH  18  19
HETATM   19  C   UNL     1      38.557  54.216  44.574  1.00  0.00    -0.040 A 
HETATM   20  C   UNL     1      37.842  54.540  45.736  1.00  0.00     0.010 A 
HETATM   21  C   UNL     1      38.469  54.509  46.986  1.00  0.00     0.024 A 
HETATM   22  C   UNL     1      39.812  54.150  47.080  1.00  0.00     0.034 A 
HETATM   23 CL   UNL     1      40.582  54.111  48.618  1.00  0.00    -0.084 Cl
HETATM   24  C   UNL     1      40.534  53.814  45.937  1.00  0.00     0.024 A 
HETATM   25  C   UNL     1      39.905  53.839  44.690  1.00  0.00     0.010 A 
ENDBRANCH  18  19
ENDBRANCH  15  18
ENDBRANCH  10  14
BRANCH   1  26
HETATM   26  C   UNL     1      29.759  48.171  41.739  1.00  0.00     0.103 C 
BRANCH  26  27
HETATM   27  S   UNL     1      28.280  48.637  40.755  1.00  0.00    -0.162 SA
BRANCH  27  28
HETATM   28  C   UNL     1      27.983  50.305  41.421  1.00  0.00     0.112 C 
BRANCH  28  29
HETATM   29  C   UNL     1      28.330  51.383  40.418  1.00  0.00    -0.043 A 
HETATM   30  C   UNL     1      29.109  52.510  40.762  1.00  0.00    -0.055 A 
HETATM   31  C   UNL     1      29.651  52.711  42.152  1.00  0.00     0.049 C 
HETATM   32  C   UNL     1      29.414  53.460  39.773  1.00  0.00     0.007 A 
HETATM   33  C   UNL     1      28.942  53.314  38.469  1.00  0.00     0.001 A 
HETATM   34  C   UNL     1      28.157  52.217  38.134  1.00  0.00     0.001 A 
HETATM   35  C   UNL     1      27.852  51.260  39.101  1.00  0.00     0.008 A 
ENDBRANCH  28  29
ENDBRANCH  27  28
ENDBRANCH  26  27
ENDBRANCH   1  26
TORSDOF 7
ENDMDL
MODEL 9
REMARK VINA RESULT:      -8.7      2.551      3.230
REMARK  7 active torsions:
REMARK  status: ('A' for Active; 'I' for Inactive)
REMARK    1  A    between atoms: C_3  and  C_4 
REMARK    2  A    between atoms: C_4  and  S_5 
REMARK    3  A    between atoms: S_5  and  C_6 
REMARK    4  A    between atoms: C_6  and  C_7 
REMARK    5  A    between atoms: C_16  and  C_17 
REMARK       I    between atoms: C_17  and  N_18 
REMARK    6  A    between atoms: N_18  and  C_19 
REMARK    7  A    between atoms: C_19  and  C_20 
ROOT
HETATM    1  C   UNL     1      26.508  41.726  51.147  1.00  0.00     0.162 C 
HETATM    2  N   UNL     1      26.544  43.175  50.821  1.00  0.00    -0.277 NA
HETATM    3  C   UNL     1      25.368  43.641  50.200  1.00  0.00     0.036 A 
HETATM    4  C   UNL     1      24.539  42.797  49.447  1.00  0.00     0.057 A 
HETATM    5  N   UNL     1      24.859  41.439  49.329  1.00  0.00    -0.324 N 
HETATM    6  C   UNL     1      25.894  40.864  50.025  1.00  0.00     0.240 C 
HETATM    7  O   UNL     1      26.210  39.694  49.819  1.00  0.00    -0.271 OA
HETATM    8  C   UNL     1      25.090  45.009  50.222  1.00  0.00     0.027 A 
HETATM    9  C   UNL     1      23.956  45.518  49.576  1.00  0.00     0.019 A 
HETATM   10  C   UNL     1      23.108  44.664  48.857  1.00  0.00     0.034 A 
HETATM   11  C   UNL     1      23.420  43.298  48.782  1.00  0.00     0.048 A 
HETATM   12  H   UNL     1      27.346  43.395  50.230  1.00  0.00     0.128 HD
HETATM   13  H   UNL     1      24.360  40.846  48.678  1.00  0.00     0.169 HD
ENDROOT
BRANCH  10  14
HETATM   14  C   UNL     1      21.847  45.120  48.194  1.00  0.00     0.252 C 
HETATM   15  N   UNL     1      21.875  46.312  47.507  1.00  0.00    -0.353 N 
HETATM   16  H   UNL     1      22.745  46.761  47.272  1.00  0.00     0.163 HD
HETATM   17  O   UNL     1      20.832  44.439  48.290  1.00  0.00    -0.268 OA
BRANCH  15  18
HETATM   18  C   UNL     1      20.680  46.838  46.881  1.00  0.00     0.161 C 
BRANCH  18  19
HETATM   19  C   UNL     1      20.305  48.183  47.455  1.00  0.00    -0.040 A 
HETATM   20  C   UNL     1      19.464  49.051  46.744  1.00  0.00     0.010 A 
HETATM   21  C   UNL     1      19.088  50.281  47.292  1.00  0.00     0.024 A 
HETATM   22  C   UNL     1      19.548  50.648  48.554  1.00  0.00     0.034 A 
HETATM   23 CL   UNL     1      19.084  52.162  49.227  1.00  0.00    -0.084 Cl
HETATM   24  C   UNL     1      20.375  49.794  49.279  1.00  0.00     0.024 A 
HETATM   25  C   UNL     1      20.745  48.562  48.734  1.00  0.00     0.010 A 
ENDBRANCH  18  19
ENDBRANCH  15  18
ENDBRANCH  10  14
BRANCH   1  26
HETATM   26  C   UNL     1      27.904  41.188  51.505  1.00  0.00     0.103 C 
BRANCH  26  27
HETATM   27  S   UNL     1      28.478  41.533  53.214  1.00  0.00    -0.162 SA
BRANCH  27  28
HETATM   28  C   UNL     1      28.861  43.306  53.058  1.00  0.00     0.112 C 
BRANCH  28  29
HETATM   29  C   UNL     1      29.432  43.875  54.337  1.00  0.00    -0.043 A 
HETATM   30  C   UNL     1      28.880  45.011  54.970  1.00  0.00    -0.055 A 
HETATM   31  C   UNL     1      27.679  45.729  54.414  1.00  0.00     0.049 C 
HETATM   32  C   UNL     1      29.447  45.471  56.170  1.00  0.00     0.007 A 
HETATM   33  C   UNL     1      30.554  44.835  56.729  1.00  0.00     0.001 A 
HETATM   34  C   UNL     1      31.113  43.730  56.097  1.00  0.00     0.001 A 
HETATM   35  C   UNL     1      30.558  43.255  54.909  1.00  0.00     0.008 A 
ENDBRANCH  28  29
ENDBRANCH  27  28
ENDBRANCH  26  27
ENDBRANCH   1  26
TORSDOF 7
ENDMDL
MODEL 10
REMARK VINA RESULT:      -8.5      2.174      3.144
REMARK  7 active torsions:
REMARK  status: ('A' for Active; 'I' for Inactive)
REMARK    1  A    between atoms: C_3  and  C_4 
REMARK    2  A    between atoms: C_4  and  S_5 
REMARK    3  A    between atoms: S_5  and  C_6 
REMARK    4  A    between atoms: C_6  and  C_7 
REMARK    5  A    between atoms: C_16  and  C_17 
REMARK       I    between atoms: C_17  and  N_18 
REMARK    6  A    between atoms: N_18  and  C_19 
REMARK    7  A    between atoms: C_19  and  C_20 
ROOT
HETATM    1  C   UNL     1      24.066  44.786  49.896  1.00  0.00     0.162 C 
HETATM    2  N   UNL     1      24.565  46.101  49.415  1.00  0.00    -0.277 NA
HETATM    3  C   UNL     1      23.546  47.060  49.244  1.00  0.00     0.036 A 
HETATM    4  C   UNL     1      22.219  46.696  48.972  1.00  0.00     0.057 A 
HETATM    5  N   UNL     1      21.874  45.341  48.898  1.00  0.00    -0.324 N 
HETATM    6  C   UNL     1      22.762  44.339  49.205  1.00  0.00     0.240 C 
HETATM    7  O   UNL     1      22.456  43.160  49.030  1.00  0.00    -0.271 OA
HETATM    8  C   UNL     1      23.891  48.412  49.212  1.00  0.00     0.027 A 
HETATM    9  C   UNL     1      22.915  49.393  48.998  1.00  0.00     0.019 A 
HETATM   10  C   UNL     1      21.582  49.027  48.765  1.00  0.00     0.034 A 
HETATM   11  C   UNL     1      21.244  47.666  48.735  1.00  0.00     0.048 A 
HETATM   12  H   UNL     1      25.078  45.997  48.539  1.00  0.00     0.128 HD
HETATM   13  H   UNL     1      20.961  45.058  48.564  1.00  0.00     0.169 HD
ENDROOT
BRANCH  10  14
HETATM   14  C   UNL     1      20.473  50.016  48.590  1.00  0.00     0.252 C 
HETATM   15  N   UNL     1      19.373  49.902  49.410  1.00  0.00    -0.353 N 
HETATM   16  H   UNL     1      19.391  49.322  50.233  1.00  0.00     0.163 HD
HETATM   17  O   UNL     1      20.562  50.880  47.724  1.00  0.00    -0.268 OA
BRANCH  15  18
HETATM   18  C   UNL     1      18.242  50.793  49.265  1.00  0.00     0.161 C 
BRANCH  18  19
HETATM   19  C   UNL     1      17.137  50.153  48.460  1.00  0.00    -0.040 A 
HETATM   20  C   UNL     1      16.324  50.930  47.622  1.00  0.00     0.010 A 
HETATM   21  C   UNL     1      15.325  50.332  46.848  1.00  0.00     0.024 A 
HETATM   22  C   UNL     1      15.136  48.952  46.906  1.00  0.00     0.034 A 
HETATM   23 CL   UNL     1      13.907  48.218  45.954  1.00  0.00    -0.084 Cl
HETATM   24  C   UNL     1      15.941  48.164  47.723  1.00  0.00     0.024 A 
HETATM   25  C   UNL     1      16.944  48.762  48.491  1.00  0.00     0.010 A 
ENDBRANCH  18  19
ENDBRANCH  15  18
ENDBRANCH  10  14
BRANCH   1  26
HETATM   26  C   UNL     1      25.131  43.686  49.748  1.00  0.00     0.103 C 
BRANCH  26  27
HETATM   27  S   UNL     1      25.916  43.121  51.309  1.00  0.00    -0.162 SA
BRANCH  27  28
HETATM   28  C   UNL     1      27.370  44.217  51.335  1.00  0.00     0.112 C 
BRANCH  28  29
HETATM   29  C   UNL     1      28.279  43.919  52.506  1.00  0.00    -0.043 A 
HETATM   30  C   UNL     1      28.151  44.581  53.747  1.00  0.00    -0.055 A 
HETATM   31  C   UNL     1      27.093  45.624  53.989  1.00  0.00     0.049 C 
HETATM   32  C   UNL     1      29.016  44.237  54.800  1.00  0.00     0.007 A 
HETATM   33  C   UNL     1      30.006  43.271  54.627  1.00  0.00     0.001 A 
HETATM   34  C   UNL     1      30.149  42.634  53.400  1.00  0.00     0.001 A 
HETATM   35  C   UNL     1      29.294  42.958  52.347  1.00  0.00     0.008 A 
ENDBRANCH  28  29
ENDBRANCH  27  28
ENDBRANCH  26  27
ENDBRANCH   1  26
TORSDOF 7
ENDMDL
