MODEL 1
REMARK VINA RESULT:     -10.5      0.000      0.000
REMARK  5 active torsions:
REMARK  status: ('A' for Active; 'I' for Inactive)
REMARK    1  A    between atoms: C_2  and  C_3 
REMARK    2  A    between atoms: N_4  and  C_6 
REMARK    3  A    between atoms: C_6  and  C_7 
REMARK    4  A    between atoms: N_14  and  C_16 
REMARK    5  A    between atoms: C_16  and  C_17 
ROOT
HETATM    1  C   UNL     1      26.412  45.899  50.585  1.00  0.00    -0.032 A 
HETATM    2  C   UNL     1      26.415  45.420  51.914  1.00  0.00     0.020 A 
HETATM    3  C   UNL     1      26.590  44.049  52.202  1.00  0.00     0.002 A 
HETATM    4  C   UNL     1      26.749  43.164  51.134  1.00  0.00     0.076 A 
HETATM    5  O   UNL     1      26.864  41.820  51.344  1.00  0.00    -0.349 OA
HETATM    6  C   UNL     1      28.136  41.475  51.907  1.00  0.00     0.203 C 
HETATM    7  C   UNL     1      28.072  41.474  53.435  1.00  0.00     0.262 C 
HETATM    8  N   UNL     1      27.910  42.868  54.033  1.00  0.00    -0.061 N 
HETATM    9  H   UNL     1      27.814  42.697  55.043  1.00  0.00     0.280 HD
HETATM   10  C   UNL     1      26.610  43.532  53.618  1.00  0.00     0.276 C 
HETATM   11  C   UNL     1      26.742  43.614  49.819  1.00  0.00     0.038 A 
HETATM   12  C   UNL     1      26.603  44.975  49.547  1.00  0.00     0.011 A 
ENDROOT
BRANCH   1  13
HETATM   13  C   UNL     1      26.263  47.377  50.285  1.00  0.00     0.274 C 
BRANCH  13  14
HETATM   14  N   UNL     1      25.143  47.799  49.357  1.00  0.00    -0.053 N 
HETATM   15  C   UNL     1      25.169  49.273  48.885  1.00  0.00     0.279 C 
HETATM   16  C   UNL     1      23.933  49.688  48.041  1.00  0.00     0.248 C 
HETATM   17  N   UNL     1      22.793  48.940  48.164  1.00  0.00    -0.358 N 
HETATM   18  O   UNL     1      23.926  50.693  47.338  1.00  0.00    -0.271 OA
HETATM   19  C   UNL     1      22.741  47.614  48.740  1.00  0.00     0.150 C 
HETATM   20  H   UNL     1      22.028  49.250  47.564  1.00  0.00     0.162 HD
HETATM   21  C   UNL     1      23.755  47.433  49.871  1.00  0.00     0.256 C 
HETATM   22  H   UNL     1      25.261  47.238  48.504  1.00  0.00     0.281 HD
BRANCH  15  23
HETATM   23  C   UNL     1      26.463  49.590  48.112  1.00  0.00     0.038 C 
HETATM   24  C   UNL     1      27.589  50.173  48.961  1.00  0.00     0.007 C 
ENDBRANCH  15  23
ENDBRANCH  13  14
ENDBRANCH   1  13
BRANCH   8  25
HETATM   25  C   UNL     1      29.103  43.785  53.893  1.00  0.00     0.274 C 
BRANCH  25  26
HETATM   26  C   UNL     1      29.807  44.105  55.183  1.00  0.00    -0.029 A 
HETATM   27  C   UNL     1      30.766  43.230  55.715  1.00  0.00     0.054 A 
HETATM   28  C   UNL     1      31.401  43.536  56.919  1.00  0.00     0.155 A 
HETATM   29  F   UNL     1      32.312  42.684  57.405  1.00  0.00    -0.203 F 
HETATM   30  C   UNL     1      31.094  44.704  57.603  1.00  0.00     0.154 A 
HETATM   31  F   UNL     1      31.703  44.994  58.759  1.00  0.00    -0.203 F 
HETATM   32  C   UNL     1      30.145  45.582  57.092  1.00  0.00     0.046 A 
HETATM   33  C   UNL     1      29.502  45.286  55.887  1.00  0.00     0.012 A 
ENDBRANCH  25  26
ENDBRANCH   8  25
TORSDOF 5
ENDMDL
MODEL 2
REMARK VINA RESULT:     -10.1      0.990      1.922
REMARK  5 active torsions:
REMARK  status: ('A' for Active; 'I' for Inactive)
REMARK    1  A    between atoms: C_2  and  C_3 
REMARK    2  A    between atoms: N_4  and  C_6 
REMARK    3  A    between atoms: C_6  and  C_7 
REMARK    4  A    between atoms: N_14  and  C_16 
REMARK    5  A    between atoms: C_16  and  C_17 
ROOT
HETATM    1  C   UNL     1      25.385  45.674  51.054  1.00  0.00    -0.032 A 
HETATM    2  C   UNL     1      25.643  45.035  52.287  1.00  0.00     0.020 A 
HETATM    3  C   UNL     1      26.230  43.752  52.343  1.00  0.00     0.002 A 
HETATM    4  C   UNL     1      26.542  43.115  51.141  1.00  0.00     0.076 A 
HETATM    5  O   UNL     1      27.058  41.851  51.126  1.00  0.00    -0.349 OA
HETATM    6  C   UNL     1      28.420  41.825  51.572  1.00  0.00     0.203 C 
HETATM    7  C   UNL     1      28.494  41.589  53.080  1.00  0.00     0.262 C 
HETATM    8  N   UNL     1      27.990  42.771  53.902  1.00  0.00    -0.061 N 
HETATM    9  H   UNL     1      28.038  42.439  54.874  1.00  0.00     0.280 HD
HETATM   10  C   UNL     1      26.523  43.069  53.655  1.00  0.00     0.276 C 
HETATM   11  C   UNL     1      26.290  43.724  49.916  1.00  0.00     0.038 A 
HETATM   12  C   UNL     1      25.742  45.006  49.874  1.00  0.00     0.011 A 
ENDROOT
BRANCH   1  13
HETATM   13  C   UNL     1      24.790  47.067  51.003  1.00  0.00     0.274 C 
BRANCH  13  14
HETATM   14  N   UNL     1      25.520  48.117  50.193  1.00  0.00    -0.053 N 
HETATM   15  C   UNL     1      24.778  48.649  48.943  1.00  0.00     0.279 C 
HETATM   16  C   UNL     1      25.620  49.627  48.077  1.00  0.00     0.248 C 
HETATM   17  N   UNL     1      26.983  49.582  48.202  1.00  0.00    -0.358 N 
HETATM   18  O   UNL     1      25.112  50.371  47.246  1.00  0.00    -0.271 OA
HETATM   19  C   UNL     1      27.685  48.956  49.300  1.00  0.00     0.150 C 
HETATM   20  H   UNL     1      27.473  50.267  47.626  1.00  0.00     0.162 HD
HETATM   21  C   UNL     1      26.949  47.724  49.832  1.00  0.00     0.256 C 
HETATM   22  H   UNL     1      25.622  48.929  50.814  1.00  0.00     0.281 HD
BRANCH  15  23
HETATM   23  C   UNL     1      23.439  49.306  49.325  1.00  0.00     0.038 C 
HETATM   24  C   UNL     1      22.204  48.628  48.739  1.00  0.00     0.007 C 
ENDBRANCH  15  23
ENDBRANCH  13  14
ENDBRANCH   1  13
BRANCH   8  25
HETATM   25  C   UNL     1      28.852  44.013  53.860  1.00  0.00     0.274 C 
BRANCH  25  26
HETATM   26  C   UNL     1      29.609  44.297  55.129  1.00  0.00    -0.029 A 
HETATM   27  C   UNL     1      30.653  43.457  55.546  1.00  0.00     0.054 A 
HETATM   28  C   UNL     1      31.338  43.728  56.731  1.00  0.00     0.155 A 
HETATM   29  F   UNL     1      32.329  42.911  57.106  1.00  0.00    -0.203 F 
HETATM   30  C   UNL     1      30.996  44.825  57.510  1.00  0.00     0.154 A 
HETATM   31  F   UNL     1      31.653  45.081  58.647  1.00  0.00    -0.203 F 
HETATM   32  C   UNL     1      29.963  45.667  57.113  1.00  0.00     0.046 A 
HETATM   33  C   UNL     1      29.270  45.406  55.928  1.00  0.00     0.012 A 
ENDBRANCH  25  26
ENDBRANCH   8  25
TORSDOF 5
ENDMDL
MODEL 3
REMARK VINA RESULT:      -9.4      1.045      1.175
REMARK  5 active torsions:
REMARK  status: ('A' for Active; 'I' for Inactive)
REMARK    1  A    between atoms: C_2  and  C_3 
REMARK    2  A    between atoms: N_4  and  C_6 
REMARK    3  A    between atoms: C_6  and  C_7 
REMARK    4  A    between atoms: N_14  and  C_16 
REMARK    5  A    between atoms: C_16  and  C_17 
ROOT
HETATM    1  C   UNL     1      25.772  45.941  50.485  1.00  0.00    -0.032 A 
HETATM    2  C   UNL     1      25.781  45.417  51.797  1.00  0.00     0.020 A 
HETATM    3  C   UNL     1      26.276  44.124  52.071  1.00  0.00     0.002 A 
HETATM    4  C   UNL     1      26.749  43.358  51.003  1.00  0.00     0.076 A 
HETATM    5  O   UNL     1      27.186  42.078  51.192  1.00  0.00    -0.349 OA
HETATM    6  C   UNL     1      28.450  42.042  51.868  1.00  0.00     0.203 C 
HETATM    7  C   UNL     1      28.256  41.953  53.381  1.00  0.00     0.262 C 
HETATM    8  N   UNL     1      27.690  43.232  53.993  1.00  0.00    -0.061 N 
HETATM    9  H   UNL     1      27.555  42.995  54.984  1.00  0.00     0.280 HD
HETATM   10  C   UNL     1      26.305  43.563  53.470  1.00  0.00     0.276 C 
HETATM   11  C   UNL     1      26.741  43.851  49.703  1.00  0.00     0.038 A 
HETATM   12  C   UNL     1      26.282  45.144  49.450  1.00  0.00     0.011 A 
ENDROOT
BRANCH   1  13
HETATM   13  C   UNL     1      25.274  47.345  50.206  1.00  0.00     0.274 C 
BRANCH  13  14
HETATM   14  N   UNL     1      24.180  47.514  49.174  1.00  0.00    -0.053 N 
HETATM   15  C   UNL     1      23.363  48.825  49.256  1.00  0.00     0.279 C 
HETATM   16  C   UNL     1      22.173  48.892  48.260  1.00  0.00     0.248 C 
HETATM   17  N   UNL     1      21.685  47.713  47.764  1.00  0.00    -0.358 N 
HETATM   18  O   UNL     1      21.618  49.947  47.969  1.00  0.00    -0.271 OA
HETATM   19  C   UNL     1      22.388  46.450  47.816  1.00  0.00     0.150 C 
HETATM   20  H   UNL     1      20.922  47.829  47.097  1.00  0.00     0.162 HD
HETATM   21  C   UNL     1      23.244  46.313  49.077  1.00  0.00     0.256 C 
HETATM   22  H   UNL     1      24.656  47.546  48.263  1.00  0.00     0.281 HD
BRANCH  15  23
HETATM   23  C   UNL     1      24.267  50.059  49.077  1.00  0.00     0.038 C 
HETATM   24  C   UNL     1      25.106  50.057  47.803  1.00  0.00     0.007 C 
ENDBRANCH  15  23
ENDBRANCH  13  14
ENDBRANCH   1  13
BRANCH   8  25
HETATM   25  C   UNL     1      28.617  44.427  53.988  1.00  0.00     0.274 C 
BRANCH  25  26
HETATM   26  C   UNL     1      29.424  44.603  55.244  1.00  0.00    -0.029 A 
HETATM   27  C   UNL     1      30.463  43.714  55.562  1.00  0.00     0.054 A 
HETATM   28  C   UNL     1      31.195  43.885  56.737  1.00  0.00     0.155 A 
HETATM   29  F   UNL     1      32.180  43.024  57.016  1.00  0.00    -0.203 F 
HETATM   30  C   UNL     1      30.906  44.929  57.605  1.00  0.00     0.154 A 
HETATM   31  F   UNL     1      31.608  45.089  58.732  1.00  0.00    -0.203 F 
HETATM   32  C   UNL     1      29.879  45.818  57.308  1.00  0.00     0.046 A 
HETATM   33  C   UNL     1      29.139  45.657  56.132  1.00  0.00     0.012 A 
ENDBRANCH  25  26
ENDBRANCH   8  25
TORSDOF 5
ENDMDL
MODEL 4
REMARK VINA RESULT:      -9.1      3.685      6.688
REMARK  5 active torsions:
REMARK  status: ('A' for Active; 'I' for Inactive)
REMARK    1  A    between atoms: C_2  and  C_3 
REMARK    2  A    between atoms: N_4  and  C_6 
REMARK    3  A    between atoms: C_6  and  C_7 
REMARK    4  A    between atoms: N_14  and  C_16 
REMARK    5  A    between atoms: C_16  and  C_17 
ROOT
HETATM    1  C   UNL     1      26.531  42.305  49.603  1.00  0.00    -0.032 A 
HETATM    2  C   UNL     1      27.173  43.407  50.211  1.00  0.00     0.020 A 
HETATM    3  C   UNL     1      26.556  44.136  51.251  1.00  0.00     0.002 A 
HETATM    4  C   UNL     1      25.278  43.751  51.661  1.00  0.00     0.076 A 
HETATM    5  O   UNL     1      24.605  44.451  52.620  1.00  0.00    -0.349 OA
HETATM    6  C   UNL     1      25.162  44.240  53.924  1.00  0.00     0.203 C 
HETATM    7  C   UNL     1      26.229  45.288  54.237  1.00  0.00     0.262 C 
HETATM    8  N   UNL     1      27.496  45.128  53.401  1.00  0.00    -0.061 N 
HETATM    9  H   UNL     1      28.077  45.931  53.672  1.00  0.00     0.280 HD
HETATM   10  C   UNL     1      27.240  45.304  51.916  1.00  0.00     0.276 C 
HETATM   11  C   UNL     1      24.627  42.674  51.071  1.00  0.00     0.038 A 
HETATM   12  C   UNL     1      25.260  41.939  50.068  1.00  0.00     0.011 A 
ENDROOT
BRANCH   1  13
HETATM   13  C   UNL     1      27.216  41.503  48.514  1.00  0.00     0.274 C 
BRANCH  13  14
HETATM   14  N   UNL     1      27.687  40.106  48.857  1.00  0.00    -0.053 N 
HETATM   15  C   UNL     1      26.653  38.971  48.661  1.00  0.00     0.279 C 
HETATM   16  C   UNL     1      27.142  37.579  49.147  1.00  0.00     0.248 C 
HETATM   17  N   UNL     1      28.161  37.541  50.061  1.00  0.00    -0.358 N 
HETATM   18  O   UNL     1      26.601  36.535  48.799  1.00  0.00    -0.271 OA
HETATM   19  C   UNL     1      29.041  38.650  50.353  1.00  0.00     0.150 C 
HETATM   20  H   UNL     1      28.450  36.597  50.318  1.00  0.00     0.162 HD
HETATM   21  C   UNL     1      28.331  40.001  50.236  1.00  0.00     0.256 C 
HETATM   22  H   UNL     1      28.448  39.897  48.199  1.00  0.00     0.281 HD
BRANCH  15  23
HETATM   23  C   UNL     1      26.192  38.883  47.194  1.00  0.00     0.038 C 
HETATM   24  C   UNL     1      24.751  39.321  46.950  1.00  0.00     0.007 C 
ENDBRANCH  15  23
ENDBRANCH  13  14
ENDBRANCH   1  13
BRANCH   8  25
HETATM   25  C   UNL     1      28.332  43.906  53.708  1.00  0.00     0.274 C 
BRANCH  25  26
HETATM   26  C   UNL     1      29.278  44.065  54.867  1.00  0.00    -0.029 A 
HETATM   27  C   UNL     1      29.218  45.198  55.693  1.00  0.00     0.054 A 
HETATM   28  C   UNL     1      30.109  45.335  56.757  1.00  0.00     0.155 A 
HETATM   29  F   UNL     1      30.030  46.425  57.530  1.00  0.00    -0.203 F 
HETATM   30  C   UNL     1      31.064  44.359  57.011  1.00  0.00     0.154 A 
HETATM   31  F   UNL     1      31.919  44.496  58.030  1.00  0.00    -0.203 F 
HETATM   32  C   UNL     1      31.139  43.232  56.201  1.00  0.00     0.046 A 
HETATM   33  C   UNL     1      30.251  43.083  55.132  1.00  0.00     0.012 A 
ENDBRANCH  25  26
ENDBRANCH   8  25
TORSDOF 5
ENDMDL
MODEL 5
REMARK VINA RESULT:      -9.0      3.347      7.210
REMARK  5 active torsions:
REMARK  status: ('A' for Active; 'I' for Inactive)
REMARK    1  A    between atoms: C_2  and  C_3 
REMARK    2  A    between atoms: N_4  and  C_6 
REMARK    3  A    between atoms: C_6  and  C_7 
REMARK    4  A    between atoms: N_14  and  C_16 
REMARK    5  A    between atoms: C_16  and  C_17 
ROOT
HETATM    1  C   UNL     1      26.371  41.385  48.734  1.00  0.00    -0.032 A 
HETATM    2  C   UNL     1      27.088  42.469  49.288  1.00  0.00     0.020 A 
HETATM    3  C   UNL     1      26.424  43.575  49.860  1.00  0.00     0.002 A 
HETATM    4  C   UNL     1      25.028  43.583  49.855  1.00  0.00     0.076 A 
HETATM    5  O   UNL     1      24.327  44.649  50.341  1.00  0.00    -0.349 OA
HETATM    6  C   UNL     1      24.391  44.723  51.771  1.00  0.00     0.203 C 
HETATM    7  C   UNL     1      25.568  45.588  52.219  1.00  0.00     0.262 C 
HETATM    8  N   UNL     1      26.926  44.947  51.947  1.00  0.00    -0.061 N 
HETATM    9  H   UNL     1      27.604  45.665  52.235  1.00  0.00     0.280 HD
HETATM   10  C   UNL     1      27.181  44.729  50.467  1.00  0.00     0.276 C 
HETATM   11  C   UNL     1      24.303  42.530  49.309  1.00  0.00     0.038 A 
HETATM   12  C   UNL     1      24.970  41.425  48.777  1.00  0.00     0.011 A 
ENDROOT
BRANCH   1  13
HETATM   13  C   UNL     1      27.091  40.183  48.156  1.00  0.00     0.274 C 
BRANCH  13  14
HETATM   14  N   UNL     1      27.300  38.985  49.057  1.00  0.00    -0.053 N 
HETATM   15  C   UNL     1      28.758  38.709  49.496  1.00  0.00     0.279 C 
HETATM   16  C   UNL     1      28.936  37.399  50.312  1.00  0.00     0.248 C 
HETATM   17  N   UNL     1      27.974  36.432  50.190  1.00  0.00    -0.358 N 
HETATM   18  O   UNL     1      29.933  37.179  50.992  1.00  0.00    -0.271 OA
HETATM   19  C   UNL     1      26.654  36.655  49.644  1.00  0.00     0.150 C 
HETATM   20  H   UNL     1      28.138  35.610  50.771  1.00  0.00     0.162 HD
HETATM   21  C   UNL     1      26.656  37.706  48.531  1.00  0.00     0.256 C 
HETATM   22  H   UNL     1      26.790  39.195  49.925  1.00  0.00     0.281 HD
BRANCH  15  23
HETATM   23  C   UNL     1      29.341  39.899  50.280  1.00  0.00     0.038 C 
HETATM   24  C   UNL     1      28.592  40.248  51.562  1.00  0.00     0.007 C 
ENDBRANCH  15  23
ENDBRANCH  13  14
ENDBRANCH   1  13
BRANCH   8  25
HETATM   25  C   UNL     1      27.254  43.729  52.781  1.00  0.00     0.274 C 
BRANCH  25  26
HETATM   26  C   UNL     1      28.350  43.934  53.791  1.00  0.00    -0.029 A 
HETATM   27  C   UNL     1      28.330  45.037  54.659  1.00  0.00     0.054 A 
HETATM   28  C   UNL     1      29.360  45.218  55.583  1.00  0.00     0.155 A 
HETATM   29  F   UNL     1      29.316  46.278  56.399  1.00  0.00    -0.203 F 
HETATM   30  C   UNL     1      30.413  44.317  55.654  1.00  0.00     0.154 A 
HETATM   31  F   UNL     1      31.400  44.496  56.539  1.00  0.00    -0.203 F 
HETATM   32  C   UNL     1      30.450  43.220  54.800  1.00  0.00     0.046 A 
HETATM   33  C   UNL     1      29.424  43.027  53.871  1.00  0.00     0.012 A 
ENDBRANCH  25  26
ENDBRANCH   8  25
TORSDOF 5
ENDMDL
MODEL 6
REMARK VINA RESULT:      -8.9      3.112      7.202
REMARK  5 active torsions:
REMARK  status: ('A' for Active; 'I' for Inactive)
REMARK    1  A    between atoms: C_2  and  C_3 
REMARK    2  A    between atoms: N_4  and  C_6 
REMARK    3  A    between atoms: C_6  and  C_7 
REMARK    4  A    between atoms: N_14  and  C_16 
REMARK    5  A    between atoms: C_16  and  C_17 
ROOT
HETATM    1  C   UNL     1      25.992  41.835  48.884  1.00  0.00    -0.032 A 
HETATM    2  C   UNL     1      26.773  42.883  49.420  1.00  0.00     0.020 A 
HETATM    3  C   UNL     1      26.269  44.198  49.523  1.00  0.00     0.002 A 
HETATM    4  C   UNL     1      24.973  44.447  49.066  1.00  0.00     0.076 A 
HETATM    5  O   UNL     1      24.450  45.708  49.084  1.00  0.00    -0.349 OA
HETATM    6  C   UNL     1      24.137  46.136  50.416  1.00  0.00     0.203 C 
HETATM    7  C   UNL     1      25.321  46.869  51.045  1.00  0.00     0.262 C 
HETATM    8  N   UNL     1      26.502  45.953  51.354  1.00  0.00    -0.061 N 
HETATM    9  H   UNL     1      27.229  46.592  51.701  1.00  0.00     0.280 HD
HETATM   10  C   UNL     1      27.090  45.320  50.107  1.00  0.00     0.276 C 
HETATM   11  C   UNL     1      24.191  43.431  48.529  1.00  0.00     0.038 A 
HETATM   12  C   UNL     1      24.687  42.129  48.464  1.00  0.00     0.011 A 
ENDROOT
BRANCH   1  13
HETATM   13  C   UNL     1      26.526  40.418  48.812  1.00  0.00     0.274 C 
BRANCH  13  14
HETATM   14  N   UNL     1      27.725  40.072  49.670  1.00  0.00    -0.053 N 
HETATM   15  C   UNL     1      28.335  38.667  49.451  1.00  0.00     0.279 C 
HETATM   16  C   UNL     1      29.479  38.313  50.441  1.00  0.00     0.248 C 
HETATM   17  N   UNL     1      29.538  39.001  51.623  1.00  0.00    -0.358 N 
HETATM   18  O   UNL     1      30.270  37.400  50.232  1.00  0.00    -0.271 OA
HETATM   19  C   UNL     1      28.849  40.246  51.882  1.00  0.00     0.150 C 
HETATM   20  H   UNL     1      30.326  38.739  52.216  1.00  0.00     0.162 HD
HETATM   21  C   UNL     1      27.503  40.326  51.157  1.00  0.00     0.256 C 
HETATM   22  H   UNL     1      28.463  40.734  49.400  1.00  0.00     0.281 HD
BRANCH  15  23
HETATM   23  C   UNL     1      28.823  38.489  48.001  1.00  0.00     0.038 C 
HETATM   24  C   UNL     1      28.063  37.441  47.194  1.00  0.00     0.007 C 
ENDBRANCH  15  23
ENDBRANCH  13  14
ENDBRANCH   1  13
BRANCH   8  25
HETATM   25  C   UNL     1      26.282  44.954  52.467  1.00  0.00     0.274 C 
BRANCH  25  26
HETATM   26  C   UNL     1      27.476  44.725  53.353  1.00  0.00    -0.029 A 
HETATM   27  C   UNL     1      28.422  43.735  53.043  1.00  0.00     0.054 A 
HETATM   28  C   UNL     1      29.517  43.528  53.882  1.00  0.00     0.155 A 
HETATM   29  F   UNL     1      30.404  42.577  53.563  1.00  0.00    -0.203 F 
HETATM   30  C   UNL     1      29.686  44.293  55.028  1.00  0.00     0.154 A 
HETATM   31  F   UNL     1      30.736  44.089  55.831  1.00  0.00    -0.203 F 
HETATM   32  C   UNL     1      28.758  45.276  55.351  1.00  0.00     0.046 A 
HETATM   33  C   UNL     1      27.656  45.493  54.519  1.00  0.00     0.012 A 
ENDBRANCH  25  26
ENDBRANCH   8  25
TORSDOF 5
ENDMDL
MODEL 7
REMARK VINA RESULT:      -8.8      4.390      8.416
REMARK  5 active torsions:
REMARK  status: ('A' for Active; 'I' for Inactive)
REMARK    1  A    between atoms: C_2  and  C_3 
REMARK    2  A    between atoms: N_4  and  C_6 
REMARK    3  A    between atoms: C_6  and  C_7 
REMARK    4  A    between atoms: N_14  and  C_16 
REMARK    5  A    between atoms: C_16  and  C_17 
ROOT
HETATM    1  C   UNL     1      28.124  42.305  52.857  1.00  0.00    -0.032 A 
HETATM    2  C   UNL     1      26.894  42.972  52.658  1.00  0.00     0.020 A 
HETATM    3  C   UNL     1      26.581  44.162  53.350  1.00  0.00     0.002 A 
HETATM    4  C   UNL     1      27.517  44.666  54.255  1.00  0.00     0.076 A 
HETATM    5  O   UNL     1      27.250  45.780  54.998  1.00  0.00    -0.349 OA
HETATM    6  C   UNL     1      27.278  46.971  54.201  1.00  0.00     0.203 C 
HETATM    7  C   UNL     1      25.889  47.289  53.649  1.00  0.00     0.262 C 
HETATM    8  N   UNL     1      25.419  46.298  52.588  1.00  0.00    -0.061 N 
HETATM    9  H   UNL     1      24.461  46.600  52.370  1.00  0.00     0.280 HD
HETATM   10  C   UNL     1      25.278  44.888  53.132  1.00  0.00     0.276 C 
HETATM   11  C   UNL     1      28.730  44.021  54.472  1.00  0.00     0.038 A 
HETATM   12  C   UNL     1      29.043  42.865  53.757  1.00  0.00     0.011 A 
ENDROOT
BRANCH   1  13
HETATM   13  C   UNL     1      28.468  41.049  52.082  1.00  0.00     0.274 C 
BRANCH  13  14
HETATM   14  N   UNL     1      27.885  40.894  50.694  1.00  0.00    -0.053 N 
HETATM   15  C   UNL     1      28.647  39.945  49.738  1.00  0.00     0.279 C 
HETATM   16  C   UNL     1      28.083  39.920  48.290  1.00  0.00     0.248 C 
HETATM   17  N   UNL     1      27.332  40.988  47.877  1.00  0.00    -0.358 N 
HETATM   18  O   UNL     1      28.349  39.024  47.497  1.00  0.00    -0.271 OA
HETATM   19  C   UNL     1      26.737  41.963  48.764  1.00  0.00     0.150 C 
HETATM   20  H   UNL     1      26.971  40.897  46.927  1.00  0.00     0.162 HD
HETATM   21  C   UNL     1      27.598  42.223  50.002  1.00  0.00     0.256 C 
HETATM   22  H   UNL     1      26.961  40.464  50.825  1.00  0.00     0.281 HD
BRANCH  15  23
HETATM   23  C   UNL     1      28.707  38.513  50.302  1.00  0.00     0.038 C 
HETATM   24  C   UNL     1      30.111  37.927  50.407  1.00  0.00     0.007 C 
ENDBRANCH  15  23
ENDBRANCH  13  14
ENDBRANCH   1  13
BRANCH   8  25
HETATM   25  C   UNL     1      26.164  46.343  51.273  1.00  0.00     0.274 C 
BRANCH  25  26
HETATM   26  C   UNL     1      25.714  47.426  50.332  1.00  0.00    -0.029 A 
HETATM   27  C   UNL     1      26.645  48.281  49.722  1.00  0.00     0.054 A 
HETATM   28  C   UNL     1      26.210  49.289  48.860  1.00  0.00     0.155 A 
HETATM   29  F   UNL     1      27.119  50.089  48.291  1.00  0.00    -0.203 F 
HETATM   30  C   UNL     1      24.858  49.459  48.597  1.00  0.00     0.154 A 
HETATM   31  F   UNL     1      24.444  50.428  47.772  1.00  0.00    -0.203 F 
HETATM   32  C   UNL     1      23.921  48.624  49.194  1.00  0.00     0.046 A 
HETATM   33  C   UNL     1      24.345  47.610  50.059  1.00  0.00     0.012 A 
ENDBRANCH  25  26
ENDBRANCH   8  25
TORSDOF 5
ENDMDL
MODEL 8
REMARK VINA RESULT:      -8.7      3.898      6.760
REMARK  5 active torsions:
REMARK  status: ('A' for Active; 'I' for Inactive)
REMARK    1  A    between atoms: C_2  and  C_3 
REMARK    2  A    between atoms: N_4  and  C_6 
REMARK    3  A    between atoms: C_6  and  C_7 
REMARK    4  A    between atoms: N_14  and  C_16 
REMARK    5  A    between atoms: C_16  and  C_17 
ROOT
HETATM    1  C   UNL     1      21.517  49.531  49.238  1.00  0.00    -0.032 A 
HETATM    2  C   UNL     1      22.308  48.360  49.262  1.00  0.00     0.020 A 
HETATM    3  C   UNL     1      23.663  48.379  48.866  1.00  0.00     0.002 A 
HETATM    4  C   UNL     1      24.209  49.589  48.433  1.00  0.00     0.076 A 
HETATM    5  O   UNL     1      25.495  49.661  47.982  1.00  0.00    -0.349 OA
HETATM    6  C   UNL     1      26.442  49.538  49.051  1.00  0.00     0.203 C 
HETATM    7  C   UNL     1      26.842  48.077  49.260  1.00  0.00     0.262 C 
HETATM    8  N   UNL     1      25.716  47.220  49.831  1.00  0.00    -0.061 N 
HETATM    9  H   UNL     1      26.110  46.270  49.847  1.00  0.00     0.280 HD
HETATM   10  C   UNL     1      24.518  47.138  48.903  1.00  0.00     0.276 C 
HETATM   11  C   UNL     1      23.446  50.750  48.395  1.00  0.00     0.038 A 
HETATM   12  C   UNL     1      22.118  50.728  48.821  1.00  0.00     0.011 A 
ENDROOT
BRANCH   1  13
HETATM   13  C   UNL     1      20.074  49.511  49.701  1.00  0.00     0.274 C 
BRANCH  13  14
HETATM   14  N   UNL     1      18.993  49.627  48.647  1.00  0.00    -0.053 N 
HETATM   15  C   UNL     1      17.733  50.429  49.051  1.00  0.00     0.279 C 
HETATM   16  C   UNL     1      16.604  50.411  47.984  1.00  0.00     0.248 C 
HETATM   17  N   UNL     1      16.608  49.397  47.064  1.00  0.00    -0.358 N 
HETATM   18  O   UNL     1      15.683  51.221  47.989  1.00  0.00    -0.271 OA
HETATM   19  C   UNL     1      17.745  48.547  46.787  1.00  0.00     0.150 C 
HETATM   20  H   UNL     1      15.856  49.458  46.378  1.00  0.00     0.162 HD
HETATM   21  C   UNL     1      18.595  48.289  48.033  1.00  0.00     0.256 C 
HETATM   22  H   UNL     1      19.415  50.154  47.872  1.00  0.00     0.281 HD
BRANCH  15  23
HETATM   23  C   UNL     1      18.088  51.883  49.414  1.00  0.00     0.038 C 
HETATM   24  C   UNL     1      18.916  52.620  48.366  1.00  0.00     0.007 C 
ENDBRANCH  15  23
ENDBRANCH  13  14
ENDBRANCH   1  13
BRANCH   8  25
HETATM   25  C   UNL     1      25.326  47.518  51.261  1.00  0.00     0.274 C 
BRANCH  25  26
HETATM   26  C   UNL     1      26.053  46.701  52.295  1.00  0.00    -0.029 A 
HETATM   27  C   UNL     1      26.430  45.376  52.028  1.00  0.00     0.054 A 
HETATM   28  C   UNL     1      27.093  44.628  53.002  1.00  0.00     0.155 A 
HETATM   29  F   UNL     1      27.443  43.367  52.723  1.00  0.00    -0.203 F 
HETATM   30  C   UNL     1      27.386  45.182  54.241  1.00  0.00     0.154 A 
HETATM   31  F   UNL     1      28.019  44.462  55.174  1.00  0.00    -0.203 F 
HETATM   32  C   UNL     1      27.017  46.492  54.523  1.00  0.00     0.046 A 
HETATM   33  C   UNL     1      26.352  47.251  53.555  1.00  0.00     0.012 A 
ENDBRANCH  25  26
ENDBRANCH   8  25
TORSDOF 5
ENDMDL
MODEL 9
REMARK VINA RESULT:      -8.7      3.776      7.031
REMARK  5 active torsions:
REMARK  status: ('A' for Active; 'I' for Inactive)
REMARK    1  A    between atoms: C_2  and  C_3 
REMARK    2  A    between atoms: N_4  and  C_6 
REMARK    3  A    between atoms: C_6  and  C_7 
REMARK    4  A    between atoms: N_14  and  C_16 
REMARK    5  A    between atoms: C_16  and  C_17 
ROOT
HETATM    1  C   UNL     1      25.082  41.397  48.605  1.00  0.00    -0.032 A 
HETATM    2  C   UNL     1      26.135  42.281  48.932  1.00  0.00     0.020 A 
HETATM    3  C   UNL     1      25.887  43.522  49.557  1.00  0.00     0.002 A 
HETATM    4  C   UNL     1      24.563  43.869  49.836  1.00  0.00     0.076 A 
HETATM    5  O   UNL     1      24.252  45.079  50.386  1.00  0.00    -0.349 OA
HETATM    6  C   UNL     1      24.633  45.152  51.765  1.00  0.00     0.203 C 
HETATM    7  C   UNL     1      26.049  45.710  51.910  1.00  0.00     0.262 C 
HETATM    8  N   UNL     1      27.128  44.756  51.409  1.00  0.00    -0.061 N 
HETATM    9  H   UNL     1      28.001  45.291  51.507  1.00  0.00     0.280 HD
HETATM   10  C   UNL     1      27.005  44.465  49.924  1.00  0.00     0.276 C 
HETATM   11  C   UNL     1      23.512  43.017  49.515  1.00  0.00     0.038 A 
HETATM   12  C   UNL     1      23.772  41.778  48.929  1.00  0.00     0.011 A 
ENDROOT
BRANCH   1  13
HETATM   13  C   UNL     1      25.361  40.050  47.969  1.00  0.00     0.274 C 
BRANCH  13  14
HETATM   14  N   UNL     1      26.721  39.427  48.202  1.00  0.00    -0.053 N 
HETATM   15  C   UNL     1      27.276  38.556  47.050  1.00  0.00     0.279 C 
HETATM   16  C   UNL     1      28.612  37.838  47.387  1.00  0.00     0.248 C 
HETATM   17  N   UNL     1      28.927  37.658  48.708  1.00  0.00    -0.358 N 
HETATM   18  O   UNL     1      29.343  37.370  46.522  1.00  0.00    -0.271 OA
HETATM   19  C   UNL     1      28.304  38.370  49.803  1.00  0.00     0.150 C 
HETATM   20  H   UNL     1      29.827  37.205  48.861  1.00  0.00     0.162 HD
HETATM   21  C   UNL     1      26.831  38.682  49.528  1.00  0.00     0.256 C 
HETATM   22  H   UNL     1      27.377  40.213  48.290  1.00  0.00     0.281 HD
BRANCH  15  23
HETATM   23  C   UNL     1      27.434  39.375  45.755  1.00  0.00     0.038 C 
HETATM   24  C   UNL     1      28.171  40.700  45.923  1.00  0.00     0.007 C 
ENDBRANCH  15  23
ENDBRANCH  13  14
ENDBRANCH   1  13
BRANCH   8  25
HETATM   25  C   UNL     1      27.330  43.504  52.233  1.00  0.00     0.274 C 
BRANCH  25  26
HETATM   26  C   UNL     1      28.422  43.598  53.263  1.00  0.00    -0.029 A 
HETATM   27  C   UNL     1      28.348  44.537  54.304  1.00  0.00     0.054 A 
HETATM   28  C   UNL     1      29.375  44.619  55.246  1.00  0.00     0.155 A 
HETATM   29  F   UNL     1      29.279  45.523  56.229  1.00  0.00    -0.203 F 
HETATM   30  C   UNL     1      30.477  43.780  55.165  1.00  0.00     0.154 A 
HETATM   31  F   UNL     1      31.461  43.863  56.068  1.00  0.00    -0.203 F 
HETATM   32  C   UNL     1      30.568  42.846  54.139  1.00  0.00     0.046 A 
HETATM   33  C   UNL     1      29.546  42.754  53.190  1.00  0.00     0.012 A 
ENDBRANCH  25  26
ENDBRANCH   8  25
TORSDOF 5
ENDMDL
MODEL 10
REMARK VINA RESULT:      -8.5      4.517      8.062
REMARK  5 active torsions:
REMARK  status: ('A' for Active; 'I' for Inactive)
REMARK    1  A    between atoms: C_2  and  C_3 
REMARK    2  A    between atoms: N_4  and  C_6 
REMARK    3  A    between atoms: C_6  and  C_7 
REMARK    4  A    between atoms: N_14  and  C_16 
REMARK    5  A    between atoms: C_16  and  C_17 
ROOT
HETATM    1  C   UNL     1      28.408  42.332  53.162  1.00  0.00    -0.032 A 
HETATM    2  C   UNL     1      27.175  43.013  53.276  1.00  0.00     0.020 A 
HETATM    3  C   UNL     1      27.036  44.152  54.099  1.00  0.00     0.002 A 
HETATM    4  C   UNL     1      28.152  44.589  54.816  1.00  0.00     0.076 A 
HETATM    5  O   UNL     1      28.068  45.648  55.673  1.00  0.00    -0.349 OA
HETATM    6  C   UNL     1      27.945  46.892  54.973  1.00  0.00     0.203 C 
HETATM    7  C   UNL     1      26.476  47.251  54.753  1.00  0.00     0.262 C 
HETATM    8  N   UNL     1      25.774  46.338  53.752  1.00  0.00    -0.061 N 
HETATM    9  H   UNL     1      24.797  46.656  53.765  1.00  0.00     0.280 HD
HETATM   10  C   UNL     1      25.728  44.893  54.215  1.00  0.00     0.276 C 
HETATM   11  C   UNL     1      29.372  43.929  54.723  1.00  0.00     0.038 A 
HETATM   12  C   UNL     1      29.506  42.826  53.880  1.00  0.00     0.011 A 
ENDROOT
BRANCH   1  13
HETATM   13  C   UNL     1      28.558  41.133  52.246  1.00  0.00     0.274 C 
BRANCH  13  14
HETATM   14  N   UNL     1      27.863  41.180  50.902  1.00  0.00    -0.053 N 
HETATM   15  C   UNL     1      28.499  40.329  49.777  1.00  0.00     0.279 C 
HETATM   16  C   UNL     1      27.826  40.510  48.390  1.00  0.00     0.248 C 
HETATM   17  N   UNL     1      27.101  41.652  48.174  1.00  0.00    -0.358 N 
HETATM   18  O   UNL     1      27.983  39.711  47.473  1.00  0.00    -0.271 OA
HETATM   19  C   UNL     1      26.627  42.532  49.219  1.00  0.00     0.150 C 
HETATM   20  H   UNL     1      26.664  41.697  47.253  1.00  0.00     0.162 HD
HETATM   21  C   UNL     1      27.593  42.596  50.405  1.00  0.00     0.256 C 
HETATM   22  H   UNL     1      26.931  40.776  51.055  1.00  0.00     0.281 HD
BRANCH  15  23
HETATM   23  C   UNL     1      28.529  38.836  50.155  1.00  0.00     0.038 C 
HETATM   24  C   UNL     1      29.892  38.167  50.010  1.00  0.00     0.007 C 
ENDBRANCH  15  23
ENDBRANCH  13  14
ENDBRANCH   1  13
BRANCH   8  25
HETATM   25  C   UNL     1      26.222  46.475  52.314  1.00  0.00     0.274 C 
BRANCH  25  26
HETATM   26  C   UNL     1      25.162  46.166  51.293  1.00  0.00    -0.029 A 
HETATM   27  C   UNL     1      24.630  44.872  51.178  1.00  0.00     0.054 A 
HETATM   28  C   UNL     1      23.656  44.600  50.217  1.00  0.00     0.155 A 
HETATM   29  F   UNL     1      23.165  43.358  50.129  1.00  0.00    -0.203 F 
HETATM   30  C   UNL     1      23.203  45.599  49.366  1.00  0.00     0.154 A 
HETATM   31  F   UNL     1      22.270  45.333  48.444  1.00  0.00    -0.203 F 
HETATM   32  C   UNL     1      23.721  46.885  49.464  1.00  0.00     0.046 A 
HETATM   33  C   UNL     1      24.697  47.170  50.423  1.00  0.00     0.012 A 
ENDBRANCH  25  26
ENDBRANCH   8  25
TORSDOF 5
ENDMDL
