MODEL 1
REMARK VINA RESULT:      -9.8      0.000      0.000
REMARK  5 active torsions:
REMARK  status: ('A' for Active; 'I' for Inactive)
REMARK    1  A    between atoms: C_3  and  C_4 
REMARK    2  A    between atoms: C_6  and  N_7 
REMARK       I    between atoms: N_7  and  C_8 
REMARK    3  A    between atoms: C_8  and  C_9 
REMARK    4  A    between atoms: C_14  and  O_15 
REMARK    5  A    between atoms: O_15  and  C_16 
ROOT
HETATM    1  N   UNL     1      25.892  45.618  51.508  1.00  0.00    -0.322 N 
HETATM    2  C   UNL     1      25.731  44.919  52.692  1.00  0.00     0.272 C 
HETATM    3  O   UNL     1      24.654  44.508  53.118  1.00  0.00    -0.266 OA
HETATM    4  H   UNL     1      26.814  45.994  51.331  1.00  0.00     0.169 HD
ENDROOT
BRANCH   2   5
HETATM    5  C   UNL     1      26.952  44.721  53.449  1.00  0.00     0.102 A 
HETATM    6  N   UNL     1      27.772  43.637  53.213  1.00  0.00    -0.351 N 
HETATM    7  H   UNL     1      27.582  42.932  52.512  1.00  0.00     0.166 HD
HETATM    8  C   UNL     1      28.869  43.649  54.040  1.00  0.00     0.045 A 
HETATM    9  C   UNL     1      28.766  44.784  54.838  1.00  0.00     0.026 A 
HETATM   10  C   UNL     1      29.937  42.753  54.134  1.00  0.00     0.030 A 
HETATM   11  C   UNL     1      29.773  45.051  55.793  1.00  0.00     0.087 A 
HETATM   12  C   UNL     1      27.562  45.450  54.457  1.00  0.00     0.052 A 
HETATM   13  C   UNL     1      30.867  44.176  55.874  1.00  0.00     0.038 A 
HETATM   14  C   UNL     1      30.939  43.042  55.064  1.00  0.00     0.005 A 
BRANCH  11  15
HETATM   15  O   UNL     1      29.650  46.185  56.551  1.00  0.00    -0.289 OA
BRANCH  15  16
HETATM   16  C   UNL     1      29.575  45.945  57.948  1.00  0.00     0.505 C 
HETATM   17  F   UNL     1      30.554  46.651  58.565  1.00  0.00    -0.184 F 
HETATM   18  F   UNL     1      28.395  46.458  58.378  1.00  0.00    -0.184 F 
ENDBRANCH  15  16
ENDBRANCH  11  15
ENDBRANCH   2   5
BRANCH   1  19
HETATM   19  C   UNL     1      24.892  45.957  50.573  1.00  0.00     0.035 A 
HETATM   20  C   UNL     1      24.415  47.258  50.393  1.00  0.00     0.044 A 
HETATM   21  C   UNL     1      23.460  47.552  49.416  1.00  0.00     0.010 A 
HETATM   22  C   UNL     1      22.933  46.513  48.641  1.00  0.00     0.015 A 
HETATM   23  C   UNL     1      23.377  45.204  48.835  1.00  0.00     0.003 A 
HETATM   24  C   UNL     1      24.354  44.929  49.795  1.00  0.00     0.029 A 
BRANCH  21  25
HETATM   25  C   UNL     1      22.977  48.969  49.198  1.00  0.00     0.117 A 
HETATM   26  N   UNL     1      23.582  50.042  48.626  1.00  0.00    -0.346 N 
HETATM   27  C   UNL     1      24.870  50.063  47.930  1.00  0.00     0.157 C 
HETATM   28  C   UNL     1      22.757  51.159  48.722  1.00  0.00     0.109 A 
HETATM   29  C   UNL     1      21.601  50.753  49.309  1.00  0.00     0.107 A 
HETATM   30  N   UNL     1      21.758  49.417  49.564  1.00  0.00    -0.350 N 
HETATM   31  H   UNL     1      21.070  48.838  50.033  1.00  0.00     0.166 HD
ENDBRANCH  21  25
ENDBRANCH   1  19
TORSDOF 5
ENDMDL
MODEL 2
REMARK VINA RESULT:      -9.4      1.549      2.327
REMARK  5 active torsions:
REMARK  status: ('A' for Active; 'I' for Inactive)
REMARK    1  A    between atoms: C_3  and  C_4 
REMARK    2  A    between atoms: C_6  and  N_7 
REMARK       I    between atoms: N_7  and  C_8 
REMARK    3  A    between atoms: C_8  and  C_9 
REMARK    4  A    between atoms: C_14  and  O_15 
REMARK    5  A    between atoms: O_15  and  C_16 
ROOT
HETATM    1  N   UNL     1      26.250  47.111  51.170  1.00  0.00    -0.322 N 
HETATM    2  C   UNL     1      26.091  47.108  52.545  1.00  0.00     0.272 C 
HETATM    3  O   UNL     1      25.241  47.757  53.150  1.00  0.00    -0.266 OA
HETATM    4  H   UNL     1      27.059  46.621  50.811  1.00  0.00     0.169 HD
ENDROOT
BRANCH   2   5
HETATM    5  C   UNL     1      27.050  46.290  53.263  1.00  0.00     0.102 A 
HETATM    6  N   UNL     1      27.327  44.998  52.865  1.00  0.00    -0.351 N 
HETATM    7  H   UNL     1      26.895  44.552  52.066  1.00  0.00     0.166 HD
HETATM    8  C   UNL     1      28.261  44.412  53.684  1.00  0.00     0.045 A 
HETATM    9  C   UNL     1      28.612  45.355  54.645  1.00  0.00     0.026 A 
HETATM   10  C   UNL     1      28.821  43.132  53.640  1.00  0.00     0.030 A 
HETATM   11  C   UNL     1      29.568  45.016  55.629  1.00  0.00     0.087 A 
HETATM   12  C   UNL     1      27.848  46.529  54.370  1.00  0.00     0.052 A 
HETATM   13  C   UNL     1      30.161  43.746  55.577  1.00  0.00     0.038 A 
HETATM   14  C   UNL     1      29.784  42.819  54.603  1.00  0.00     0.005 A 
BRANCH  11  15
HETATM   15  O   UNL     1      29.903  45.973  56.551  1.00  0.00    -0.289 OA
BRANCH  15  16
HETATM   16  C   UNL     1      29.474  45.682  57.871  1.00  0.00     0.505 C 
HETATM   17  F   UNL     1      30.504  45.905  58.724  1.00  0.00    -0.184 F 
HETATM   18  F   UNL     1      28.508  46.583  58.184  1.00  0.00    -0.184 F 
ENDBRANCH  15  16
ENDBRANCH  11  15
ENDBRANCH   2   5
BRANCH   1  19
HETATM   19  C   UNL     1      25.473  47.807  50.221  1.00  0.00     0.035 A 
HETATM   20  C   UNL     1      24.089  47.656  50.099  1.00  0.00     0.044 A 
HETATM   21  C   UNL     1      23.356  48.409  49.178  1.00  0.00     0.010 A 
HETATM   22  C   UNL     1      24.029  49.292  48.326  1.00  0.00     0.015 A 
HETATM   23  C   UNL     1      25.415  49.426  48.416  1.00  0.00     0.003 A 
HETATM   24  C   UNL     1      26.133  48.689  49.361  1.00  0.00     0.029 A 
BRANCH  21  25
HETATM   25  C   UNL     1      21.853  48.272  49.078  1.00  0.00     0.117 A 
HETATM   26  N   UNL     1      20.855  49.159  49.327  1.00  0.00    -0.346 N 
HETATM   27  C   UNL     1      20.997  50.580  49.650  1.00  0.00     0.157 C 
HETATM   28  C   UNL     1      19.618  48.542  49.159  1.00  0.00     0.109 A 
HETATM   29  C   UNL     1      19.859  47.272  48.742  1.00  0.00     0.107 A 
HETATM   30  N   UNL     1      21.221  47.148  48.681  1.00  0.00    -0.350 N 
HETATM   31  H   UNL     1      21.709  46.294  48.432  1.00  0.00     0.166 HD
ENDBRANCH  21  25
ENDBRANCH   1  19
TORSDOF 5
ENDMDL
MODEL 3
REMARK VINA RESULT:      -9.1      2.122      2.987
REMARK  5 active torsions:
REMARK  status: ('A' for Active; 'I' for Inactive)
REMARK    1  A    between atoms: C_3  and  C_4 
REMARK    2  A    between atoms: C_6  and  N_7 
REMARK       I    between atoms: N_7  and  C_8 
REMARK    3  A    between atoms: C_8  and  C_9 
REMARK    4  A    between atoms: C_14  and  O_15 
REMARK    5  A    between atoms: O_15  and  C_16 
ROOT
HETATM    1  N   UNL     1      25.888  46.805  50.563  1.00  0.00    -0.322 N 
HETATM    2  C   UNL     1      25.885  46.626  51.936  1.00  0.00     0.272 C 
HETATM    3  O   UNL     1      25.345  47.386  52.737  1.00  0.00    -0.266 OA
HETATM    4  H   UNL     1      26.464  46.167  50.030  1.00  0.00     0.169 HD
ENDROOT
BRANCH   2   5
HETATM    5  C   UNL     1      26.618  45.463  52.397  1.00  0.00     0.102 A 
HETATM    6  N   UNL     1      26.527  44.254  51.738  1.00  0.00    -0.351 N 
HETATM    7  H   UNL     1      25.962  44.106  50.911  1.00  0.00     0.166 HD
HETATM    8  C   UNL     1      27.301  43.294  52.343  1.00  0.00     0.045 A 
HETATM    9  C   UNL     1      27.926  43.898  53.430  1.00  0.00     0.026 A 
HETATM   10  C   UNL     1      27.499  41.952  52.007  1.00  0.00     0.030 A 
HETATM   11  C   UNL     1      28.794  43.133  54.241  1.00  0.00     0.087 A 
HETATM   12  C   UNL     1      27.492  45.258  53.452  1.00  0.00     0.052 A 
HETATM   13  C   UNL     1      29.025  41.793  53.895  1.00  0.00     0.038 A 
HETATM   14  C   UNL     1      28.379  41.213  52.802  1.00  0.00     0.005 A 
BRANCH  11  15
HETATM   15  O   UNL     1      29.406  43.762  55.293  1.00  0.00    -0.289 OA
BRANCH  15  16
HETATM   16  C   UNL     1      30.763  43.393  55.479  1.00  0.00     0.505 C 
HETATM   17  F   UNL     1      31.486  44.509  55.745  1.00  0.00    -0.184 F 
HETATM   18  F   UNL     1      30.817  42.621  56.594  1.00  0.00    -0.184 F 
ENDBRANCH  15  16
ENDBRANCH  11  15
ENDBRANCH   2   5
BRANCH   1  19
HETATM   19  C   UNL     1      25.265  47.839  49.835  1.00  0.00     0.035 A 
HETATM   20  C   UNL     1      23.880  48.017  49.782  1.00  0.00     0.044 A 
HETATM   21  C   UNL     1      23.313  49.090  49.089  1.00  0.00     0.010 A 
HETATM   22  C   UNL     1      24.147  49.970  48.390  1.00  0.00     0.015 A 
HETATM   23  C   UNL     1      25.529  49.781  48.407  1.00  0.00     0.003 A 
HETATM   24  C   UNL     1      26.086  48.723  49.128  1.00  0.00     0.029 A 
BRANCH  21  25
HETATM   25  C   UNL     1      21.815  49.302  49.069  1.00  0.00     0.117 A 
HETATM   26  N   UNL     1      20.848  48.772  48.276  1.00  0.00    -0.346 N 
HETATM   27  C   UNL     1      21.006  47.713  47.277  1.00  0.00     0.157 C 
HETATM   28  C   UNL     1      19.613  49.331  48.595  1.00  0.00     0.109 A 
HETATM   29  C   UNL     1      19.816  50.175  49.641  1.00  0.00     0.107 A 
HETATM   30  N   UNL     1      21.155  50.117  49.917  1.00  0.00    -0.350 N 
HETATM   31  H   UNL     1      21.618  50.668  50.632  1.00  0.00     0.166 HD
ENDBRANCH  21  25
ENDBRANCH   1  19
TORSDOF 5
ENDMDL
MODEL 4
REMARK VINA RESULT:      -9.1      3.884      9.338
REMARK  5 active torsions:
REMARK  status: ('A' for Active; 'I' for Inactive)
REMARK    1  A    between atoms: C_3  and  C_4 
REMARK    2  A    between atoms: C_6  and  N_7 
REMARK       I    between atoms: N_7  and  C_8 
REMARK    3  A    between atoms: C_8  and  C_9 
REMARK    4  A    between atoms: C_14  and  O_15 
REMARK    5  A    between atoms: O_15  and  C_16 
ROOT
HETATM    1  N   UNL     1      27.108  44.900  52.114  1.00  0.00    -0.322 N 
HETATM    2  C   UNL     1      25.735  44.772  52.244  1.00  0.00     0.272 C 
HETATM    3  O   UNL     1      25.176  44.089  53.099  1.00  0.00    -0.266 OA
HETATM    4  H   UNL     1      27.436  45.402  51.299  1.00  0.00     0.169 HD
ENDROOT
BRANCH   2   5
HETATM    5  C   UNL     1      24.963  45.490  51.248  1.00  0.00     0.102 A 
HETATM    6  N   UNL     1      23.989  44.854  50.504  1.00  0.00    -0.351 N 
HETATM    7  H   UNL     1      23.755  43.875  50.607  1.00  0.00     0.166 HD
HETATM    8  C   UNL     1      23.386  45.720  49.625  1.00  0.00     0.045 A 
HETATM    9  C   UNL     1      23.980  46.966  49.806  1.00  0.00     0.026 A 
HETATM   10  C   UNL     1      22.363  45.497  48.699  1.00  0.00     0.030 A 
HETATM   11  C   UNL     1      23.545  48.058  49.022  1.00  0.00     0.087 A 
HETATM   12  C   UNL     1      24.965  46.810  50.827  1.00  0.00     0.052 A 
HETATM   13  C   UNL     1      22.497  47.854  48.112  1.00  0.00     0.038 A 
HETATM   14  C   UNL     1      21.925  46.592  47.949  1.00  0.00     0.005 A 
BRANCH  11  15
HETATM   15  O   UNL     1      24.139  49.274  49.237  1.00  0.00    -0.289 OA
BRANCH  15  16
HETATM   16  C   UNL     1      24.074  50.155  48.126  1.00  0.00     0.505 C 
HETATM   17  F   UNL     1      23.508  51.321  48.525  1.00  0.00    -0.184 F 
HETATM   18  F   UNL     1      25.352  50.445  47.772  1.00  0.00    -0.184 F 
ENDBRANCH  15  16
ENDBRANCH  11  15
ENDBRANCH   2   5
BRANCH   1  19
HETATM   19  C   UNL     1      28.101  44.321  52.931  1.00  0.00     0.035 A 
HETATM   20  C   UNL     1      28.511  44.867  54.149  1.00  0.00     0.044 A 
HETATM   21  C   UNL     1      29.462  44.226  54.948  1.00  0.00     0.010 A 
HETATM   22  C   UNL     1      30.053  43.043  54.491  1.00  0.00     0.015 A 
HETATM   23  C   UNL     1      29.675  42.506  53.259  1.00  0.00     0.003 A 
HETATM   24  C   UNL     1      28.702  43.141  52.484  1.00  0.00     0.029 A 
BRANCH  21  25
HETATM   25  C   UNL     1      29.874  44.801  56.285  1.00  0.00     0.117 A 
HETATM   26  N   UNL     1      30.822  44.406  57.174  1.00  0.00    -0.346 N 
HETATM   27  C   UNL     1      31.817  43.347  56.993  1.00  0.00     0.157 C 
HETATM   28  C   UNL     1      30.779  45.217  58.305  1.00  0.00     0.109 A 
HETATM   29  C   UNL     1      29.829  46.162  58.083  1.00  0.00     0.107 A 
HETATM   30  N   UNL     1      29.317  45.896  56.842  1.00  0.00    -0.350 N 
HETATM   31  H   UNL     1      28.560  46.415  56.410  1.00  0.00     0.166 HD
ENDBRANCH  21  25
ENDBRANCH   1  19
TORSDOF 5
ENDMDL
MODEL 5
REMARK VINA RESULT:      -9.1      1.889      2.915
REMARK  5 active torsions:
REMARK  status: ('A' for Active; 'I' for Inactive)
REMARK    1  A    between atoms: C_3  and  C_4 
REMARK    2  A    between atoms: C_6  and  N_7 
REMARK       I    between atoms: N_7  and  C_8 
REMARK    3  A    between atoms: C_8  and  C_9 
REMARK    4  A    between atoms: C_14  and  O_15 
REMARK    5  A    between atoms: O_15  and  C_16 
ROOT
HETATM    1  N   UNL     1      25.662  47.285  50.417  1.00  0.00    -0.322 N 
HETATM    2  C   UNL     1      25.840  45.923  50.243  1.00  0.00     0.272 C 
HETATM    3  O   UNL     1      25.352  45.268  49.324  1.00  0.00    -0.266 OA
HETATM    4  H   UNL     1      26.026  47.678  51.275  1.00  0.00     0.169 HD
ENDROOT
BRANCH   2   5
HETATM    5  C   UNL     1      26.637  45.281  51.270  1.00  0.00     0.102 A 
HETATM    6  N   UNL     1      27.493  44.241  50.964  1.00  0.00    -0.351 N 
HETATM    7  H   UNL     1      27.618  43.874  50.030  1.00  0.00     0.166 HD
HETATM    8  C   UNL     1      28.146  43.786  52.084  1.00  0.00     0.045 A 
HETATM    9  C   UNL     1      27.708  44.558  53.155  1.00  0.00     0.026 A 
HETATM   10  C   UNL     1      29.088  42.762  52.224  1.00  0.00     0.030 A 
HETATM   11  C   UNL     1      28.225  44.304  54.446  1.00  0.00     0.087 A 
HETATM   12  C   UNL     1      26.765  45.493  52.633  1.00  0.00     0.052 A 
HETATM   13  C   UNL     1      29.194  43.301  54.594  1.00  0.00     0.038 A 
HETATM   14  C   UNL     1      29.609  42.539  53.501  1.00  0.00     0.005 A 
BRANCH  11  15
HETATM   15  O   UNL     1      27.786  45.094  55.476  1.00  0.00    -0.289 OA
BRANCH  15  16
HETATM   16  C   UNL     1      28.741  46.040  55.929  1.00  0.00     0.505 C 
HETATM   17  F   UNL     1      28.690  47.132  55.126  1.00  0.00    -0.184 F 
HETATM   18  F   UNL     1      28.346  46.446  57.163  1.00  0.00    -0.184 F 
ENDBRANCH  15  16
ENDBRANCH  11  15
ENDBRANCH   2   5
BRANCH   1  19
HETATM   19  C   UNL     1      24.940  48.165  49.584  1.00  0.00     0.035 A 
HETATM   20  C   UNL     1      23.547  48.151  49.473  1.00  0.00     0.044 A 
HETATM   21  C   UNL     1      22.874  49.080  48.675  1.00  0.00     0.010 A 
HETATM   22  C   UNL     1      23.614  50.006  47.931  1.00  0.00     0.015 A 
HETATM   23  C   UNL     1      25.008  50.007  48.008  1.00  0.00     0.003 A 
HETATM   24  C   UNL     1      25.667  49.093  48.832  1.00  0.00     0.029 A 
BRANCH  21  25
HETATM   25  C   UNL     1      21.363  49.087  48.590  1.00  0.00     0.117 A 
HETATM   26  N   UNL     1      20.434  49.813  49.263  1.00  0.00    -0.346 N 
HETATM   27  C   UNL     1      20.678  50.915  50.196  1.00  0.00     0.157 C 
HETATM   28  C   UNL     1      19.155  49.412  48.886  1.00  0.00     0.109 A 
HETATM   29  C   UNL     1      19.301  48.466  47.922  1.00  0.00     0.107 A 
HETATM   30  N   UNL     1      20.650  48.309  47.751  1.00  0.00    -0.350 N 
HETATM   31  H   UNL     1      21.074  47.642  47.115  1.00  0.00     0.166 HD
ENDBRANCH  21  25
ENDBRANCH   1  19
TORSDOF 5
ENDMDL
MODEL 6
REMARK VINA RESULT:      -8.9      4.168      9.337
REMARK  5 active torsions:
REMARK  status: ('A' for Active; 'I' for Inactive)
REMARK    1  A    between atoms: C_3  and  C_4 
REMARK    2  A    between atoms: C_6  and  N_7 
REMARK       I    between atoms: N_7  and  C_8 
REMARK    3  A    between atoms: C_8  and  C_9 
REMARK    4  A    between atoms: C_14  and  O_15 
REMARK    5  A    between atoms: O_15  and  C_16 
ROOT
HETATM    1  N   UNL     1      26.290  44.577  51.491  1.00  0.00    -0.322 N 
HETATM    2  C   UNL     1      26.441  45.272  50.303  1.00  0.00     0.272 C 
HETATM    3  O   UNL     1      27.480  45.316  49.648  1.00  0.00    -0.266 OA
HETATM    4  H   UNL     1      25.418  44.717  51.983  1.00  0.00     0.169 HD
ENDROOT
BRANCH   2   5
HETATM    5  C   UNL     1      25.266  46.006  49.877  1.00  0.00     0.102 A 
HETATM    6  N   UNL     1      24.235  45.379  49.206  1.00  0.00    -0.351 N 
HETATM    7  H   UNL     1      24.233  44.393  48.978  1.00  0.00     0.166 HD
HETATM    8  C   UNL     1      23.227  46.260  48.900  1.00  0.00     0.045 A 
HETATM    9  C   UNL     1      23.607  47.504  49.396  1.00  0.00     0.026 A 
HETATM   10  C   UNL     1      22.015  46.048  48.236  1.00  0.00     0.030 A 
HETATM   11  C   UNL     1      22.745  48.609  49.221  1.00  0.00     0.087 A 
HETATM   12  C   UNL     1      24.885  47.332  50.008  1.00  0.00     0.052 A 
HETATM   13  C   UNL     1      21.511  48.403  48.585  1.00  0.00     0.038 A 
HETATM   14  C   UNL     1      21.161  47.144  48.093  1.00  0.00     0.005 A 
BRANCH  11  15
HETATM   15  O   UNL     1      23.141  49.816  49.735  1.00  0.00    -0.289 OA
BRANCH  15  16
HETATM   16  C   UNL     1      23.477  50.783  48.753  1.00  0.00     0.505 C 
HETATM   17  F   UNL     1      23.815  50.141  47.607  1.00  0.00    -0.184 F 
HETATM   18  F   UNL     1      22.350  51.489  48.485  1.00  0.00    -0.184 F 
ENDBRANCH  15  16
ENDBRANCH  11  15
ENDBRANCH   2   5
BRANCH   1  19
HETATM   19  C   UNL     1      27.254  43.782  52.144  1.00  0.00     0.035 A 
HETATM   20  C   UNL     1      28.027  44.234  53.217  1.00  0.00     0.044 A 
HETATM   21  C   UNL     1      28.932  43.390  53.866  1.00  0.00     0.010 A 
HETATM   22  C   UNL     1      29.106  42.084  53.395  1.00  0.00     0.015 A 
HETATM   23  C   UNL     1      28.365  41.632  52.302  1.00  0.00     0.003 A 
HETATM   24  C   UNL     1      27.442  42.476  51.681  1.00  0.00     0.029 A 
BRANCH  21  25
HETATM   25  C   UNL     1      29.736  43.872  55.053  1.00  0.00     0.117 A 
HETATM   26  N   UNL     1      29.612  44.982  55.825  1.00  0.00    -0.346 N 
HETATM   27  C   UNL     1      28.537  45.976  55.777  1.00  0.00     0.157 C 
HETATM   28  C   UNL     1      30.640  45.026  56.763  1.00  0.00     0.109 A 
HETATM   29  C   UNL     1      31.374  43.894  56.603  1.00  0.00     0.107 A 
HETATM   30  N   UNL     1      30.786  43.207  55.575  1.00  0.00    -0.350 N 
HETATM   31  H   UNL     1      31.132  42.330  55.200  1.00  0.00     0.166 HD
ENDBRANCH  21  25
ENDBRANCH   1  19
TORSDOF 5
ENDMDL
MODEL 7
REMARK VINA RESULT:      -8.8      5.654     11.174
REMARK  5 active torsions:
REMARK  status: ('A' for Active; 'I' for Inactive)
REMARK    1  A    between atoms: C_3  and  C_4 
REMARK    2  A    between atoms: C_6  and  N_7 
REMARK       I    between atoms: N_7  and  C_8 
REMARK    3  A    between atoms: C_8  and  C_9 
REMARK    4  A    between atoms: C_14  and  O_15 
REMARK    5  A    between atoms: O_15  and  C_16 
ROOT
HETATM    1  N   UNL     1      23.316  49.738  48.434  1.00  0.00    -0.322 N 
HETATM    2  C   UNL     1      22.523  50.595  49.178  1.00  0.00     0.272 C 
HETATM    3  O   UNL     1      22.846  51.080  50.260  1.00  0.00    -0.266 OA
HETATM    4  H   UNL     1      22.886  49.324  47.617  1.00  0.00     0.169 HD
ENDROOT
BRANCH   2   5
HETATM    5  C   UNL     1      21.222  50.871  48.600  1.00  0.00     0.102 A 
HETATM    6  N   UNL     1      20.845  50.319  47.392  1.00  0.00    -0.351 N 
HETATM    7  H   UNL     1      21.434  49.701  46.849  1.00  0.00     0.166 HD
HETATM    8  C   UNL     1      19.578  50.712  47.036  1.00  0.00     0.045 A 
HETATM    9  C   UNL     1      19.108  51.542  48.050  1.00  0.00     0.026 A 
HETATM   10  C   UNL     1      18.819  50.391  45.908  1.00  0.00     0.030 A 
HETATM   11  C   UNL     1      17.812  52.095  47.943  1.00  0.00     0.087 A 
HETATM   12  C   UNL     1      20.146  51.632  49.025  1.00  0.00     0.052 A 
HETATM   13  C   UNL     1      17.027  51.755  46.831  1.00  0.00     0.038 A 
HETATM   14  C   UNL     1      17.529  50.925  45.828  1.00  0.00     0.005 A 
BRANCH  11  15
HETATM   15  O   UNL     1      17.373  52.894  48.966  1.00  0.00    -0.289 OA
BRANCH  15  16
HETATM   16  C   UNL     1      16.571  52.222  49.924  1.00  0.00     0.505 C 
HETATM   17  F   UNL     1      15.295  52.170  49.466  1.00  0.00    -0.184 F 
HETATM   18  F   UNL     1      17.013  50.941  49.987  1.00  0.00    -0.184 F 
ENDBRANCH  15  16
ENDBRANCH  11  15
ENDBRANCH   2   5
BRANCH   1  19
HETATM   19  C   UNL     1      24.618  49.293  48.743  1.00  0.00     0.035 A 
HETATM   20  C   UNL     1      24.883  48.109  49.436  1.00  0.00     0.044 A 
HETATM   21  C   UNL     1      26.194  47.685  49.672  1.00  0.00     0.010 A 
HETATM   22  C   UNL     1      27.259  48.490  49.254  1.00  0.00     0.015 A 
HETATM   23  C   UNL     1      27.006  49.692  48.592  1.00  0.00     0.003 A 
HETATM   24  C   UNL     1      25.692  50.090  48.336  1.00  0.00     0.029 A 
BRANCH  21  25
HETATM   25  C   UNL     1      26.476  46.381  50.387  1.00  0.00     0.117 A 
HETATM   26  N   UNL     1      26.319  46.023  51.688  1.00  0.00    -0.346 N 
HETATM   27  C   UNL     1      25.688  46.809  52.751  1.00  0.00     0.157 C 
HETATM   28  C   UNL     1      26.787  44.727  51.883  1.00  0.00     0.109 A 
HETATM   29  C   UNL     1      27.183  44.259  50.671  1.00  0.00     0.107 A 
HETATM   30  N   UNL     1      26.960  45.277  49.784  1.00  0.00    -0.350 N 
HETATM   31  H   UNL     1      27.191  45.239  48.796  1.00  0.00     0.166 HD
ENDBRANCH  21  25
ENDBRANCH   1  19
TORSDOF 5
ENDMDL
MODEL 8
REMARK VINA RESULT:      -8.5      1.867      3.242
REMARK  5 active torsions:
REMARK  status: ('A' for Active; 'I' for Inactive)
REMARK    1  A    between atoms: C_3  and  C_4 
REMARK    2  A    between atoms: C_6  and  N_7 
REMARK       I    between atoms: N_7  and  C_8 
REMARK    3  A    between atoms: C_8  and  C_9 
REMARK    4  A    between atoms: C_14  and  O_15 
REMARK    5  A    between atoms: O_15  and  C_16 
ROOT
HETATM    1  N   UNL     1      25.771  45.830  51.327  1.00  0.00    -0.322 N 
HETATM    2  C   UNL     1      25.589  45.035  52.446  1.00  0.00     0.272 C 
HETATM    3  O   UNL     1      24.509  44.566  52.799  1.00  0.00    -0.266 OA
HETATM    4  H   UNL     1      26.688  46.241  51.214  1.00  0.00     0.169 HD
ENDROOT
BRANCH   2   5
HETATM    5  C   UNL     1      26.787  44.810  53.230  1.00  0.00     0.102 A 
HETATM    6  N   UNL     1      27.589  43.708  53.009  1.00  0.00    -0.351 N 
HETATM    7  H   UNL     1      27.399  43.009  52.303  1.00  0.00     0.166 HD
HETATM    8  C   UNL     1      28.666  43.694  53.862  1.00  0.00     0.045 A 
HETATM    9  C   UNL     1      28.570  44.830  54.660  1.00  0.00     0.026 A 
HETATM   10  C   UNL     1      29.712  42.774  53.977  1.00  0.00     0.030 A 
HETATM   11  C   UNL     1      29.561  45.072  55.638  1.00  0.00     0.087 A 
HETATM   12  C   UNL     1      27.390  45.522  54.254  1.00  0.00     0.052 A 
HETATM   13  C   UNL     1      30.633  44.173  55.743  1.00  0.00     0.038 A 
HETATM   14  C   UNL     1      30.699  43.039  54.931  1.00  0.00     0.005 A 
BRANCH  11  15
HETATM   15  O   UNL     1      29.446  46.207  56.397  1.00  0.00    -0.289 OA
BRANCH  15  16
HETATM   16  C   UNL     1      29.388  45.967  57.794  1.00  0.00     0.505 C 
HETATM   17  F   UNL     1      30.418  46.617  58.391  1.00  0.00    -0.184 F 
HETATM   18  F   UNL     1      28.247  46.544  58.251  1.00  0.00    -0.184 F 
ENDBRANCH  15  16
ENDBRANCH  11  15
ENDBRANCH   2   5
BRANCH   1  19
HETATM   19  C   UNL     1      24.795  46.216  50.385  1.00  0.00     0.035 A 
HETATM   20  C   UNL     1      24.140  45.316  49.541  1.00  0.00     0.044 A 
HETATM   21  C   UNL     1      23.142  45.742  48.661  1.00  0.00     0.010 A 
HETATM   22  C   UNL     1      22.832  47.104  48.586  1.00  0.00     0.015 A 
HETATM   23  C   UNL     1      23.504  48.017  49.400  1.00  0.00     0.003 A 
HETATM   24  C   UNL     1      24.479  47.575  50.296  1.00  0.00     0.029 A 
BRANCH  21  25
HETATM   25  C   UNL     1      22.407  44.757  47.778  1.00  0.00     0.117 A 
HETATM   26  N   UNL     1      21.185  44.823  47.189  1.00  0.00    -0.346 N 
HETATM   27  C   UNL     1      20.282  45.976  47.155  1.00  0.00     0.157 C 
HETATM   28  C   UNL     1      20.912  43.630  46.525  1.00  0.00     0.109 A 
HETATM   29  C   UNL     1      22.009  42.840  46.659  1.00  0.00     0.107 A 
HETATM   30  N   UNL     1      22.903  43.560  47.404  1.00  0.00    -0.350 N 
HETATM   31  H   UNL     1      23.811  43.217  47.700  1.00  0.00     0.166 HD
ENDBRANCH  21  25
ENDBRANCH   1  19
TORSDOF 5
ENDMDL
MODEL 9
REMARK VINA RESULT:      -8.5      3.013      4.483
REMARK  5 active torsions:
REMARK  status: ('A' for Active; 'I' for Inactive)
REMARK    1  A    between atoms: C_3  and  C_4 
REMARK    2  A    between atoms: C_6  and  N_7 
REMARK       I    between atoms: N_7  and  C_8 
REMARK    3  A    between atoms: C_8  and  C_9 
REMARK    4  A    between atoms: C_14  and  O_15 
REMARK    5  A    between atoms: O_15  and  C_16 
ROOT
HETATM    1  N   UNL     1      24.362  47.899  50.245  1.00  0.00    -0.322 N 
HETATM    2  C   UNL     1      24.614  46.538  50.217  1.00  0.00     0.272 C 
HETATM    3  O   UNL     1      24.134  45.756  49.400  1.00  0.00    -0.266 OA
HETATM    4  H   UNL     1      24.732  48.407  51.038  1.00  0.00     0.169 HD
ENDROOT
BRANCH   2   5
HETATM    5  C   UNL     1      25.484  46.061  51.275  1.00  0.00     0.102 A 
HETATM    6  N   UNL     1      25.666  46.790  52.433  1.00  0.00    -0.351 N 
HETATM    7  H   UNL     1      25.214  47.677  52.615  1.00  0.00     0.166 HD
HETATM    8  C   UNL     1      26.527  46.154  53.295  1.00  0.00     0.045 A 
HETATM    9  C   UNL     1      26.914  44.966  52.682  1.00  0.00     0.026 A 
HETATM   10  C   UNL     1      26.980  46.535  54.560  1.00  0.00     0.030 A 
HETATM   11  C   UNL     1      27.807  44.102  53.355  1.00  0.00     0.087 A 
HETATM   12  C   UNL     1      26.252  44.917  51.418  1.00  0.00     0.052 A 
HETATM   13  C   UNL     1      28.244  44.458  54.640  1.00  0.00     0.038 A 
HETATM   14  C   UNL     1      27.843  45.659  55.225  1.00  0.00     0.005 A 
BRANCH  11  15
HETATM   15  O   UNL     1      28.155  42.932  52.732  1.00  0.00    -0.289 OA
BRANCH  15  16
HETATM   16  C   UNL     1      29.406  42.405  53.144  1.00  0.00     0.505 C 
HETATM   17  F   UNL     1      29.537  41.151  52.645  1.00  0.00    -0.184 F 
HETATM   18  F   UNL     1      30.370  43.159  52.558  1.00  0.00    -0.184 F 
ENDBRANCH  15  16
ENDBRANCH  11  15
ENDBRANCH   2   5
BRANCH   1  19
HETATM   19  C   UNL     1      23.560  48.638  49.351  1.00  0.00     0.035 A 
HETATM   20  C   UNL     1      22.193  48.409  49.175  1.00  0.00     0.044 A 
HETATM   21  C   UNL     1      21.429  49.204  48.316  1.00  0.00     0.010 A 
HETATM   22  C   UNL     1      22.059  50.213  47.578  1.00  0.00     0.015 A 
HETATM   23  C   UNL     1      23.430  50.428  47.720  1.00  0.00     0.003 A 
HETATM   24  C   UNL     1      24.176  49.646  48.605  1.00  0.00     0.029 A 
BRANCH  21  25
HETATM   25  C   UNL     1      19.942  48.978  48.158  1.00  0.00     0.117 A 
HETATM   26  N   UNL     1      18.925  49.065  49.055  1.00  0.00    -0.346 N 
HETATM   27  C   UNL     1      19.003  49.546  50.436  1.00  0.00     0.157 C 
HETATM   28  C   UNL     1      17.727  48.693  48.451  1.00  0.00     0.109 A 
HETATM   29  C   UNL     1      18.002  48.430  47.146  1.00  0.00     0.107 A 
HETATM   30  N   UNL     1      19.347  48.634  46.998  1.00  0.00    -0.350 N 
HETATM   31  H   UNL     1      19.858  48.484  46.134  1.00  0.00     0.166 HD
ENDBRANCH  21  25
ENDBRANCH   1  19
TORSDOF 5
ENDMDL
MODEL 10
REMARK VINA RESULT:      -8.5      4.669     10.055
REMARK  5 active torsions:
REMARK  status: ('A' for Active; 'I' for Inactive)
REMARK    1  A    between atoms: C_3  and  C_4 
REMARK    2  A    between atoms: C_6  and  N_7 
REMARK       I    between atoms: N_7  and  C_8 
REMARK    3  A    between atoms: C_8  and  C_9 
REMARK    4  A    between atoms: C_14  and  O_15 
REMARK    5  A    between atoms: O_15  and  C_16 
ROOT
HETATM    1  N   UNL     1      24.445  46.900  51.258  1.00  0.00    -0.322 N 
HETATM    2  C   UNL     1      24.677  47.782  50.216  1.00  0.00     0.272 C 
HETATM    3  O   UNL     1      25.775  48.262  49.941  1.00  0.00    -0.266 OA
HETATM    4  H   UNL     1      23.477  46.670  51.443  1.00  0.00     0.169 HD
ENDROOT
BRANCH   2   5
HETATM    5  C   UNL     1      23.497  48.151  49.461  1.00  0.00     0.102 A 
HETATM    6  N   UNL     1      22.796  47.215  48.727  1.00  0.00    -0.351 N 
HETATM    7  H   UNL     1      23.051  46.238  48.674  1.00  0.00     0.166 HD
HETATM    8  C   UNL     1      21.716  47.782  48.094  1.00  0.00     0.045 A 
HETATM    9  C   UNL     1      21.706  49.132  48.431  1.00  0.00     0.026 A 
HETATM   10  C   UNL     1      20.754  47.203  47.262  1.00  0.00     0.030 A 
HETATM   11  C   UNL     1      20.690  49.966  47.913  1.00  0.00     0.087 A 
HETATM   12  C   UNL     1      22.825  49.351  49.290  1.00  0.00     0.052 A 
HETATM   13  C   UNL     1      19.699  49.390  47.103  1.00  0.00     0.038 A 
HETATM   14  C   UNL     1      19.740  48.033  46.778  1.00  0.00     0.005 A 
BRANCH  11  15
HETATM   15  O   UNL     1      20.699  51.286  48.278  1.00  0.00    -0.289 OA
BRANCH  15  16
HETATM   16  C   UNL     1      19.463  51.754  48.795  1.00  0.00     0.505 C 
HETATM   17  F   UNL     1      19.581  51.903  50.138  1.00  0.00    -0.184 F 
HETATM   18  F   UNL     1      19.260  52.994  48.283  1.00  0.00    -0.184 F 
ENDBRANCH  15  16
ENDBRANCH  11  15
ENDBRANCH   2   5
BRANCH   1  19
HETATM   19  C   UNL     1      25.393  46.369  52.156  1.00  0.00     0.035 A 
HETATM   20  C   UNL     1      25.908  45.074  52.057  1.00  0.00     0.044 A 
HETATM   21  C   UNL     1      26.887  44.612  52.941  1.00  0.00     0.010 A 
HETATM   22  C   UNL     1      27.319  45.446  53.978  1.00  0.00     0.015 A 
HETATM   23  C   UNL     1      26.786  46.730  54.108  1.00  0.00     0.003 A 
HETATM   24  C   UNL     1      25.830  47.189  53.200  1.00  0.00     0.029 A 
BRANCH  21  25
HETATM   25  C   UNL     1      27.470  43.223  52.804  1.00  0.00     0.117 A 
HETATM   26  N   UNL     1      28.602  42.674  53.317  1.00  0.00    -0.346 N 
HETATM   27  C   UNL     1      29.520  43.283  54.282  1.00  0.00     0.157 C 
HETATM   28  C   UNL     1      28.752  41.372  52.849  1.00  0.00     0.109 A 
HETATM   29  C   UNL     1      27.664  41.095  52.084  1.00  0.00     0.107 A 
HETATM   30  N   UNL     1      26.898  42.229  52.096  1.00  0.00    -0.350 N 
HETATM   31  H   UNL     1      26.031  42.340  51.581  1.00  0.00     0.166 HD
ENDBRANCH  21  25
ENDBRANCH   1  19
TORSDOF 5
ENDMDL
