MODEL 1
REMARK VINA RESULT:      -7.5      0.000      0.000
REMARK  5 active torsions:
REMARK  status: ('A' for Active; 'I' for Inactive)
REMARK    1  A    between atoms: C_7  and  C_8 
REMARK    2  A    between atoms: C_8  and  N_9 
REMARK    3  A    between atoms: C_12  and  C_13 
REMARK    4  A    between atoms: C_13  and  C_14 
REMARK    5  A    between atoms: C_14  and  O_15 
ROOT
HETATM    1  C   UNL     1      28.326  46.618  56.505  1.00  0.00     0.020 A 
HETATM    2  C   UNL     1      27.592  46.669  55.342  1.00  0.00     0.117 A 
HETATM    3  N   UNL     1      27.776  45.825  54.298  1.00  0.00    -0.260 NA
HETATM    4  C   UNL     1      28.715  44.859  54.415  1.00  0.00     0.076 A 
HETATM    5  C   UNL     1      29.536  44.725  55.560  1.00  0.00     0.011 A 
HETATM    6  C   UNL     1      29.309  45.641  56.610  1.00  0.00     0.016 A 
HETATM    7  C   UNL     1      28.885  43.975  53.344  1.00  0.00    -0.003 A 
HETATM    8  C   UNL     1      29.853  42.961  53.391  1.00  0.00     0.012 A 
HETATM    9  C   UNL     1      30.670  42.830  54.507  1.00  0.00     0.020 A 
HETATM   10  C   UNL     1      30.515  43.701  55.586  1.00  0.00     0.023 A 
HETATM   11 BR   UNL     1      31.681  43.434  57.066  1.00  0.00    -0.050 Br
ENDROOT
BRANCH   7  12
HETATM   12  C   UNL     1      27.975  44.077  52.143  1.00  0.00     0.275 C 
BRANCH  12  13
HETATM   13  N   UNL     1      26.783  43.160  52.198  1.00  0.00    -0.067 N 
HETATM   14  H   UNL     1      26.729  42.906  53.205  1.00  0.00     0.280 HD
HETATM   15  C   UNL     1      26.930  41.896  51.395  1.00  0.00     0.240 C 
HETATM   16  C   UNL     1      25.941  42.067  50.247  1.00  0.00     0.015 C 
HETATM   17  C   UNL     1      24.783  42.776  50.942  1.00  0.00     0.034 C 
HETATM   18  C   UNL     1      25.474  43.807  51.812  1.00  0.00     0.235 C 
BRANCH  16  19
HETATM   19  C   UNL     1      25.597  40.727  49.588  1.00  0.00     0.032 C 
BRANCH  19  20
HETATM   20  C   UNL     1      26.648  39.644  49.810  1.00  0.00     0.164 C 
BRANCH  20  21
HETATM   21  O   UNL     1      26.058  38.534  50.465  1.00  0.00    -0.401 OA
HETATM   22  H   UNL     1      25.092  38.614  50.353  1.00  0.00     0.209 HD
ENDBRANCH  20  21
ENDBRANCH  19  20
ENDBRANCH  16  19
ENDBRANCH  12  13
ENDBRANCH   7  12
TORSDOF 5
ENDMDL
MODEL 2
REMARK VINA RESULT:      -7.5      3.679      5.100
REMARK  5 active torsions:
REMARK  status: ('A' for Active; 'I' for Inactive)
REMARK    1  A    between atoms: C_7  and  C_8 
REMARK    2  A    between atoms: C_8  and  N_9 
REMARK    3  A    between atoms: C_12  and  C_13 
REMARK    4  A    between atoms: C_13  and  C_14 
REMARK    5  A    between atoms: C_14  and  O_15 
ROOT
HETATM    1  C   UNL     1      28.960  41.714  52.852  1.00  0.00     0.020 A 
HETATM    2  C   UNL     1      27.769  42.068  52.258  1.00  0.00     0.117 A 
HETATM    3  N   UNL     1      27.084  43.196  52.558  1.00  0.00    -0.260 NA
HETATM    4  C   UNL     1      27.611  44.039  53.476  1.00  0.00     0.076 A 
HETATM    5  C   UNL     1      28.820  43.767  54.159  1.00  0.00     0.011 A 
HETATM    6  C   UNL     1      29.484  42.569  53.814  1.00  0.00     0.016 A 
HETATM    7  C   UNL     1      26.912  45.216  53.765  1.00  0.00    -0.003 A 
HETATM    8  C   UNL     1      27.392  46.125  54.719  1.00  0.00     0.012 A 
HETATM    9  C   UNL     1      28.572  45.860  55.402  1.00  0.00     0.020 A 
HETATM   10  C   UNL     1      29.285  44.693  55.126  1.00  0.00     0.023 A 
HETATM   11 BR   UNL     1      30.890  44.425  56.113  1.00  0.00    -0.050 Br
ENDROOT
BRANCH   7  12
HETATM   12  C   UNL     1      25.651  45.540  53.000  1.00  0.00     0.275 C 
BRANCH  12  13
HETATM   13  N   UNL     1      25.841  45.609  51.509  1.00  0.00    -0.067 N 
HETATM   14  H   UNL     1      26.533  44.856  51.325  1.00  0.00     0.280 HD
HETATM   15  C   UNL     1      26.408  46.912  51.011  1.00  0.00     0.240 C 
HETATM   16  C   UNL     1      25.253  47.555  50.251  1.00  0.00     0.015 C 
HETATM   17  C   UNL     1      24.601  46.342  49.597  1.00  0.00     0.034 C 
HETATM   18  C   UNL     1      24.600  45.305  50.703  1.00  0.00     0.235 C 
BRANCH  16  19
HETATM   19  C   UNL     1      25.741  48.644  49.289  1.00  0.00     0.032 C 
BRANCH  19  20
HETATM   20  C   UNL     1      27.260  48.740  49.188  1.00  0.00     0.164 C 
BRANCH  20  21
HETATM   21  O   UNL     1      27.632  50.060  48.834  1.00  0.00    -0.401 OA
HETATM   22  H   UNL     1      26.856  50.475  48.413  1.00  0.00     0.209 HD
ENDBRANCH  20  21
ENDBRANCH  19  20
ENDBRANCH  16  19
ENDBRANCH  12  13
ENDBRANCH   7  12
TORSDOF 5
ENDMDL
MODEL 3
REMARK VINA RESULT:      -7.4      1.973      2.465
REMARK  5 active torsions:
REMARK  status: ('A' for Active; 'I' for Inactive)
REMARK    1  A    between atoms: C_7  and  C_8 
REMARK    2  A    between atoms: C_8  and  N_9 
REMARK    3  A    between atoms: C_12  and  C_13 
REMARK    4  A    between atoms: C_13  and  C_14 
REMARK    5  A    between atoms: C_14  and  O_15 
ROOT
HETATM    1  C   UNL     1      26.906  46.522  54.824  1.00  0.00     0.020 A 
HETATM    2  C   UNL     1      26.613  45.980  53.592  1.00  0.00     0.117 A 
HETATM    3  N   UNL     1      27.335  44.990  53.015  1.00  0.00    -0.260 NA
HETATM    4  C   UNL     1      28.387  44.485  53.697  1.00  0.00     0.076 A 
HETATM    5  C   UNL     1      28.786  44.977  54.963  1.00  0.00     0.011 A 
HETATM    6  C   UNL     1      28.005  46.019  55.510  1.00  0.00     0.016 A 
HETATM    7  C   UNL     1      29.115  43.445  53.108  1.00  0.00    -0.003 A 
HETATM    8  C   UNL     1      30.229  42.888  53.752  1.00  0.00     0.012 A 
HETATM    9  C   UNL     1      30.634  43.373  54.990  1.00  0.00     0.020 A 
HETATM   10  C   UNL     1      29.919  44.407  55.595  1.00  0.00     0.023 A 
HETATM   11 BR   UNL     1      30.553  44.997  57.290  1.00  0.00    -0.050 Br
ENDROOT
BRANCH   7  12
HETATM   12  C   UNL     1      28.662  42.877  51.784  1.00  0.00     0.275 C 
BRANCH  12  13
HETATM   13  N   UNL     1      27.989  41.536  51.892  1.00  0.00    -0.067 N 
HETATM   14  H   UNL     1      27.742  41.477  52.900  1.00  0.00     0.280 HD
HETATM   15  C   UNL     1      28.869  40.365  51.546  1.00  0.00     0.240 C 
HETATM   16  C   UNL     1      28.289  39.837  50.239  1.00  0.00     0.015 C 
HETATM   17  C   UNL     1      26.794  40.033  50.463  1.00  0.00     0.034 C 
HETATM   18  C   UNL     1      26.712  41.408  51.095  1.00  0.00     0.235 C 
BRANCH  16  19
HETATM   19  C   UNL     1      28.733  38.396  49.961  1.00  0.00     0.032 C 
BRANCH  19  20
HETATM   20  C   UNL     1      30.045  38.014  50.640  1.00  0.00     0.164 C 
BRANCH  20  21
HETATM   21  O   UNL     1      31.125  38.230  49.749  1.00  0.00    -0.401 OA
HETATM   22  H   UNL     1      31.339  39.181  49.780  1.00  0.00     0.209 HD
ENDBRANCH  20  21
ENDBRANCH  19  20
ENDBRANCH  16  19
ENDBRANCH  12  13
ENDBRANCH   7  12
TORSDOF 5
ENDMDL
MODEL 4
REMARK VINA RESULT:      -7.1      3.194      3.948
REMARK  5 active torsions:
REMARK  status: ('A' for Active; 'I' for Inactive)
REMARK    1  A    between atoms: C_7  and  C_8 
REMARK    2  A    between atoms: C_8  and  N_9 
REMARK    3  A    between atoms: C_12  and  C_13 
REMARK    4  A    between atoms: C_13  and  C_14 
REMARK    5  A    between atoms: C_14  and  O_15 
ROOT
HETATM    1  C   UNL     1      28.033  47.129  55.537  1.00  0.00     0.020 A 
HETATM    2  C   UNL     1      26.925  47.099  54.721  1.00  0.00     0.117 A 
HETATM    3  N   UNL     1      26.586  46.038  53.951  1.00  0.00    -0.260 NA
HETATM    4  C   UNL     1      27.365  44.934  54.005  1.00  0.00     0.076 A 
HETATM    5  C   UNL     1      28.536  44.862  54.797  1.00  0.00     0.011 A 
HETATM    6  C   UNL     1      28.847  46.003  55.569  1.00  0.00     0.016 A 
HETATM    7  C   UNL     1      26.998  43.832  53.226  1.00  0.00    -0.003 A 
HETATM    8  C   UNL     1      27.771  42.661  53.221  1.00  0.00     0.012 A 
HETATM    9  C   UNL     1      28.928  42.587  53.987  1.00  0.00     0.020 A 
HETATM   10  C   UNL     1      29.309  43.675  54.772  1.00  0.00     0.023 A 
HETATM   11 BR   UNL     1      30.906  43.469  55.787  1.00  0.00    -0.050 Br
ENDROOT
BRANCH   7  12
HETATM   12  C   UNL     1      25.721  43.881  52.422  1.00  0.00     0.275 C 
BRANCH  12  13
HETATM   13  N   UNL     1      25.885  44.471  51.048  1.00  0.00    -0.067 N 
HETATM   14  H   UNL     1      26.911  44.624  50.979  1.00  0.00     0.280 HD
HETATM   15  C   UNL     1      25.191  45.792  50.847  1.00  0.00     0.240 C 
HETATM   16  C   UNL     1      24.058  45.474  49.878  1.00  0.00     0.015 C 
HETATM   17  C   UNL     1      24.717  44.451  48.959  1.00  0.00     0.034 C 
HETATM   18  C   UNL     1      25.476  43.556  49.918  1.00  0.00     0.235 C 
BRANCH  16  19
HETATM   19  C   UNL     1      23.527  46.736  49.190  1.00  0.00     0.032 C 
BRANCH  19  20
HETATM   20  C   UNL     1      24.187  48.024  49.672  1.00  0.00     0.164 C 
BRANCH  20  21
HETATM   21  O   UNL     1      23.192  48.952  50.065  1.00  0.00    -0.401 OA
HETATM   22  H   UNL     1      23.594  49.540  50.733  1.00  0.00     0.209 HD
ENDBRANCH  20  21
ENDBRANCH  19  20
ENDBRANCH  16  19
ENDBRANCH  12  13
ENDBRANCH   7  12
TORSDOF 5
ENDMDL
MODEL 5
REMARK VINA RESULT:      -7.1      4.055      5.068
REMARK  5 active torsions:
REMARK  status: ('A' for Active; 'I' for Inactive)
REMARK    1  A    between atoms: C_7  and  C_8 
REMARK    2  A    between atoms: C_8  and  N_9 
REMARK    3  A    between atoms: C_12  and  C_13 
REMARK    4  A    between atoms: C_13  and  C_14 
REMARK    5  A    between atoms: C_14  and  O_15 
ROOT
HETATM    1  C   UNL     1      27.517  47.367  55.228  1.00  0.00     0.020 A 
HETATM    2  C   UNL     1      26.386  47.639  54.491  1.00  0.00     0.117 A 
HETATM    3  N   UNL     1      25.899  46.818  53.530  1.00  0.00    -0.260 NA
HETATM    4  C   UNL     1      26.542  45.651  53.300  1.00  0.00     0.076 A 
HETATM    5  C   UNL     1      27.721  45.278  53.988  1.00  0.00     0.011 A 
HETATM    6  C   UNL     1      28.191  46.180  54.969  1.00  0.00     0.016 A 
HETATM    7  C   UNL     1      26.021  44.795  52.324  1.00  0.00    -0.003 A 
HETATM    8  C   UNL     1      26.649  43.577  52.021  1.00  0.00     0.012 A 
HETATM    9  C   UNL     1      27.813  43.210  52.685  1.00  0.00     0.020 A 
HETATM   10  C   UNL     1      28.346  44.049  53.663  1.00  0.00     0.023 A 
HETATM   11 BR   UNL     1      29.939  43.452  54.515  1.00  0.00    -0.050 Br
ENDROOT
BRANCH   7  12
HETATM   12  C   UNL     1      24.733  45.160  51.625  1.00  0.00     0.275 C 
BRANCH  12  13
HETATM   13  N   UNL     1      24.928  45.774  50.265  1.00  0.00    -0.067 N 
HETATM   14  H   UNL     1      24.737  44.982  49.620  1.00  0.00     0.280 HD
HETATM   15  C   UNL     1      26.320  46.281  50.001  1.00  0.00     0.240 C 
HETATM   16  C   UNL     1      26.163  47.797  49.959  1.00  0.00     0.015 C 
HETATM   17  C   UNL     1      24.811  47.947  49.269  1.00  0.00     0.034 C 
HETATM   18  C   UNL     1      23.959  46.884  49.933  1.00  0.00     0.235 C 
BRANCH  16  19
HETATM   19  C   UNL     1      27.344  48.472  49.254  1.00  0.00     0.032 C 
BRANCH  19  20
HETATM   20  C   UNL     1      27.065  49.910  48.826  1.00  0.00     0.164 C 
BRANCH  20  21
HETATM   21  O   UNL     1      26.517  49.921  47.520  1.00  0.00    -0.401 OA
HETATM   22  H   UNL     1      27.246  49.727  46.900  1.00  0.00     0.209 HD
ENDBRANCH  20  21
ENDBRANCH  19  20
ENDBRANCH  16  19
ENDBRANCH  12  13
ENDBRANCH   7  12
TORSDOF 5
ENDMDL
MODEL 6
REMARK VINA RESULT:      -6.9      2.330      3.548
REMARK  5 active torsions:
REMARK  status: ('A' for Active; 'I' for Inactive)
REMARK    1  A    between atoms: C_7  and  C_8 
REMARK    2  A    between atoms: C_8  and  N_9 
REMARK    3  A    between atoms: C_12  and  C_13 
REMARK    4  A    between atoms: C_13  and  C_14 
REMARK    5  A    between atoms: C_14  and  O_15 
ROOT
HETATM    1  C   UNL     1      30.435  43.667  55.089  1.00  0.00     0.020 A 
HETATM    2  C   UNL     1      30.381  42.805  54.018  1.00  0.00     0.117 A 
HETATM    3  N   UNL     1      29.446  42.874  53.041  1.00  0.00    -0.260 NA
HETATM    4  C   UNL     1      28.527  43.865  53.105  1.00  0.00     0.076 A 
HETATM    5  C   UNL     1      28.480  44.797  54.170  1.00  0.00     0.011 A 
HETATM    6  C   UNL     1      29.472  44.667  55.166  1.00  0.00     0.016 A 
HETATM    7  C   UNL     1      27.578  43.948  52.081  1.00  0.00    -0.003 A 
HETATM    8  C   UNL     1      26.585  44.940  52.095  1.00  0.00     0.012 A 
HETATM    9  C   UNL     1      26.526  45.851  53.142  1.00  0.00     0.020 A 
HETATM   10  C   UNL     1      27.465  45.786  54.171  1.00  0.00     0.023 A 
HETATM   11 BR   UNL     1      27.299  47.082  55.555  1.00  0.00    -0.050 Br
ENDROOT
BRANCH   7  12
HETATM   12  C   UNL     1      27.656  42.993  50.915  1.00  0.00     0.275 C 
BRANCH  12  13
HETATM   13  N   UNL     1      27.282  41.576  51.258  1.00  0.00    -0.067 N 
HETATM   14  H   UNL     1      27.103  41.622  52.280  1.00  0.00     0.280 HD
HETATM   15  C   UNL     1      28.368  40.565  51.007  1.00  0.00     0.240 C 
HETATM   16  C   UNL     1      27.847  39.742  49.834  1.00  0.00     0.015 C 
HETATM   17  C   UNL     1      26.357  39.669  50.147  1.00  0.00     0.034 C 
HETATM   18  C   UNL     1      26.022  41.080  50.589  1.00  0.00     0.235 C 
BRANCH  16  19
HETATM   19  C   UNL     1      28.566  38.393  49.722  1.00  0.00     0.032 C 
BRANCH  19  20
HETATM   20  C   UNL     1      29.666  38.193  50.760  1.00  0.00     0.164 C 
BRANCH  20  21
HETATM   21  O   UNL     1      30.929  38.163  50.118  1.00  0.00    -0.401 OA
HETATM   22  H   UNL     1      30.947  38.903  49.483  1.00  0.00     0.209 HD
ENDBRANCH  20  21
ENDBRANCH  19  20
ENDBRANCH  16  19
ENDBRANCH  12  13
ENDBRANCH   7  12
TORSDOF 5
ENDMDL
MODEL 7
REMARK VINA RESULT:      -6.8      2.462      3.413
REMARK  5 active torsions:
REMARK  status: ('A' for Active; 'I' for Inactive)
REMARK    1  A    between atoms: C_7  and  C_8 
REMARK    2  A    between atoms: C_8  and  N_9 
REMARK    3  A    between atoms: C_12  and  C_13 
REMARK    4  A    between atoms: C_13  and  C_14 
REMARK    5  A    between atoms: C_14  and  O_15 
ROOT
HETATM    1  C   UNL     1      30.652  45.079  55.969  1.00  0.00     0.020 A 
HETATM    2  C   UNL     1      30.619  43.764  55.565  1.00  0.00     0.117 A 
HETATM    3  N   UNL     1      29.555  43.189  54.955  1.00  0.00    -0.260 NA
HETATM    4  C   UNL     1      28.471  43.958  54.703  1.00  0.00     0.076 A 
HETATM    5  C   UNL     1      28.391  45.317  55.089  1.00  0.00     0.011 A 
HETATM    6  C   UNL     1      29.525  45.858  55.734  1.00  0.00     0.016 A 
HETATM    7  C   UNL     1      27.384  43.367  54.051  1.00  0.00    -0.003 A 
HETATM    8  C   UNL     1      26.221  44.102  53.775  1.00  0.00     0.012 A 
HETATM    9  C   UNL     1      26.130  45.433  54.161  1.00  0.00     0.020 A 
HETATM   10  C   UNL     1      27.205  46.041  54.810  1.00  0.00     0.023 A 
HETATM   11 BR   UNL     1      26.981  47.868  55.293  1.00  0.00    -0.050 Br
ENDROOT
BRANCH   7  12
HETATM   12  C   UNL     1      27.484  41.934  53.587  1.00  0.00     0.275 C 
BRANCH  12  13
HETATM   13  N   UNL     1      28.079  41.775  52.214  1.00  0.00    -0.067 N 
HETATM   14  H   UNL     1      28.740  42.574  52.151  1.00  0.00     0.280 HD
HETATM   15  C   UNL     1      27.088  41.886  51.086  1.00  0.00     0.240 C 
HETATM   16  C   UNL     1      27.010  40.474  50.518  1.00  0.00     0.015 C 
HETATM   17  C   UNL     1      28.458  40.013  50.639  1.00  0.00     0.034 C 
HETATM   18  C   UNL     1      28.868  40.503  52.014  1.00  0.00     0.235 C 
BRANCH  16  19
HETATM   19  C   UNL     1      26.428  40.462  49.100  1.00  0.00     0.032 C 
BRANCH  19  20
HETATM   20  C   UNL     1      27.485  40.519  48.001  1.00  0.00     0.164 C 
BRANCH  20  21
HETATM   21  O   UNL     1      27.594  41.845  47.513  1.00  0.00    -0.401 OA
HETATM   22  H   UNL     1      28.482  41.934  47.117  1.00  0.00     0.209 HD
ENDBRANCH  20  21
ENDBRANCH  19  20
ENDBRANCH  16  19
ENDBRANCH  12  13
ENDBRANCH   7  12
TORSDOF 5
ENDMDL
MODEL 8
REMARK VINA RESULT:      -6.8      3.525      6.688
REMARK  5 active torsions:
REMARK  status: ('A' for Active; 'I' for Inactive)
REMARK    1  A    between atoms: C_7  and  C_8 
REMARK    2  A    between atoms: C_8  and  N_9 
REMARK    3  A    between atoms: C_12  and  C_13 
REMARK    4  A    between atoms: C_13  and  C_14 
REMARK    5  A    between atoms: C_14  and  O_15 
ROOT
HETATM    1  C   UNL     1      25.887  42.959  49.357  1.00  0.00     0.020 A 
HETATM    2  C   UNL     1      25.645  43.783  50.433  1.00  0.00     0.117 A 
HETATM    3  N   UNL     1      26.194  43.602  51.658  1.00  0.00    -0.260 NA
HETATM    4  C   UNL     1      27.051  42.569  51.828  1.00  0.00     0.076 A 
HETATM    5  C   UNL     1      27.359  41.652  50.795  1.00  0.00     0.011 A 
HETATM    6  C   UNL     1      26.746  41.883  49.543  1.00  0.00     0.016 A 
HETATM    7  C   UNL     1      27.635  42.400  53.088  1.00  0.00    -0.003 A 
HETATM    8  C   UNL     1      28.518  41.339  53.339  1.00  0.00     0.012 A 
HETATM    9  C   UNL     1      28.816  40.429  52.333  1.00  0.00     0.020 A 
HETATM   10  C   UNL     1      28.246  40.582  51.069  1.00  0.00     0.023 A 
HETATM   11 BR   UNL     1      28.723  39.284  49.761  1.00  0.00    -0.050 Br
ENDROOT
BRANCH   7  12
HETATM   12  C   UNL     1      27.355  43.406  54.179  1.00  0.00     0.275 C 
BRANCH  12  13
HETATM   13  N   UNL     1      28.290  44.585  54.179  1.00  0.00    -0.067 N 
HETATM   14  H   UNL     1      28.685  44.571  53.218  1.00  0.00     0.280 HD
HETATM   15  C   UNL     1      29.424  44.484  55.163  1.00  0.00     0.240 C 
HETATM   16  C   UNL     1      29.107  45.548  56.208  1.00  0.00     0.015 C 
HETATM   17  C   UNL     1      28.524  46.662  55.345  1.00  0.00     0.034 C 
HETATM   18  C   UNL     1      27.616  45.921  54.383  1.00  0.00     0.235 C 
BRANCH  16  19
HETATM   19  C   UNL     1      30.345  45.926  57.029  1.00  0.00     0.032 C 
BRANCH  19  20
HETATM   20  C   UNL     1      30.515  45.100  58.300  1.00  0.00     0.164 C 
BRANCH  20  21
HETATM   21  O   UNL     1      31.802  44.507  58.315  1.00  0.00    -0.401 OA
HETATM   22  H   UNL     1      31.871  43.949  57.517  1.00  0.00     0.209 HD
ENDBRANCH  20  21
ENDBRANCH  19  20
ENDBRANCH  16  19
ENDBRANCH  12  13
ENDBRANCH   7  12
TORSDOF 5
ENDMDL
MODEL 9
REMARK VINA RESULT:      -6.7      2.424      2.908
REMARK  5 active torsions:
REMARK  status: ('A' for Active; 'I' for Inactive)
REMARK    1  A    between atoms: C_7  and  C_8 
REMARK    2  A    between atoms: C_8  and  N_9 
REMARK    3  A    between atoms: C_12  and  C_13 
REMARK    4  A    between atoms: C_13  and  C_14 
REMARK    5  A    between atoms: C_14  and  O_15 
ROOT
HETATM    1  C   UNL     1      28.003  47.149  55.727  1.00  0.00     0.020 A 
HETATM    2  C   UNL     1      26.930  46.982  54.881  1.00  0.00     0.117 A 
HETATM    3  N   UNL     1      26.723  45.869  54.136  1.00  0.00    -0.260 NA
HETATM    4  C   UNL     1      27.607  44.852  54.250  1.00  0.00     0.076 A 
HETATM    5  C   UNL     1      28.753  44.922  55.077  1.00  0.00     0.011 A 
HETATM    6  C   UNL     1      28.924  46.112  55.819  1.00  0.00     0.016 A 
HETATM    7  C   UNL     1      27.377  43.695  53.498  1.00  0.00    -0.003 A 
HETATM    8  C   UNL     1      28.263  42.609  53.554  1.00  0.00     0.012 A 
HETATM    9  C   UNL     1      29.396  42.675  54.355  1.00  0.00     0.020 A 
HETATM   10  C   UNL     1      29.641  43.819  55.114  1.00  0.00     0.023 A 
HETATM   11 BR   UNL     1      31.217  43.807  56.181  1.00  0.00    -0.050 Br
ENDROOT
BRANCH   7  12
HETATM   12  C   UNL     1      26.127  43.591  52.657  1.00  0.00     0.275 C 
BRANCH  12  13
HETATM   13  N   UNL     1      25.954  44.718  51.675  1.00  0.00    -0.067 N 
HETATM   14  H   UNL     1      26.279  45.547  52.211  1.00  0.00     0.280 HD
HETATM   15  C   UNL     1      24.534  44.956  51.240  1.00  0.00     0.240 C 
HETATM   16  C   UNL     1      24.515  44.529  49.777  1.00  0.00     0.015 C 
HETATM   17  C   UNL     1      25.883  45.004  49.300  1.00  0.00     0.034 C 
HETATM   18  C   UNL     1      26.807  44.606  50.434  1.00  0.00     0.235 C 
BRANCH  16  19
HETATM   19  C   UNL     1      23.313  45.115  49.028  1.00  0.00     0.032 C 
BRANCH  19  20
HETATM   20  C   UNL     1      22.023  44.323  49.219  1.00  0.00     0.164 C 
BRANCH  20  21
HETATM   21  O   UNL     1      22.046  43.169  48.397  1.00  0.00    -0.401 OA
HETATM   22  H   UNL     1      22.217  43.469  47.485  1.00  0.00     0.209 HD
ENDBRANCH  20  21
ENDBRANCH  19  20
ENDBRANCH  16  19
ENDBRANCH  12  13
ENDBRANCH   7  12
TORSDOF 5
ENDMDL
MODEL 10
REMARK VINA RESULT:      -6.6     13.646     14.736
REMARK  5 active torsions:
REMARK  status: ('A' for Active; 'I' for Inactive)
REMARK    1  A    between atoms: C_7  and  C_8 
REMARK    2  A    between atoms: C_8  and  N_9 
REMARK    3  A    between atoms: C_12  and  C_13 
REMARK    4  A    between atoms: C_13  and  C_14 
REMARK    5  A    between atoms: C_14  and  O_15 
ROOT
HETATM    1  C   UNL     1      30.458  53.711  40.630  1.00  0.00     0.020 A 
HETATM    2  C   UNL     1      29.221  53.172  40.360  1.00  0.00     0.117 A 
HETATM    3  N   UNL     1      28.861  51.909  40.691  1.00  0.00    -0.260 NA
HETATM    4  C   UNL     1      29.758  51.140  41.349  1.00  0.00     0.076 A 
HETATM    5  C   UNL     1      31.064  51.588  41.664  1.00  0.00     0.011 A 
HETATM    6  C   UNL     1      31.387  52.908  41.282  1.00  0.00     0.016 A 
HETATM    7  C   UNL     1      29.374  49.845  41.711  1.00  0.00    -0.003 A 
HETATM    8  C   UNL     1      30.261  48.988  42.379  1.00  0.00     0.012 A 
HETATM    9  C   UNL     1      31.548  49.416  42.682  1.00  0.00     0.020 A 
HETATM   10  C   UNL     1      31.949  50.706  42.331  1.00  0.00     0.023 A 
HETATM   11 BR   UNL     1      33.729  51.195  42.794  1.00  0.00    -0.050 Br
ENDROOT
BRANCH   7  12
HETATM   12  C   UNL     1      27.965  49.381  41.428  1.00  0.00     0.275 C 
BRANCH  12  13
HETATM   13  N   UNL     1      27.680  49.142  39.970  1.00  0.00    -0.067 N 
HETATM   14  H   UNL     1      28.453  49.648  39.494  1.00  0.00     0.280 HD
HETATM   15  C   UNL     1      26.371  49.705  39.488  1.00  0.00     0.240 C 
HETATM   16  C   UNL     1      25.519  48.474  39.199  1.00  0.00     0.015 C 
HETATM   17  C   UNL     1      26.554  47.511  38.629  1.00  0.00     0.034 C 
HETATM   18  C   UNL     1      27.746  47.693  39.547  1.00  0.00     0.235 C 
BRANCH  16  19
HETATM   19  C   UNL     1      24.340  48.802  38.276  1.00  0.00     0.032 C 
BRANCH  19  20
HETATM   20  C   UNL     1      23.399  49.865  38.834  1.00  0.00     0.164 C 
BRANCH  20  21
HETATM   21  O   UNL     1      23.482  51.038  38.044  1.00  0.00    -0.401 OA
HETATM   22  H   UNL     1      23.610  51.788  38.655  1.00  0.00     0.209 HD
ENDBRANCH  20  21
ENDBRANCH  19  20
ENDBRANCH  16  19
ENDBRANCH  12  13
ENDBRANCH   7  12
TORSDOF 5
ENDMDL
