MODEL 1
REMARK VINA RESULT:      -9.2      0.000      0.000
REMARK  10 active torsions:
REMARK  status: ('A' for Active; 'I' for Inactive)
REMARK    1  A    between atoms: C_6  and  N_7 
REMARK    2  A    between atoms: C_8  and  S_9 
REMARK    3  A    between atoms: S_9  and  C_10 
REMARK    4  A    between atoms: C_10  and  C_11 
REMARK       I    between atoms: C_11  and  N_12 
REMARK    5  A    between atoms: N_12  and  C_13 
REMARK    6  A    between atoms: C_13  and  C_14 
REMARK    7  A    between atoms: C_14  and  C_15 
REMARK    8  A    between atoms: C_18  and  S_19 
REMARK    9  A    between atoms: S_19  and  N_20 
REMARK   10  A    between atoms: C_29  and  N_30 
ROOT
HETATM    1  N   UNL     1      26.900  44.249  52.252  1.00  0.00    -0.276 N 
HETATM    2  C   UNL     1      26.395  45.478  52.559  1.00  0.00     0.177 A 
HETATM    3  N   UNL     1      26.762  46.223  53.617  1.00  0.00    -0.204 NA
HETATM    4  C   UNL     1      27.750  45.658  54.311  1.00  0.00     0.162 A 
HETATM    5  C   UNL     1      28.358  44.448  54.046  1.00  0.00     0.081 A 
HETATM    6  C   UNL     1      27.901  43.666  52.971  1.00  0.00     0.124 A 
HETATM    7  N   UNL     1      28.367  46.183  55.409  1.00  0.00    -0.260 N 
HETATM    8  H   UNL     1      28.171  47.066  55.874  1.00  0.00     0.191 HD
HETATM    9  N   UNL     1      29.354  45.404  55.877  1.00  0.00    -0.177 NA
HETATM   10  C   UNL     1      29.372  44.355  55.047  1.00  0.00     0.068 A 
HETATM   11  C   UNL     1      30.392  43.292  55.244  1.00  0.00     0.073 C 
ENDROOT
BRANCH   2  12
HETATM   12  S   UNL     1      25.303  46.332  51.422  1.00  0.00    -0.082 SA
BRANCH  12  13
HETATM   13  C   UNL     1      26.341  47.755  50.956  1.00  0.00     0.185 C 
BRANCH  13  14
HETATM   14  C   UNL     1      26.882  47.544  49.556  1.00  0.00     0.227 C 
HETATM   15  N   UNL     1      26.907  48.589  48.677  1.00  0.00    -0.360 N 
HETATM   16  H   UNL     1      27.198  48.299  47.747  1.00  0.00     0.162 HD
HETATM   17  O   UNL     1      27.300  46.443  49.201  1.00  0.00    -0.273 OA
BRANCH  15  18
HETATM   18  C   UNL     1      26.239  49.878  48.804  1.00  0.00     0.127 C 
BRANCH  18  19
HETATM   19  C   UNL     1      25.151  50.106  47.747  1.00  0.00     0.058 C 
BRANCH  19  20
HETATM   20  C   UNL     1      23.755  49.907  48.292  1.00  0.00    -0.057 A 
HETATM   21  C   UNL     1      23.225  48.618  48.457  1.00  0.00     0.009 A 
HETATM   22  C   UNL     1      21.913  48.442  48.899  1.00  0.00     0.025 A 
HETATM   23  C   UNL     1      21.131  49.561  49.197  1.00  0.00     0.074 A 
HETATM   24  C   UNL     1      21.647  50.850  49.051  1.00  0.00     0.025 A 
HETATM   25  C   UNL     1      22.959  51.020  48.605  1.00  0.00     0.009 A 
BRANCH  23  26
HETATM   26  S   UNL     1      19.442  49.345  49.677  1.00  0.00     0.239 S 
HETATM   27  O   UNL     1      19.158  50.199  50.807  1.00  0.00    -0.206 OA
HETATM   28  O   UNL     1      18.617  49.330  48.491  1.00  0.00    -0.206 OA
BRANCH  26  29
HETATM   29  N   UNL     1      19.443  47.775  50.265  1.00  0.00    -0.225 NA
HETATM   30  H   UNL     1      19.481  47.114  49.488  1.00  0.00     0.136 HD
HETATM   31  H   UNL     1      20.203  47.655  50.936  1.00  0.00     0.136 HD
ENDBRANCH  26  29
ENDBRANCH  23  26
ENDBRANCH  19  20
ENDBRANCH  18  19
ENDBRANCH  15  18
ENDBRANCH  13  14
ENDBRANCH  12  13
ENDBRANCH   2  12
BRANCH   1  32
HETATM   32  C   UNL     1      26.353  43.532  51.133  1.00  0.00     0.045 A 
HETATM   33  C   UNL     1      24.988  43.258  51.106  1.00  0.00     0.054 A 
HETATM   34  C   UNL     1      24.479  42.536  50.027  1.00  0.00     0.042 A 
HETATM   35  C   UNL     1      25.323  42.097  48.988  1.00  0.00    -0.040 A 
HETATM   36 CL   UNL     1      22.788  42.200  50.019  1.00  0.00    -0.084 Cl
HETATM   37  C   UNL     1      24.793  41.308  47.820  1.00  0.00     0.050 C 
HETATM   38  C   UNL     1      26.693  42.410  49.041  1.00  0.00     0.011 A 
HETATM   39  C   UNL     1      27.217  43.131  50.111  1.00  0.00     0.031 A 
ENDBRANCH   1  32
BRANCH   6  40
HETATM   40  N   UNL     1      28.422  42.416  52.671  1.00  0.00    -0.384 N 
HETATM   41  H   UNL     1      29.313  42.357  52.188  1.00  0.00     0.157 HD
HETATM   42  H   UNL     1      28.147  41.570  53.154  1.00  0.00     0.157 HD
ENDBRANCH   6  40
TORSDOF 10
ENDMDL
MODEL 2
REMARK VINA RESULT:      -9.1      3.100      5.355
REMARK  10 active torsions:
REMARK  status: ('A' for Active; 'I' for Inactive)
REMARK    1  A    between atoms: C_6  and  N_7 
REMARK    2  A    between atoms: C_8  and  S_9 
REMARK    3  A    between atoms: S_9  and  C_10 
REMARK    4  A    between atoms: C_10  and  C_11 
REMARK       I    between atoms: C_11  and  N_12 
REMARK    5  A    between atoms: N_12  and  C_13 
REMARK    6  A    between atoms: C_13  and  C_14 
REMARK    7  A    between atoms: C_14  and  C_15 
REMARK    8  A    between atoms: C_18  and  S_19 
REMARK    9  A    between atoms: S_19  and  N_20 
REMARK   10  A    between atoms: C_29  and  N_30 
ROOT
HETATM    1  N   UNL     1      27.910  41.896  50.999  1.00  0.00    -0.276 N 
HETATM    2  C   UNL     1      27.359  42.368  49.844  1.00  0.00     0.177 A 
HETATM    3  N   UNL     1      27.357  41.718  48.666  1.00  0.00    -0.204 NA
HETATM    4  C   UNL     1      27.893  40.501  48.763  1.00  0.00     0.162 A 
HETATM    5  C   UNL     1      28.424  39.921  49.897  1.00  0.00     0.081 A 
HETATM    6  C   UNL     1      28.469  40.657  51.093  1.00  0.00     0.124 A 
HETATM    7  N   UNL     1      27.999  39.585  47.757  1.00  0.00    -0.260 N 
HETATM    8  H   UNL     1      27.703  39.681  46.790  1.00  0.00     0.191 HD
HETATM    9  N   UNL     1      28.552  38.430  48.159  1.00  0.00    -0.177 NA
HETATM   10  C   UNL     1      28.798  38.613  49.461  1.00  0.00     0.068 A 
HETATM   11  C   UNL     1      29.381  37.498  50.253  1.00  0.00     0.073 C 
ENDROOT
BRANCH   2  12
HETATM   12  S   UNL     1      26.371  43.864  49.841  1.00  0.00    -0.082 SA
BRANCH  12  13
HETATM   13  C   UNL     1      24.698  43.169  49.655  1.00  0.00     0.185 C 
BRANCH  13  14
HETATM   14  C   UNL     1      23.704  44.055  50.378  1.00  0.00     0.227 C 
HETATM   15  N   UNL     1      22.495  44.324  49.801  1.00  0.00    -0.360 N 
HETATM   16  H   UNL     1      21.961  45.005  50.334  1.00  0.00     0.162 HD
HETATM   17  O   UNL     1      23.971  44.536  51.479  1.00  0.00    -0.273 OA
BRANCH  15  18
HETATM   18  C   UNL     1      22.089  44.076  48.424  1.00  0.00     0.127 C 
BRANCH  18  19
HETATM   19  C   UNL     1      22.313  45.278  47.498  1.00  0.00     0.058 C 
BRANCH  19  20
HETATM   20  C   UNL     1      21.898  46.588  48.129  1.00  0.00    -0.057 A 
HETATM   21  C   UNL     1      20.543  46.919  48.274  1.00  0.00     0.009 A 
HETATM   22  C   UNL     1      20.166  48.157  48.798  1.00  0.00     0.025 A 
HETATM   23  C   UNL     1      21.152  49.064  49.197  1.00  0.00     0.074 A 
HETATM   24  C   UNL     1      22.505  48.745  49.072  1.00  0.00     0.025 A 
HETATM   25  C   UNL     1      22.875  47.507  48.544  1.00  0.00     0.009 A 
BRANCH  23  26
HETATM   26  S   UNL     1      20.680  50.665  49.784  1.00  0.00     0.239 S 
HETATM   27  O   UNL     1      20.834  51.624  48.715  1.00  0.00    -0.206 OA
HETATM   28  O   UNL     1      19.458  50.542  50.545  1.00  0.00    -0.206 OA
BRANCH  26  29
HETATM   29  N   UNL     1      21.890  51.002  50.894  1.00  0.00    -0.225 NA
HETATM   30  H   UNL     1      22.784  50.649  50.549  1.00  0.00     0.136 HD
HETATM   31  H   UNL     1      21.903  52.002  51.102  1.00  0.00     0.136 HD
ENDBRANCH  26  29
ENDBRANCH  23  26
ENDBRANCH  19  20
ENDBRANCH  18  19
ENDBRANCH  15  18
ENDBRANCH  13  14
ENDBRANCH  12  13
ENDBRANCH   2  12
BRANCH   1  32
HETATM   32  C   UNL     1      27.908  42.738  52.164  1.00  0.00     0.045 A 
HETATM   33  C   UNL     1      26.714  42.946  52.848  1.00  0.00     0.054 A 
HETATM   34  C   UNL     1      26.725  43.791  53.958  1.00  0.00     0.042 A 
HETATM   35  C   UNL     1      27.915  44.416  54.379  1.00  0.00    -0.040 A 
HETATM   36 CL   UNL     1      25.233  44.040  54.785  1.00  0.00    -0.084 Cl
HETATM   37  C   UNL     1      27.944  45.338  55.569  1.00  0.00     0.050 C 
HETATM   38  C   UNL     1      29.106  44.167  53.673  1.00  0.00     0.011 A 
HETATM   39  C   UNL     1      29.111  43.325  52.563  1.00  0.00     0.031 A 
ENDBRANCH   1  32
BRANCH   6  40
HETATM   40  N   UNL     1      29.034  40.166  52.261  1.00  0.00    -0.384 N 
HETATM   41  H   UNL     1      30.013  40.355  52.453  1.00  0.00     0.157 HD
HETATM   42  H   UNL     1      28.489  39.904  53.073  1.00  0.00     0.157 HD
ENDBRANCH   6  40
TORSDOF 10
ENDMDL
MODEL 3
REMARK VINA RESULT:      -9.1     10.520     12.755
REMARK  10 active torsions:
REMARK  status: ('A' for Active; 'I' for Inactive)
REMARK    1  A    between atoms: C_6  and  N_7 
REMARK    2  A    between atoms: C_8  and  S_9 
REMARK    3  A    between atoms: S_9  and  C_10 
REMARK    4  A    between atoms: C_10  and  C_11 
REMARK       I    between atoms: C_11  and  N_12 
REMARK    5  A    between atoms: N_12  and  C_13 
REMARK    6  A    between atoms: C_13  and  C_14 
REMARK    7  A    between atoms: C_14  and  C_15 
REMARK    8  A    between atoms: C_18  and  S_19 
REMARK    9  A    between atoms: S_19  and  N_20 
REMARK   10  A    between atoms: C_29  and  N_30 
ROOT
HETATM    1  N   UNL     1      27.890  47.289  40.338  1.00  0.00    -0.276 N 
HETATM    2  C   UNL     1      28.230  47.039  39.041  1.00  0.00     0.177 A 
HETATM    3  N   UNL     1      29.339  47.493  38.431  1.00  0.00    -0.204 NA
HETATM    4  C   UNL     1      30.132  48.165  39.265  1.00  0.00     0.162 A 
HETATM    5  C   UNL     1      29.898  48.421  40.601  1.00  0.00     0.081 A 
HETATM    6  C   UNL     1      28.696  47.988  41.186  1.00  0.00     0.124 A 
HETATM    7  N   UNL     1      31.344  48.712  38.960  1.00  0.00    -0.260 N 
HETATM    8  H   UNL     1      31.825  48.707  38.064  1.00  0.00     0.191 HD
HETATM    9  N   UNL     1      31.933  49.300  40.013  1.00  0.00    -0.177 NA
HETATM   10  C   UNL     1      31.073  49.114  41.021  1.00  0.00     0.068 A 
HETATM   11  C   UNL     1      31.429  49.607  42.378  1.00  0.00     0.073 C 
ENDROOT
BRANCH   2  12
HETATM   12  S   UNL     1      27.295  45.869  38.056  1.00  0.00    -0.082 SA
BRANCH  12  13
HETATM   13  C   UNL     1      26.875  46.896  36.611  1.00  0.00     0.185 C 
BRANCH  13  14
HETATM   14  C   UNL     1      25.536  47.567  36.845  1.00  0.00     0.227 C 
HETATM   15  N   UNL     1      25.492  48.893  37.168  1.00  0.00    -0.360 N 
HETATM   16  H   UNL     1      24.550  49.199  37.395  1.00  0.00     0.162 HD
HETATM   17  O   UNL     1      24.487  46.931  36.746  1.00  0.00    -0.273 OA
BRANCH  15  18
HETATM   18  C   UNL     1      26.597  49.748  37.580  1.00  0.00     0.127 C 
BRANCH  18  19
HETATM   19  C   UNL     1      26.394  50.382  38.962  1.00  0.00     0.058 C 
BRANCH  19  20
HETATM   20  C   UNL     1      27.607  51.147  39.439  1.00  0.00    -0.057 A 
HETATM   21  C   UNL     1      28.648  51.468  38.555  1.00  0.00     0.009 A 
HETATM   22  C   UNL     1      29.795  52.118  39.016  1.00  0.00     0.025 A 
HETATM   23  C   UNL     1      29.894  52.467  40.365  1.00  0.00     0.074 A 
HETATM   24  C   UNL     1      28.861  52.167  41.255  1.00  0.00     0.025 A 
HETATM   25  C   UNL     1      27.718  51.514  40.790  1.00  0.00     0.009 A 
BRANCH  23  26
HETATM   26  S   UNL     1      31.379  53.215  40.968  1.00  0.00     0.239 S 
HETATM   27  O   UNL     1      31.498  52.956  42.384  1.00  0.00    -0.206 OA
HETATM   28  O   UNL     1      32.451  52.942  40.037  1.00  0.00    -0.206 OA
BRANCH  26  29
HETATM   29  N   UNL     1      31.035  54.849  40.817  1.00  0.00    -0.225 NA
HETATM   30  H   UNL     1      31.886  55.362  40.581  1.00  0.00     0.136 HD
HETATM   31  H   UNL     1      30.280  54.985  40.143  1.00  0.00     0.136 HD
ENDBRANCH  26  29
ENDBRANCH  23  26
ENDBRANCH  19  20
ENDBRANCH  18  19
ENDBRANCH  15  18
ENDBRANCH  13  14
ENDBRANCH  12  13
ENDBRANCH   2  12
BRANCH   1  32
HETATM   32  C   UNL     1      26.630  46.805  40.831  1.00  0.00     0.045 A 
HETATM   33  C   UNL     1      25.467  47.507  40.526  1.00  0.00     0.054 A 
HETATM   34  C   UNL     1      24.257  47.041  41.039  1.00  0.00     0.042 A 
HETATM   35  C   UNL     1      24.211  45.885  41.842  1.00  0.00    -0.040 A 
HETATM   36 CL   UNL     1      22.832  47.931  40.655  1.00  0.00    -0.084 Cl
HETATM   37  C   UNL     1      22.915  45.370  42.412  1.00  0.00     0.050 C 
HETATM   38  C   UNL     1      25.404  45.190  42.113  1.00  0.00     0.011 A 
HETATM   39  C   UNL     1      26.620  45.644  41.608  1.00  0.00     0.031 A 
ENDBRANCH   1  32
BRANCH   6  40
HETATM   40  N   UNL     1      28.361  48.251  42.506  1.00  0.00    -0.384 N 
HETATM   41  H   UNL     1      28.706  49.100  42.943  1.00  0.00     0.157 HD
HETATM   42  H   UNL     1      27.563  47.834  42.970  1.00  0.00     0.157 HD
ENDBRANCH   6  40
TORSDOF 10
ENDMDL
MODEL 4
REMARK VINA RESULT:      -9.0      4.777      9.326
REMARK  10 active torsions:
REMARK  status: ('A' for Active; 'I' for Inactive)
REMARK    1  A    between atoms: C_6  and  N_7 
REMARK    2  A    between atoms: C_8  and  S_9 
REMARK    3  A    between atoms: S_9  and  C_10 
REMARK    4  A    between atoms: C_10  and  C_11 
REMARK       I    between atoms: C_11  and  N_12 
REMARK    5  A    between atoms: N_12  and  C_13 
REMARK    6  A    between atoms: C_13  and  C_14 
REMARK    7  A    between atoms: C_14  and  C_15 
REMARK    8  A    between atoms: C_18  and  S_19 
REMARK    9  A    between atoms: S_19  and  N_20 
REMARK   10  A    between atoms: C_29  and  N_30 
ROOT
HETATM    1  N   UNL     1      24.673  44.051  49.649  1.00  0.00    -0.276 N 
HETATM    2  C   UNL     1      25.552  43.126  49.166  1.00  0.00     0.177 A 
HETATM    3  N   UNL     1      25.293  42.262  48.168  1.00  0.00    -0.204 NA
HETATM    4  C   UNL     1      24.088  42.458  47.633  1.00  0.00     0.162 A 
HETATM    5  C   UNL     1      23.157  43.399  48.020  1.00  0.00     0.081 A 
HETATM    6  C   UNL     1      23.436  44.240  49.111  1.00  0.00     0.124 A 
HETATM    7  N   UNL     1      23.552  41.772  46.582  1.00  0.00    -0.260 N 
HETATM    8  H   UNL     1      23.970  41.012  46.053  1.00  0.00     0.191 HD
HETATM    9  N   UNL     1      22.332  42.212  46.239  1.00  0.00    -0.177 NA
HETATM   10  C   UNL     1      22.086  43.213  47.092  1.00  0.00     0.068 A 
HETATM   11  C   UNL     1      20.816  43.975  46.971  1.00  0.00     0.073 C 
ENDROOT
BRANCH   2  12
HETATM   12  S   UNL     1      27.263  43.118  49.700  1.00  0.00    -0.082 SA
BRANCH  12  13
HETATM   13  C   UNL     1      27.571  41.328  49.834  1.00  0.00     0.185 C 
BRANCH  13  14
HETATM   14  C   UNL     1      26.860  40.788  51.059  1.00  0.00     0.227 C 
HETATM   15  N   UNL     1      27.369  41.041  52.301  1.00  0.00    -0.360 N 
HETATM   16  H   UNL     1      26.861  40.545  53.029  1.00  0.00     0.162 HD
HETATM   17  O   UNL     1      25.830  40.124  50.949  1.00  0.00    -0.273 OA
BRANCH  15  18
HETATM   18  C   UNL     1      28.684  41.571  52.635  1.00  0.00     0.127 C 
BRANCH  18  19
HETATM   19  C   UNL     1      28.739  43.104  52.642  1.00  0.00     0.058 C 
BRANCH  19  20
HETATM   20  C   UNL     1      29.316  43.663  53.922  1.00  0.00    -0.057 A 
HETATM   21  C   UNL     1      30.382  43.021  54.571  1.00  0.00     0.009 A 
HETATM   22  C   UNL     1      30.869  43.507  55.786  1.00  0.00     0.025 A 
HETATM   23  C   UNL     1      30.299  44.652  56.347  1.00  0.00     0.074 A 
HETATM   24  C   UNL     1      29.247  45.311  55.708  1.00  0.00     0.025 A 
HETATM   25  C   UNL     1      28.762  44.819  54.495  1.00  0.00     0.009 A 
BRANCH  23  26
HETATM   26  S   UNL     1      30.857  45.222  57.927  1.00  0.00     0.239 S 
HETATM   27  O   UNL     1      31.869  44.319  58.424  1.00  0.00    -0.206 OA
HETATM   28  O   UNL     1      31.058  46.652  57.863  1.00  0.00    -0.206 OA
BRANCH  26  29
HETATM   29  N   UNL     1      29.503  44.982  58.884  1.00  0.00    -0.225 NA
HETATM   30  H   UNL     1      29.265  43.989  58.904  1.00  0.00     0.136 HD
HETATM   31  H   UNL     1      29.657  45.380  59.812  1.00  0.00     0.136 HD
ENDBRANCH  26  29
ENDBRANCH  23  26
ENDBRANCH  19  20
ENDBRANCH  18  19
ENDBRANCH  15  18
ENDBRANCH  13  14
ENDBRANCH  12  13
ENDBRANCH   2  12
BRANCH   1  32
HETATM   32  C   UNL     1      25.061  44.854  50.777  1.00  0.00     0.045 A 
HETATM   33  C   UNL     1      24.984  44.309  52.055  1.00  0.00     0.054 A 
HETATM   34  C   UNL     1      25.335  45.113  53.140  1.00  0.00     0.042 A 
HETATM   35  C   UNL     1      25.760  46.441  52.947  1.00  0.00    -0.040 A 
HETATM   36 CL   UNL     1      25.224  44.420  54.715  1.00  0.00    -0.084 Cl
HETATM   37  C   UNL     1      26.134  47.327  54.107  1.00  0.00     0.050 C 
HETATM   38  C   UNL     1      25.843  46.951  51.639  1.00  0.00     0.011 A 
HETATM   39  C   UNL     1      25.497  46.161  50.545  1.00  0.00     0.031 A 
ENDBRANCH   1  32
BRANCH   6  40
HETATM   40  N   UNL     1      22.532  45.175  49.594  1.00  0.00    -0.384 N 
HETATM   41  H   UNL     1      21.876  44.898  50.317  1.00  0.00     0.157 HD
HETATM   42  H   UNL     1      22.672  46.174  49.513  1.00  0.00     0.157 HD
ENDBRANCH   6  40
TORSDOF 10
ENDMDL
MODEL 5
REMARK VINA RESULT:      -9.0      2.828      4.816
REMARK  10 active torsions:
REMARK  status: ('A' for Active; 'I' for Inactive)
REMARK    1  A    between atoms: C_6  and  N_7 
REMARK    2  A    between atoms: C_8  and  S_9 
REMARK    3  A    between atoms: S_9  and  C_10 
REMARK    4  A    between atoms: C_10  and  C_11 
REMARK       I    between atoms: C_11  and  N_12 
REMARK    5  A    between atoms: N_12  and  C_13 
REMARK    6  A    between atoms: C_13  and  C_14 
REMARK    7  A    between atoms: C_14  and  C_15 
REMARK    8  A    between atoms: C_18  and  S_19 
REMARK    9  A    between atoms: S_19  and  N_20 
REMARK   10  A    between atoms: C_29  and  N_30 
ROOT
HETATM    1  N   UNL     1      25.822  45.766  50.982  1.00  0.00    -0.276 N 
HETATM    2  C   UNL     1      25.800  44.538  50.389  1.00  0.00     0.177 A 
HETATM    3  N   UNL     1      26.267  43.404  50.941  1.00  0.00    -0.204 NA
HETATM    4  C   UNL     1      26.693  43.592  52.190  1.00  0.00     0.162 A 
HETATM    5  C   UNL     1      26.704  44.782  52.888  1.00  0.00     0.081 A 
HETATM    6  C   UNL     1      26.271  45.959  52.254  1.00  0.00     0.124 A 
HETATM    7  N   UNL     1      27.183  42.632  53.028  1.00  0.00    -0.260 N 
HETATM    8  H   UNL     1      27.310  41.642  52.837  1.00  0.00     0.191 HD
HETATM    9  N   UNL     1      27.502  43.110  54.240  1.00  0.00    -0.177 NA
HETATM   10  C   UNL     1      27.199  44.412  54.176  1.00  0.00     0.068 A 
HETATM   11  C   UNL     1      27.386  45.261  55.382  1.00  0.00     0.073 C 
ENDROOT
BRANCH   2  12
HETATM   12  S   UNL     1      24.928  44.279  48.843  1.00  0.00    -0.082 SA
BRANCH  12  13
HETATM   13  C   UNL     1      23.327  43.661  49.454  1.00  0.00     0.185 C 
BRANCH  13  14
HETATM   14  C   UNL     1      22.578  43.000  48.314  1.00  0.00     0.227 C 
HETATM   15  N   UNL     1      22.299  43.716  47.184  1.00  0.00    -0.360 N 
HETATM   16  H   UNL     1      21.710  43.196  46.539  1.00  0.00     0.162 HD
HETATM   17  O   UNL     1      22.217  41.827  48.393  1.00  0.00    -0.273 OA
BRANCH  15  18
HETATM   18  C   UNL     1      22.403  45.156  46.993  1.00  0.00     0.127 C 
BRANCH  18  19
HETATM   19  C   UNL     1      21.117  45.793  46.453  1.00  0.00     0.058 C 
BRANCH  19  20
HETATM   20  C   UNL     1      20.562  46.859  47.371  1.00  0.00    -0.057 A 
HETATM   21  C   UNL     1      20.661  48.218  47.036  1.00  0.00     0.009 A 
HETATM   22  C   UNL     1      20.205  49.201  47.916  1.00  0.00     0.025 A 
HETATM   23  C   UNL     1      19.629  48.823  49.132  1.00  0.00     0.074 A 
HETATM   24  C   UNL     1      19.510  47.474  49.474  1.00  0.00     0.025 A 
HETATM   25  C   UNL     1      19.971  46.496  48.591  1.00  0.00     0.009 A 
BRANCH  23  26
HETATM   26  S   UNL     1      19.126  50.066  50.285  1.00  0.00     0.239 S 
HETATM   27  O   UNL     1      20.254  50.916  50.586  1.00  0.00    -0.206 OA
HETATM   28  O   UNL     1      17.846  50.595  49.873  1.00  0.00    -0.206 OA
BRANCH  26  29
HETATM   29  N   UNL     1      18.836  49.164  51.668  1.00  0.00    -0.225 NA
HETATM   30  H   UNL     1      19.079  49.711  52.496  1.00  0.00     0.136 HD
HETATM   31  H   UNL     1      17.870  48.834  51.672  1.00  0.00     0.136 HD
ENDBRANCH  26  29
ENDBRANCH  23  26
ENDBRANCH  19  20
ENDBRANCH  18  19
ENDBRANCH  15  18
ENDBRANCH  13  14
ENDBRANCH  12  13
ENDBRANCH   2  12
BRANCH   1  32
HETATM   32  C   UNL     1      25.361  46.905  50.236  1.00  0.00     0.045 A 
HETATM   33  C   UNL     1      26.295  47.791  49.706  1.00  0.00     0.054 A 
HETATM   34  C   UNL     1      25.830  48.907  49.012  1.00  0.00     0.042 A 
HETATM   35  C   UNL     1      24.449  49.132  48.848  1.00  0.00    -0.040 A 
HETATM   36 CL   UNL     1      27.004  49.994  48.371  1.00  0.00    -0.084 Cl
HETATM   37  C   UNL     1      23.927  50.337  48.109  1.00  0.00     0.050 C 
HETATM   38  C   UNL     1      23.536  48.206  49.382  1.00  0.00     0.011 A 
HETATM   39  C   UNL     1      23.985  47.085  50.077  1.00  0.00     0.031 A 
ENDBRANCH   1  32
BRANCH   6  40
HETATM   40  N   UNL     1      26.300  47.203  52.867  1.00  0.00    -0.384 N 
HETATM   41  H   UNL     1      26.957  47.363  53.625  1.00  0.00     0.157 HD
HETATM   42  H   UNL     1      25.947  48.045  52.431  1.00  0.00     0.157 HD
ENDBRANCH   6  40
TORSDOF 10
ENDMDL
MODEL 6
REMARK VINA RESULT:      -9.0     11.696     14.755
REMARK  10 active torsions:
REMARK  status: ('A' for Active; 'I' for Inactive)
REMARK    1  A    between atoms: C_6  and  N_7 
REMARK    2  A    between atoms: C_8  and  S_9 
REMARK    3  A    between atoms: S_9  and  C_10 
REMARK    4  A    between atoms: C_10  and  C_11 
REMARK       I    between atoms: C_11  and  N_12 
REMARK    5  A    between atoms: N_12  and  C_13 
REMARK    6  A    between atoms: C_13  and  C_14 
REMARK    7  A    between atoms: C_14  and  C_15 
REMARK    8  A    between atoms: C_18  and  S_19 
REMARK    9  A    between atoms: S_19  and  N_20 
REMARK   10  A    between atoms: C_29  and  N_30 
ROOT
HETATM    1  N   UNL     1      27.953  49.255  39.389  1.00  0.00    -0.276 N 
HETATM    2  C   UNL     1      27.921  50.282  38.492  1.00  0.00     0.177 A 
HETATM    3  N   UNL     1      26.813  50.748  37.889  1.00  0.00    -0.204 NA
HETATM    4  C   UNL     1      25.710  50.139  38.326  1.00  0.00     0.162 A 
HETATM    5  C   UNL     1      25.640  49.132  39.265  1.00  0.00     0.081 A 
HETATM    6  C   UNL     1      26.826  48.625  39.824  1.00  0.00     0.124 A 
HETATM    7  N   UNL     1      24.431  50.416  37.939  1.00  0.00    -0.260 N 
HETATM    8  H   UNL     1      24.117  51.106  37.263  1.00  0.00     0.191 HD
HETATM    9  N   UNL     1      23.519  49.665  38.575  1.00  0.00    -0.177 NA
HETATM   10  C   UNL     1      24.239  48.892  39.398  1.00  0.00     0.068 A 
HETATM   11  C   UNL     1      23.536  47.949  40.307  1.00  0.00     0.073 C 
ENDROOT
BRANCH   2  12
HETATM   12  S   UNL     1      29.381  51.275  38.180  1.00  0.00    -0.082 SA
BRANCH  12  13
HETATM   13  C   UNL     1      28.922  52.828  39.012  1.00  0.00     0.185 C 
BRANCH  13  14
HETATM   14  C   UNL     1      29.039  52.647  40.513  1.00  0.00     0.227 C 
HETATM   15  N   UNL     1      30.233  52.887  41.131  1.00  0.00    -0.360 N 
HETATM   16  H   UNL     1      30.210  52.636  42.116  1.00  0.00     0.162 HD
HETATM   17  O   UNL     1      28.071  52.287  41.182  1.00  0.00    -0.273 OA
BRANCH  15  18
HETATM   18  C   UNL     1      31.539  53.066  40.510  1.00  0.00     0.127 C 
BRANCH  18  19
HETATM   19  C   UNL     1      32.237  51.743  40.172  1.00  0.00     0.058 C 
BRANCH  19  20
HETATM   20  C   UNL     1      33.545  51.566  40.910  1.00  0.00    -0.057 A 
HETATM   21  C   UNL     1      33.587  51.588  42.312  1.00  0.00     0.009 A 
HETATM   22  C   UNL     1      34.806  51.488  42.986  1.00  0.00     0.025 A 
HETATM   23  C   UNL     1      35.988  51.347  42.255  1.00  0.00     0.074 A 
HETATM   24  C   UNL     1      35.961  51.310  40.860  1.00  0.00     0.025 A 
HETATM   25  C   UNL     1      34.741  51.414  40.191  1.00  0.00     0.009 A 
BRANCH  23  26
HETATM   26  S   UNL     1      37.540  51.305  43.103  1.00  0.00     0.239 S 
HETATM   27  O   UNL     1      37.997  49.937  43.185  1.00  0.00    -0.206 OA
HETATM   28  O   UNL     1      38.376  52.372  42.601  1.00  0.00    -0.206 OA
BRANCH  26  29
HETATM   29  N   UNL     1      37.102  51.747  44.660  1.00  0.00    -0.225 NA
HETATM   30  H   UNL     1      37.545  52.634  44.905  1.00  0.00     0.136 HD
HETATM   31  H   UNL     1      36.084  51.766  44.742  1.00  0.00     0.136 HD
ENDBRANCH  26  29
ENDBRANCH  23  26
ENDBRANCH  19  20
ENDBRANCH  18  19
ENDBRANCH  15  18
ENDBRANCH  13  14
ENDBRANCH  12  13
ENDBRANCH   2  12
BRANCH   1  32
HETATM   32  C   UNL     1      29.225  48.811  39.891  1.00  0.00     0.045 A 
HETATM   33  C   UNL     1      29.638  49.227  41.154  1.00  0.00     0.054 A 
HETATM   34  C   UNL     1      30.887  48.813  41.613  1.00  0.00     0.042 A 
HETATM   35  C   UNL     1      31.711  47.989  40.820  1.00  0.00    -0.040 A 
HETATM   36 CL   UNL     1      31.381  49.347  43.175  1.00  0.00    -0.084 Cl
HETATM   37  C   UNL     1      33.068  47.538  41.295  1.00  0.00     0.050 C 
HETATM   38  C   UNL     1      31.252  47.573  39.557  1.00  0.00     0.011 A 
HETATM   39  C   UNL     1      30.006  47.979  39.086  1.00  0.00     0.031 A 
ENDBRANCH   1  32
BRANCH   6  40
HETATM   40  N   UNL     1      26.845  47.577  40.734  1.00  0.00    -0.384 N 
HETATM   41  H   UNL     1      27.675  47.432  41.300  1.00  0.00     0.157 HD
HETATM   42  H   UNL     1      26.006  47.142  41.096  1.00  0.00     0.157 HD
ENDBRANCH   6  40
TORSDOF 10
ENDMDL
MODEL 7
REMARK VINA RESULT:      -8.9      2.502      3.230
REMARK  10 active torsions:
REMARK  status: ('A' for Active; 'I' for Inactive)
REMARK    1  A    between atoms: C_6  and  N_7 
REMARK    2  A    between atoms: C_8  and  S_9 
REMARK    3  A    between atoms: S_9  and  C_10 
REMARK    4  A    between atoms: C_10  and  C_11 
REMARK       I    between atoms: C_11  and  N_12 
REMARK    5  A    between atoms: N_12  and  C_13 
REMARK    6  A    between atoms: C_13  and  C_14 
REMARK    7  A    between atoms: C_14  and  C_15 
REMARK    8  A    between atoms: C_18  and  S_19 
REMARK    9  A    between atoms: S_19  and  N_20 
REMARK   10  A    between atoms: C_29  and  N_30 
ROOT
HETATM    1  N   UNL     1      25.787  44.820  51.566  1.00  0.00    -0.276 N 
HETATM    2  C   UNL     1      25.250  46.032  51.242  1.00  0.00     0.177 A 
HETATM    3  N   UNL     1      25.320  47.137  52.005  1.00  0.00    -0.204 NA
HETATM    4  C   UNL     1      26.054  46.945  53.102  1.00  0.00     0.162 A 
HETATM    5  C   UNL     1      26.677  45.775  53.483  1.00  0.00     0.081 A 
HETATM    6  C   UNL     1      26.525  44.622  52.695  1.00  0.00     0.124 A 
HETATM    7  N   UNL     1      26.345  47.882  54.050  1.00  0.00    -0.260 N 
HETATM    8  H   UNL     1      26.050  48.854  54.080  1.00  0.00     0.191 HD
HETATM    9  N   UNL     1      27.136  47.410  55.026  1.00  0.00    -0.177 NA
HETATM   10  C   UNL     1      27.361  46.135  54.685  1.00  0.00     0.068 A 
HETATM   11  C   UNL     1      28.252  45.303  55.535  1.00  0.00     0.073 C 
ENDROOT
BRANCH   2  12
HETATM   12  S   UNL     1      24.552  46.322  49.616  1.00  0.00    -0.082 SA
BRANCH  12  13
HETATM   13  C   UNL     1      23.858  47.992  49.836  1.00  0.00     0.185 C 
BRANCH  13  14
HETATM   14  C   UNL     1      24.675  48.984  49.032  1.00  0.00     0.227 C 
HETATM   15  N   UNL     1      24.062  50.073  48.481  1.00  0.00    -0.360 N 
HETATM   16  H   UNL     1      24.692  50.605  47.887  1.00  0.00     0.162 HD
HETATM   17  O   UNL     1      25.883  48.821  48.869  1.00  0.00    -0.273 OA
BRANCH  15  18
HETATM   18  C   UNL     1      22.632  50.314  48.336  1.00  0.00     0.127 C 
BRANCH  18  19
HETATM   19  C   UNL     1      21.979  50.881  49.602  1.00  0.00     0.058 C 
BRANCH  19  20
HETATM   20  C   UNL     1      20.496  51.122  49.437  1.00  0.00    -0.057 A 
HETATM   21  C   UNL     1      19.566  50.477  50.267  1.00  0.00     0.009 A 
HETATM   22  C   UNL     1      18.196  50.654  50.069  1.00  0.00     0.025 A 
HETATM   23  C   UNL     1      17.751  51.496  49.047  1.00  0.00     0.074 A 
HETATM   24  C   UNL     1      18.663  52.156  48.221  1.00  0.00     0.025 A 
HETATM   25  C   UNL     1      20.032  51.973  48.421  1.00  0.00     0.009 A 
BRANCH  23  26
HETATM   26  S   UNL     1      16.016  51.658  48.740  1.00  0.00     0.239 S 
HETATM   27  O   UNL     1      15.536  50.456  48.099  1.00  0.00    -0.206 OA
HETATM   28  O   UNL     1      15.384  52.216  49.914  1.00  0.00    -0.206 OA
BRANCH  26  29
HETATM   29  N   UNL     1      15.977  52.859  47.572  1.00  0.00    -0.225 NA
HETATM   30  H   UNL     1      16.911  52.993  47.181  1.00  0.00     0.136 HD
HETATM   31  H   UNL     1      15.271  52.638  46.868  1.00  0.00     0.136 HD
ENDBRANCH  26  29
ENDBRANCH  23  26
ENDBRANCH  19  20
ENDBRANCH  18  19
ENDBRANCH  15  18
ENDBRANCH  13  14
ENDBRANCH  12  13
ENDBRANCH   2  12
BRANCH   1  32
HETATM   32  C   UNL     1      25.562  43.704  50.689  1.00  0.00     0.045 A 
HETATM   33  C   UNL     1      26.616  43.228  49.913  1.00  0.00     0.054 A 
HETATM   34  C   UNL     1      26.372  42.165  49.045  1.00  0.00     0.042 A 
HETATM   35  C   UNL     1      25.092  41.583  48.957  1.00  0.00    -0.040 A 
HETATM   36 CL   UNL     1      27.689  41.598  48.088  1.00  0.00    -0.084 Cl
HETATM   37  C   UNL     1      24.807  40.440  48.019  1.00  0.00     0.050 C 
HETATM   38  C   UNL     1      24.057  42.078  49.770  1.00  0.00     0.011 A 
HETATM   39  C   UNL     1      24.285  43.140  50.642  1.00  0.00     0.031 A 
ENDBRANCH   1  32
BRANCH   6  40
HETATM   40  N   UNL     1      27.075  43.395  53.036  1.00  0.00    -0.384 N 
HETATM   41  H   UNL     1      27.204  43.169  54.017  1.00  0.00     0.157 HD
HETATM   42  H   UNL     1      27.073  42.595  52.416  1.00  0.00     0.157 HD
ENDBRANCH   6  40
TORSDOF 10
ENDMDL
MODEL 8
REMARK VINA RESULT:      -8.9      2.162      2.672
REMARK  10 active torsions:
REMARK  status: ('A' for Active; 'I' for Inactive)
REMARK    1  A    between atoms: C_6  and  N_7 
REMARK    2  A    between atoms: C_8  and  S_9 
REMARK    3  A    between atoms: S_9  and  C_10 
REMARK    4  A    between atoms: C_10  and  C_11 
REMARK       I    between atoms: C_11  and  N_12 
REMARK    5  A    between atoms: N_12  and  C_13 
REMARK    6  A    between atoms: C_13  and  C_14 
REMARK    7  A    between atoms: C_14  and  C_15 
REMARK    8  A    between atoms: C_18  and  S_19 
REMARK    9  A    between atoms: S_19  and  N_20 
REMARK   10  A    between atoms: C_29  and  N_30 
ROOT
HETATM    1  N   UNL     1      27.328  42.695  51.755  1.00  0.00    -0.276 N 
HETATM    2  C   UNL     1      26.436  43.725  51.819  1.00  0.00     0.177 A 
HETATM    3  N   UNL     1      26.438  44.694  52.752  1.00  0.00    -0.204 NA
HETATM    4  C   UNL     1      27.475  44.588  53.583  1.00  0.00     0.162 A 
HETATM    5  C   UNL     1      28.453  43.615  53.563  1.00  0.00     0.081 A 
HETATM    6  C   UNL     1      28.379  42.581  52.615  1.00  0.00     0.124 A 
HETATM    7  N   UNL     1      27.778  45.439  54.606  1.00  0.00    -0.260 N 
HETATM    8  H   UNL     1      27.269  46.268  54.901  1.00  0.00     0.191 HD
HETATM    9  N   UNL     1      28.903  45.099  55.253  1.00  0.00    -0.177 NA
HETATM   10  C   UNL     1      29.335  44.003  54.617  1.00  0.00     0.068 A 
HETATM   11  C   UNL     1      30.608  43.369  55.048  1.00  0.00     0.073 C 
ENDROOT
BRANCH   2  12
HETATM   12  S   UNL     1      25.258  44.004  50.496  1.00  0.00    -0.082 SA
BRANCH  12  13
HETATM   13  C   UNL     1      24.814  45.744  50.795  1.00  0.00     0.185 C 
BRANCH  13  14
HETATM   14  C   UNL     1      25.572  46.629  49.826  1.00  0.00     0.227 C 
HETATM   15  N   UNL     1      25.000  47.787  49.379  1.00  0.00    -0.360 N 
HETATM   16  H   UNL     1      25.563  48.238  48.663  1.00  0.00     0.162 HD
HETATM   17  O   UNL     1      26.698  46.319  49.437  1.00  0.00    -0.273 OA
BRANCH  15  18
HETATM   18  C   UNL     1      23.610  48.202  49.507  1.00  0.00     0.127 C 
BRANCH  18  19
HETATM   19  C   UNL     1      23.373  49.665  49.113  1.00  0.00     0.058 C 
BRANCH  19  20
HETATM   20  C   UNL     1      21.909  49.989  48.919  1.00  0.00    -0.057 A 
HETATM   21  C   UNL     1      21.503  51.277  48.537  1.00  0.00     0.009 A 
HETATM   22  C   UNL     1      20.147  51.588  48.422  1.00  0.00     0.025 A 
HETATM   23  C   UNL     1      19.190  50.601  48.672  1.00  0.00     0.074 A 
HETATM   24  C   UNL     1      19.578  49.311  49.040  1.00  0.00     0.025 A 
HETATM   25  C   UNL     1      20.936  49.007  49.157  1.00  0.00     0.009 A 
BRANCH  23  26
HETATM   26  S   UNL     1      17.471  51.013  48.609  1.00  0.00     0.239 S 
HETATM   27  O   UNL     1      17.275  52.077  47.652  1.00  0.00    -0.206 OA
HETATM   28  O   UNL     1      16.699  49.792  48.579  1.00  0.00    -0.206 OA
BRANCH  26  29
HETATM   29  N   UNL     1      17.217  51.690  50.121  1.00  0.00    -0.225 NA
HETATM   30  H   UNL     1      16.714  51.030  50.716  1.00  0.00     0.136 HD
HETATM   31  H   UNL     1      18.106  51.998  50.519  1.00  0.00     0.136 HD
ENDBRANCH  26  29
ENDBRANCH  23  26
ENDBRANCH  19  20
ENDBRANCH  18  19
ENDBRANCH  15  18
ENDBRANCH  13  14
ENDBRANCH  12  13
ENDBRANCH   2  12
BRANCH   1  32
HETATM   32  C   UNL     1      27.152  41.685  50.748  1.00  0.00     0.045 A 
HETATM   33  C   UNL     1      27.769  41.847  49.511  1.00  0.00     0.054 A 
HETATM   34  C   UNL     1      27.563  40.873  48.534  1.00  0.00     0.042 A 
HETATM   35  C   UNL     1      26.752  39.751  48.794  1.00  0.00    -0.040 A 
HETATM   36 CL   UNL     1      28.331  41.098  47.008  1.00  0.00    -0.084 Cl
HETATM   37  C   UNL     1      26.510  38.693  47.750  1.00  0.00     0.050 C 
HETATM   38  C   UNL     1      26.159  39.612  50.062  1.00  0.00     0.011 A 
HETATM   39  C   UNL     1      26.357  40.576  51.048  1.00  0.00     0.031 A 
ENDBRANCH   1  32
BRANCH   6  40
HETATM   40  N   UNL     1      29.292  41.537  52.562  1.00  0.00    -0.384 N 
HETATM   41  H   UNL     1      30.152  41.608  53.096  1.00  0.00     0.157 HD
HETATM   42  H   UNL     1      29.042  40.595  52.288  1.00  0.00     0.157 HD
ENDBRANCH   6  40
TORSDOF 10
ENDMDL
MODEL 9
REMARK VINA RESULT:      -8.8      3.795      8.035
REMARK  10 active torsions:
REMARK  status: ('A' for Active; 'I' for Inactive)
REMARK    1  A    between atoms: C_6  and  N_7 
REMARK    2  A    between atoms: C_8  and  S_9 
REMARK    3  A    between atoms: S_9  and  C_10 
REMARK    4  A    between atoms: C_10  and  C_11 
REMARK       I    between atoms: C_11  and  N_12 
REMARK    5  A    between atoms: N_12  and  C_13 
REMARK    6  A    between atoms: C_13  and  C_14 
REMARK    7  A    between atoms: C_14  and  C_15 
REMARK    8  A    between atoms: C_18  and  S_19 
REMARK    9  A    between atoms: S_19  and  N_20 
REMARK   10  A    between atoms: C_29  and  N_30 
ROOT
HETATM    1  N   UNL     1      20.745  46.694  48.155  1.00  0.00    -0.276 N 
HETATM    2  C   UNL     1      21.839  47.305  48.694  1.00  0.00     0.177 A 
HETATM    3  N   UNL     1      23.014  46.703  48.950  1.00  0.00    -0.204 NA
HETATM    4  C   UNL     1      23.028  45.435  48.540  1.00  0.00     0.162 A 
HETATM    5  C   UNL     1      21.992  44.750  47.938  1.00  0.00     0.081 A 
HETATM    6  C   UNL     1      20.757  45.393  47.749  1.00  0.00     0.124 A 
HETATM    7  N   UNL     1      24.084  44.574  48.620  1.00  0.00    -0.260 N 
HETATM    8  H   UNL     1      25.008  44.752  49.006  1.00  0.00     0.191 HD
HETATM    9  N   UNL     1      23.817  43.369  48.095  1.00  0.00    -0.177 NA
HETATM   10  C   UNL     1      22.555  43.468  47.660  1.00  0.00     0.068 A 
HETATM   11  C   UNL     1      21.934  42.308  46.967  1.00  0.00     0.073 C 
ENDROOT
BRANCH   2  12
HETATM   12  S   UNL     1      21.874  49.083  48.930  1.00  0.00    -0.082 SA
BRANCH  12  13
HETATM   13  C   UNL     1      23.642  49.345  49.281  1.00  0.00     0.185 C 
BRANCH  13  14
HETATM   14  C   UNL     1      24.324  49.885  48.040  1.00  0.00     0.227 C 
HETATM   15  N   UNL     1      25.688  49.934  47.987  1.00  0.00    -0.360 N 
HETATM   16  H   UNL     1      26.020  50.405  47.149  1.00  0.00     0.162 HD
HETATM   17  O   UNL     1      23.665  50.280  47.079  1.00  0.00    -0.273 OA
BRANCH  15  18
HETATM   18  C   UNL     1      26.631  49.764  49.085  1.00  0.00     0.127 C 
BRANCH  18  19
HETATM   19  C   UNL     1      27.487  48.498  48.961  1.00  0.00     0.058 C 
BRANCH  19  20
HETATM   20  C   UNL     1      26.952  47.346  49.781  1.00  0.00    -0.057 A 
HETATM   21  C   UNL     1      26.076  47.573  50.853  1.00  0.00     0.009 A 
HETATM   22  C   UNL     1      25.636  46.512  51.646  1.00  0.00     0.025 A 
HETATM   23  C   UNL     1      26.059  45.213  51.354  1.00  0.00     0.074 A 
HETATM   24  C   UNL     1      26.919  44.968  50.282  1.00  0.00     0.025 A 
HETATM   25  C   UNL     1      27.359  46.033  49.495  1.00  0.00     0.009 A 
BRANCH  23  26
HETATM   26  S   UNL     1      25.570  43.877  52.407  1.00  0.00     0.239 S 
HETATM   27  O   UNL     1      26.686  42.975  52.575  1.00  0.00    -0.206 OA
HETATM   28  O   UNL     1      24.830  44.412  53.527  1.00  0.00    -0.206 OA
BRANCH  26  29
HETATM   29  N   UNL     1      24.454  43.069  51.453  1.00  0.00    -0.225 NA
HETATM   30  H   UNL     1      24.861  42.199  51.106  1.00  0.00     0.136 HD
HETATM   31  H   UNL     1      23.586  42.932  51.973  1.00  0.00     0.136 HD
ENDBRANCH  26  29
ENDBRANCH  23  26
ENDBRANCH  19  20
ENDBRANCH  18  19
ENDBRANCH  15  18
ENDBRANCH  13  14
ENDBRANCH  12  13
ENDBRANCH   2  12
BRANCH   1  32
HETATM   32  C   UNL     1      19.528  47.446  48.014  1.00  0.00     0.045 A 
HETATM   33  C   UNL     1      19.263  48.086  46.806  1.00  0.00     0.054 A 
HETATM   34  C   UNL     1      18.092  48.836  46.697  1.00  0.00     0.042 A 
HETATM   35  C   UNL     1      17.198  48.941  47.780  1.00  0.00    -0.040 A 
HETATM   36 CL   UNL     1      17.788  49.626  45.196  1.00  0.00    -0.084 Cl
HETATM   37  C   UNL     1      15.933  49.754  47.684  1.00  0.00     0.050 C 
HETATM   38  C   UNL     1      17.491  48.265  48.979  1.00  0.00     0.011 A 
HETATM   39  C   UNL     1      18.655  47.511  49.102  1.00  0.00     0.031 A 
ENDBRANCH   1  32
BRANCH   6  40
HETATM   40  N   UNL     1      19.652  44.759  47.201  1.00  0.00    -0.384 N 
HETATM   41  H   UNL     1      19.097  44.142  47.786  1.00  0.00     0.157 HD
HETATM   42  H   UNL     1      19.178  45.091  46.370  1.00  0.00     0.157 HD
ENDBRANCH   6  40
TORSDOF 10
ENDMDL
MODEL 10
REMARK VINA RESULT:      -8.8     11.432     13.891
REMARK  10 active torsions:
REMARK  status: ('A' for Active; 'I' for Inactive)
REMARK    1  A    between atoms: C_6  and  N_7 
REMARK    2  A    between atoms: C_8  and  S_9 
REMARK    3  A    between atoms: S_9  and  C_10 
REMARK    4  A    between atoms: C_10  and  C_11 
REMARK       I    between atoms: C_11  and  N_12 
REMARK    5  A    between atoms: N_12  and  C_13 
REMARK    6  A    between atoms: C_13  and  C_14 
REMARK    7  A    between atoms: C_14  and  C_15 
REMARK    8  A    between atoms: C_18  and  S_19 
REMARK    9  A    between atoms: S_19  and  N_20 
REMARK   10  A    between atoms: C_29  and  N_30 
ROOT
HETATM    1  N   UNL     1      27.252  49.792  39.332  1.00  0.00    -0.276 N 
HETATM    2  C   UNL     1      27.991  49.297  38.297  1.00  0.00     0.177 A 
HETATM    3  N   UNL     1      29.188  49.769  37.907  1.00  0.00    -0.204 NA
HETATM    4  C   UNL     1      29.627  50.745  38.702  1.00  0.00     0.162 A 
HETATM    5  C   UNL     1      28.976  51.272  39.798  1.00  0.00     0.081 A 
HETATM    6  C   UNL     1      27.697  50.799  40.135  1.00  0.00     0.124 A 
HETATM    7  N   UNL     1      30.821  51.397  38.593  1.00  0.00    -0.260 N 
HETATM    8  H   UNL     1      31.550  51.256  37.899  1.00  0.00     0.191 HD
HETATM    9  N   UNL     1      31.007  52.311  39.558  1.00  0.00    -0.177 NA
HETATM   10  C   UNL     1      29.901  52.233  40.308  1.00  0.00     0.068 A 
HETATM   11  C   UNL     1      29.783  53.091  41.517  1.00  0.00     0.073 C 
ENDROOT
BRANCH   2  12
HETATM   12  S   UNL     1      27.508  47.784  37.465  1.00  0.00    -0.082 SA
BRANCH  12  13
HETATM   13  C   UNL     1      28.858  46.671  37.968  1.00  0.00     0.185 C 
BRANCH  13  14
HETATM   14  C   UNL     1      28.547  46.090  39.333  1.00  0.00     0.227 C 
HETATM   15  N   UNL     1      29.105  46.648  40.448  1.00  0.00    -0.360 N 
HETATM   16  H   UNL     1      28.900  46.111  41.286  1.00  0.00     0.162 HD
HETATM   17  O   UNL     1      27.796  45.122  39.450  1.00  0.00    -0.273 OA
BRANCH  15  18
HETATM   18  C   UNL     1      30.197  47.610  40.512  1.00  0.00     0.127 C 
BRANCH  18  19
HETATM   19  C   UNL     1      30.187  48.457  41.790  1.00  0.00     0.058 C 
BRANCH  19  20
HETATM   20  C   UNL     1      31.426  49.312  41.936  1.00  0.00    -0.057 A 
HETATM   21  C   UNL     1      32.488  49.199  41.026  1.00  0.00     0.009 A 
HETATM   22  C   UNL     1      33.656  49.943  41.203  1.00  0.00     0.025 A 
HETATM   23  C   UNL     1      33.756  50.820  42.286  1.00  0.00     0.074 A 
HETATM   24  C   UNL     1      32.703  50.954  43.193  1.00  0.00     0.025 A 
HETATM   25  C   UNL     1      31.539  50.204  43.014  1.00  0.00     0.009 A 
BRANCH  23  26
HETATM   26  S   UNL     1      35.265  51.702  42.560  1.00  0.00     0.239 S 
HETATM   27  O   UNL     1      35.626  52.408  41.353  1.00  0.00    -0.206 OA
HETATM   28  O   UNL     1      35.197  52.354  43.849  1.00  0.00    -0.206 OA
BRANCH  26  29
HETATM   29  N   UNL     1      36.374  50.456  42.725  1.00  0.00    -0.225 NA
HETATM   30  H   UNL     1      35.907  49.621  43.081  1.00  0.00     0.136 HD
HETATM   31  H   UNL     1      36.859  50.302  41.839  1.00  0.00     0.136 HD
ENDBRANCH  26  29
ENDBRANCH  23  26
ENDBRANCH  19  20
ENDBRANCH  18  19
ENDBRANCH  15  18
ENDBRANCH  13  14
ENDBRANCH  12  13
ENDBRANCH   2  12
BRANCH   1  32
HETATM   32  C   UNL     1      25.950  49.237  39.583  1.00  0.00     0.045 A 
HETATM   33  C   UNL     1      25.831  48.149  40.443  1.00  0.00     0.054 A 
HETATM   34  C   UNL     1      24.565  47.604  40.651  1.00  0.00     0.042 A 
HETATM   35  C   UNL     1      23.432  48.144  40.010  1.00  0.00    -0.040 A 
HETATM   36 CL   UNL     1      24.442  46.253  41.714  1.00  0.00    -0.084 Cl
HETATM   37  C   UNL     1      22.057  47.563  40.215  1.00  0.00     0.050 C 
HETATM   38  C   UNL     1      23.589  49.255  39.162  1.00  0.00     0.011 A 
HETATM   39  C   UNL     1      24.848  49.811  38.945  1.00  0.00     0.031 A 
ENDBRANCH   1  32
BRANCH   6  40
HETATM   40  N   UNL     1      26.954  51.313  41.188  1.00  0.00    -0.384 N 
HETATM   41  H   UNL     1      25.987  51.023  41.297  1.00  0.00     0.157 HD
HETATM   42  H   UNL     1      27.373  51.705  42.022  1.00  0.00     0.157 HD
ENDBRANCH   6  40
TORSDOF 10
ENDMDL
