MODEL 1
REMARK VINA RESULT:      -9.2      0.000      0.000
REMARK  6 active torsions:
REMARK  status: ('A' for Active; 'I' for Inactive)
REMARK    1  A    between atoms: C_5  and  C_6 
REMARK    2  A    between atoms: C_6  and  N_7 
REMARK    3  A    between atoms: C_9  and  C_10 
REMARK    4  A    between atoms: C_17  and  C_18 
REMARK       I    between atoms: C_18  and  N_19 
REMARK    5  A    between atoms: N_19  and  C_20 
REMARK    6  A    between atoms: C_23  and  O_24 
ROOT
HETATM    1  N   UNL     1      23.934  48.280  49.295  1.00  0.00    -0.275 N 
HETATM    2  N   UNL     1      23.185  49.365  49.547  1.00  0.00    -0.171 NA
HETATM    3  C   UNL     1      21.979  49.096  49.008  1.00  0.00     0.104 A 
HETATM    4  C   UNL     1      22.013  47.841  48.315  1.00  0.00     0.080 A 
HETATM    5  C   UNL     1      23.269  47.328  48.588  1.00  0.00     0.132 A 
ENDROOT
BRANCH   4   6
HETATM    6  C   UNL     1      21.055  47.150  47.463  1.00  0.00     0.255 C 
HETATM    7  N   UNL     1      19.758  47.183  47.917  1.00  0.00    -0.352 N 
HETATM    8  H   UNL     1      19.592  47.718  48.760  1.00  0.00     0.163 HD
HETATM    9  O   UNL     1      21.394  46.676  46.388  1.00  0.00    -0.268 OA
BRANCH   7  10
HETATM   10  C   UNL     1      18.561  46.790  47.174  1.00  0.00     0.084 C 
HETATM   11  C   UNL     1      17.439  46.274  48.087  1.00  0.00     0.028 C 
HETATM   12  C   UNL     1      16.456  47.348  48.551  1.00  0.00     0.034 C 
HETATM   13  C   UNL     1      15.923  48.175  47.387  1.00  0.00     0.118 C 
HETATM   14  C   UNL     1      17.044  48.808  46.571  1.00  0.00     0.034 C 
HETATM   15  C   UNL     1      18.097  47.798  46.114  1.00  0.00     0.028 C 
BRANCH  13  16
HETATM   16  O   UNL     1      15.154  47.333  46.527  1.00  0.00    -0.396 OA
HETATM   17  H   UNL     1      14.276  47.743  46.435  1.00  0.00     0.210 HD
ENDBRANCH  13  16
ENDBRANCH   7  10
ENDBRANCH   4   6
BRANCH   3  18
HETATM   18  C   UNL     1      20.889  50.068  49.180  1.00  0.00    -0.005 A 
HETATM   19  C   UNL     1      19.849  49.793  50.082  1.00  0.00     0.014 A 
HETATM   20  C   UNL     1      18.785  50.683  50.255  1.00  0.00     0.007 A 
HETATM   21  C   UNL     1      18.736  51.873  49.522  1.00  0.00    -0.062 A 
HETATM   22  C   UNL     1      17.597  52.828  49.726  1.00  0.00     0.048 C 
HETATM   23  C   UNL     1      19.765  52.154  48.618  1.00  0.00     0.007 A 
HETATM   24  C   UNL     1      20.824  51.254  48.437  1.00  0.00     0.014 A 
ENDBRANCH   3  18
BRANCH   1  25
HETATM   25  C   UNL     1      25.360  48.293  49.600  1.00  0.00     0.189 C 
BRANCH  25  26
HETATM   26  C   UNL     1      25.819  47.067  50.346  1.00  0.00    -0.038 A 
HETATM   27  C   UNL     1      26.541  46.062  49.689  1.00  0.00     0.009 A 
HETATM   28  C   UNL     1      27.037  44.962  50.396  1.00  0.00     0.007 A 
HETATM   29  C   UNL     1      26.810  44.841  51.771  1.00  0.00    -0.062 A 
HETATM   30  C   UNL     1      27.389  43.693  52.543  1.00  0.00     0.048 C 
HETATM   31  C   UNL     1      26.090  45.843  52.430  1.00  0.00     0.007 A 
HETATM   32  C   UNL     1      25.596  46.943  51.725  1.00  0.00     0.009 A 
ENDBRANCH  25  26
ENDBRANCH   1  25
TORSDOF 6
ENDMDL
MODEL 2
REMARK VINA RESULT:      -9.1      5.951     10.564
REMARK  6 active torsions:
REMARK  status: ('A' for Active; 'I' for Inactive)
REMARK    1  A    between atoms: C_5  and  C_6 
REMARK    2  A    between atoms: C_6  and  N_7 
REMARK    3  A    between atoms: C_9  and  C_10 
REMARK    4  A    between atoms: C_17  and  C_18 
REMARK       I    between atoms: C_18  and  N_19 
REMARK    5  A    between atoms: N_19  and  C_20 
REMARK    6  A    between atoms: C_23  and  O_24 
ROOT
HETATM    1  N   UNL     1      25.882  45.015  51.796  1.00  0.00    -0.275 N 
HETATM    2  N   UNL     1      26.719  45.165  52.835  1.00  0.00    -0.171 NA
HETATM    3  C   UNL     1      27.473  44.049  52.846  1.00  0.00     0.104 A 
HETATM    4  C   UNL     1      27.023  43.134  51.838  1.00  0.00     0.080 A 
HETATM    5  C   UNL     1      26.045  43.830  51.150  1.00  0.00     0.132 A 
ENDROOT
BRANCH   4   6
HETATM    6  C   UNL     1      27.382  41.761  51.510  1.00  0.00     0.255 C 
HETATM    7  N   UNL     1      27.476  41.500  50.164  1.00  0.00    -0.352 N 
HETATM    8  H   UNL     1      27.336  42.289  49.544  1.00  0.00     0.163 HD
HETATM    9  O   UNL     1      27.668  40.956  52.386  1.00  0.00    -0.268 OA
BRANCH   7  10
HETATM   10  C   UNL     1      28.037  40.302  49.541  1.00  0.00     0.084 C 
HETATM   11  C   UNL     1      27.030  39.145  49.465  1.00  0.00     0.028 C 
HETATM   12  C   UNL     1      26.219  39.095  48.171  1.00  0.00     0.034 C 
HETATM   13  C   UNL     1      27.109  39.171  46.936  1.00  0.00     0.118 C 
HETATM   14  C   UNL     1      28.003  40.406  46.947  1.00  0.00     0.034 C 
HETATM   15  C   UNL     1      28.810  40.552  48.238  1.00  0.00     0.028 C 
BRANCH  13  16
HETATM   16  O   UNL     1      27.939  38.010  46.884  1.00  0.00    -0.396 OA
HETATM   17  H   UNL     1      27.350  37.236  46.908  1.00  0.00     0.210 HD
ENDBRANCH  13  16
ENDBRANCH   7  10
ENDBRANCH   4   6
BRANCH   3  18
HETATM   18  C   UNL     1      28.557  43.931  53.833  1.00  0.00    -0.005 A 
HETATM   19  C   UNL     1      28.593  44.804  54.932  1.00  0.00     0.014 A 
HETATM   20  C   UNL     1      29.620  44.736  55.878  1.00  0.00     0.007 A 
HETATM   21  C   UNL     1      30.641  43.791  55.743  1.00  0.00    -0.062 A 
HETATM   22  C   UNL     1      31.730  43.717  56.773  1.00  0.00     0.048 C 
HETATM   23  C   UNL     1      30.616  42.919  54.650  1.00  0.00     0.007 A 
HETATM   24  C   UNL     1      29.593  42.998  53.696  1.00  0.00     0.014 A 
ENDBRANCH   3  18
BRANCH   1  25
HETATM   25  C   UNL     1      24.805  45.975  51.584  1.00  0.00     0.189 C 
BRANCH  25  26
HETATM   26  C   UNL     1      25.148  47.040  50.574  1.00  0.00    -0.038 A 
HETATM   27  C   UNL     1      24.135  47.749  49.916  1.00  0.00     0.009 A 
HETATM   28  C   UNL     1      24.450  48.791  49.039  1.00  0.00     0.007 A 
HETATM   29  C   UNL     1      25.783  49.137  48.796  1.00  0.00    -0.062 A 
HETATM   30  C   UNL     1      26.123  50.291  47.901  1.00  0.00     0.048 C 
HETATM   31  C   UNL     1      26.797  48.431  49.452  1.00  0.00     0.007 A 
HETATM   32  C   UNL     1      26.483  47.391  50.329  1.00  0.00     0.009 A 
ENDBRANCH  25  26
ENDBRANCH   1  25
TORSDOF 6
ENDMDL
MODEL 3
REMARK VINA RESULT:      -9.0      3.402      6.712
REMARK  6 active torsions:
REMARK  status: ('A' for Active; 'I' for Inactive)
REMARK    1  A    between atoms: C_5  and  C_6 
REMARK    2  A    between atoms: C_6  and  N_7 
REMARK    3  A    between atoms: C_9  and  C_10 
REMARK    4  A    between atoms: C_17  and  C_18 
REMARK       I    between atoms: C_18  and  N_19 
REMARK    5  A    between atoms: N_19  and  C_20 
REMARK    6  A    between atoms: C_23  and  O_24 
ROOT
HETATM    1  N   UNL     1      26.074  46.159  53.135  1.00  0.00    -0.275 N 
HETATM    2  N   UNL     1      25.498  45.041  52.664  1.00  0.00    -0.171 NA
HETATM    3  C   UNL     1      25.204  45.310  51.377  1.00  0.00     0.104 A 
HETATM    4  C   UNL     1      25.521  46.674  51.068  1.00  0.00     0.080 A 
HETATM    5  C   UNL     1      26.138  47.153  52.211  1.00  0.00     0.132 A 
ENDROOT
BRANCH   4   6
HETATM    6  C   UNL     1      25.287  47.509  49.898  1.00  0.00     0.255 C 
HETATM    7  N   UNL     1      23.963  47.681  49.573  1.00  0.00    -0.352 N 
HETATM    8  H   UNL     1      23.289  47.257  50.199  1.00  0.00     0.163 HD
HETATM    9  O   UNL     1      26.212  48.078  49.333  1.00  0.00    -0.268 OA
BRANCH   7  10
HETATM   10  C   UNL     1      23.414  48.638  48.613  1.00  0.00     0.084 C 
HETATM   11  C   UNL     1      22.076  48.180  48.017  1.00  0.00     0.028 C 
HETATM   12  C   UNL     1      20.843  48.666  48.777  1.00  0.00     0.034 C 
HETATM   13  C   UNL     1      20.883  50.169  49.027  1.00  0.00     0.118 C 
HETATM   14  C   UNL     1      22.152  50.598  49.755  1.00  0.00     0.034 C 
HETATM   15  C   UNL     1      23.430  50.101  49.076  1.00  0.00     0.028 C 
BRANCH  13  16
HETATM   16  O   UNL     1      20.824  50.854  47.775  1.00  0.00    -0.396 OA
HETATM   17  H   UNL     1      20.164  51.563  47.867  1.00  0.00     0.210 HD
ENDBRANCH  13  16
ENDBRANCH   7  10
ENDBRANCH   4   6
BRANCH   3  18
HETATM   18  C   UNL     1      24.623  44.248  50.541  1.00  0.00    -0.005 A 
HETATM   19  C   UNL     1      25.467  43.316  49.917  1.00  0.00     0.014 A 
HETATM   20  C   UNL     1      24.952  42.307  49.099  1.00  0.00     0.007 A 
HETATM   21  C   UNL     1      23.575  42.209  48.882  1.00  0.00    -0.062 A 
HETATM   22  C   UNL     1      23.032  41.113  48.013  1.00  0.00     0.048 C 
HETATM   23  C   UNL     1      22.726  43.135  49.496  1.00  0.00     0.007 A 
HETATM   24  C   UNL     1      23.246  44.154  50.306  1.00  0.00     0.014 A 
ENDBRANCH   3  18
BRANCH   1  25
HETATM   25  C   UNL     1      26.376  46.279  54.557  1.00  0.00     0.189 C 
BRANCH  25  26
HETATM   26  C   UNL     1      27.714  45.694  54.930  1.00  0.00    -0.038 A 
HETATM   27  C   UNL     1      28.525  46.324  55.884  1.00  0.00     0.009 A 
HETATM   28  C   UNL     1      29.729  45.742  56.291  1.00  0.00     0.007 A 
HETATM   29  C   UNL     1      30.151  44.525  55.744  1.00  0.00    -0.062 A 
HETATM   30  C   UNL     1      31.413  43.870  56.220  1.00  0.00     0.048 C 
HETATM   31  C   UNL     1      29.344  43.894  54.792  1.00  0.00     0.007 A 
HETATM   32  C   UNL     1      28.139  44.473  54.387  1.00  0.00     0.009 A 
ENDBRANCH  25  26
ENDBRANCH   1  25
TORSDOF 6
ENDMDL
MODEL 4
REMARK VINA RESULT:      -8.9      3.295      9.065
REMARK  6 active torsions:
REMARK  status: ('A' for Active; 'I' for Inactive)
REMARK    1  A    between atoms: C_5  and  C_6 
REMARK    2  A    between atoms: C_6  and  N_7 
REMARK    3  A    between atoms: C_9  and  C_10 
REMARK    4  A    between atoms: C_17  and  C_18 
REMARK       I    between atoms: C_18  and  N_19 
REMARK    5  A    between atoms: N_19  and  C_20 
REMARK    6  A    between atoms: C_23  and  O_24 
ROOT
HETATM    1  N   UNL     1      24.437  47.649  49.617  1.00  0.00    -0.275 N 
HETATM    2  N   UNL     1      25.082  47.836  50.781  1.00  0.00    -0.171 NA
HETATM    3  C   UNL     1      25.257  46.601  51.291  1.00  0.00     0.104 A 
HETATM    4  C   UNL     1      24.614  45.624  50.462  1.00  0.00     0.080 A 
HETATM    5  C   UNL     1      24.163  46.341  49.368  1.00  0.00     0.132 A 
ENDROOT
BRANCH   4   6
HETATM    6  C   UNL     1      24.379  44.194  50.610  1.00  0.00     0.255 C 
HETATM    7  N   UNL     1      25.398  43.396  50.148  1.00  0.00    -0.352 N 
HETATM    8  H   UNL     1      26.220  43.875  49.800  1.00  0.00     0.163 HD
HETATM    9  O   UNL     1      23.390  43.774  51.194  1.00  0.00    -0.268 OA
BRANCH   7  10
HETATM   10  C   UNL     1      25.554  41.959  50.369  1.00  0.00     0.084 C 
HETATM   11  C   UNL     1      25.778  41.178  49.067  1.00  0.00     0.028 C 
HETATM   12  C   UNL     1      27.245  40.992  48.682  1.00  0.00     0.034 C 
HETATM   13  C   UNL     1      28.072  40.442  49.838  1.00  0.00     0.118 C 
HETATM   14  C   UNL     1      27.963  41.308  51.088  1.00  0.00     0.034 C 
HETATM   15  C   UNL     1      26.516  41.580  51.504  1.00  0.00     0.028 C 
BRANCH  13  16
HETATM   16  O   UNL     1      27.616  39.126  50.156  1.00  0.00    -0.396 OA
HETATM   17  H   UNL     1      26.643  39.151  50.149  1.00  0.00     0.210 HD
ENDBRANCH  13  16
ENDBRANCH   7  10
ENDBRANCH   4   6
BRANCH   3  18
HETATM   18  C   UNL     1      26.010  46.449  52.545  1.00  0.00    -0.005 A 
HETATM   19  C   UNL     1      25.950  47.460  53.518  1.00  0.00     0.014 A 
HETATM   20  C   UNL     1      26.670  47.360  54.712  1.00  0.00     0.007 A 
HETATM   21  C   UNL     1      27.473  46.242  54.960  1.00  0.00    -0.062 A 
HETATM   22  C   UNL     1      28.229  46.139  56.251  1.00  0.00     0.048 C 
HETATM   23  C   UNL     1      27.542  45.232  53.996  1.00  0.00     0.007 A 
HETATM   24  C   UNL     1      26.830  45.341  52.793  1.00  0.00     0.014 A 
ENDBRANCH   3  18
BRANCH   1  25
HETATM   25  C   UNL     1      23.939  48.796  48.868  1.00  0.00     0.189 C 
BRANCH  25  26
HETATM   26  C   UNL     1      22.543  49.203  49.262  1.00  0.00    -0.038 A 
HETATM   27  C   UNL     1      22.291  50.488  49.762  1.00  0.00     0.009 A 
HETATM   28  C   UNL     1      20.986  50.894  50.053  1.00  0.00     0.007 A 
HETATM   29  C   UNL     1      19.910  50.021  49.862  1.00  0.00    -0.062 A 
HETATM   30  C   UNL     1      18.503  50.474  50.119  1.00  0.00     0.048 C 
HETATM   31  C   UNL     1      20.158  48.738  49.364  1.00  0.00     0.007 A 
HETATM   32  C   UNL     1      21.462  48.331  49.070  1.00  0.00     0.009 A 
ENDBRANCH  25  26
ENDBRANCH   1  25
TORSDOF 6
ENDMDL
MODEL 5
REMARK VINA RESULT:      -8.8      4.242     10.469
REMARK  6 active torsions:
REMARK  status: ('A' for Active; 'I' for Inactive)
REMARK    1  A    between atoms: C_5  and  C_6 
REMARK    2  A    between atoms: C_6  and  N_7 
REMARK    3  A    between atoms: C_9  and  C_10 
REMARK    4  A    between atoms: C_17  and  C_18 
REMARK       I    between atoms: C_18  and  N_19 
REMARK    5  A    between atoms: N_19  and  C_20 
REMARK    6  A    between atoms: C_23  and  O_24 
ROOT
HETATM    1  N   UNL     1      25.892  46.906  50.093  1.00  0.00    -0.275 N 
HETATM    2  N   UNL     1      25.936  45.849  49.266  1.00  0.00    -0.171 NA
HETATM    3  C   UNL     1      25.937  44.769  50.071  1.00  0.00     0.104 A 
HETATM    4  C   UNL     1      25.994  45.173  51.446  1.00  0.00     0.080 A 
HETATM    5  C   UNL     1      25.894  46.553  51.405  1.00  0.00     0.132 A 
ENDROOT
BRANCH   4   6
HETATM    6  C   UNL     1      26.150  44.437  52.693  1.00  0.00     0.255 C 
HETATM    7  N   UNL     1      27.452  44.271  53.100  1.00  0.00    -0.352 N 
HETATM    8  H   UNL     1      28.161  44.713  52.527  1.00  0.00     0.163 HD
HETATM    9  O   UNL     1      25.177  44.096  53.351  1.00  0.00    -0.268 OA
BRANCH   7  10
HETATM   10  C   UNL     1      27.908  43.792  54.404  1.00  0.00     0.084 C 
HETATM   11  C   UNL     1      28.912  42.636  54.294  1.00  0.00     0.028 C 
HETATM   12  C   UNL     1      30.377  43.070  54.258  1.00  0.00     0.034 C 
HETATM   13  C   UNL     1      30.716  44.028  55.394  1.00  0.00     0.118 C 
HETATM   14  C   UNL     1      29.807  45.251  55.406  1.00  0.00     0.034 C 
HETATM   15  C   UNL     1      28.319  44.893  55.391  1.00  0.00     0.028 C 
BRANCH  13  16
HETATM   16  O   UNL     1      30.576  43.345  56.641  1.00  0.00    -0.396 OA
HETATM   17  H   UNL     1      31.000  42.475  56.540  1.00  0.00     0.210 HD
ENDBRANCH  13  16
ENDBRANCH   7  10
ENDBRANCH   4   6
BRANCH   3  18
HETATM   18  C   UNL     1      25.905  43.429  49.466  1.00  0.00    -0.005 A 
HETATM   19  C   UNL     1      24.734  42.982  48.832  1.00  0.00     0.014 A 
HETATM   20  C   UNL     1      24.659  41.706  48.266  1.00  0.00     0.007 A 
HETATM   21  C   UNL     1      25.757  40.843  48.324  1.00  0.00    -0.062 A 
HETATM   22  C   UNL     1      25.670  39.482  47.699  1.00  0.00     0.048 C 
HETATM   23  C   UNL     1      26.926  41.278  48.956  1.00  0.00     0.007 A 
HETATM   24  C   UNL     1      26.994  42.552  49.535  1.00  0.00     0.014 A 
ENDBRANCH   3  18
BRANCH   1  25
HETATM   25  C   UNL     1      26.041  48.255  49.560  1.00  0.00     0.189 C 
BRANCH  25  26
HETATM   26  C   UNL     1      24.744  48.849  49.076  1.00  0.00    -0.038 A 
HETATM   27  C   UNL     1      23.517  48.322  49.501  1.00  0.00     0.009 A 
HETATM   28  C   UNL     1      22.313  48.921  49.117  1.00  0.00     0.007 A 
HETATM   29  C   UNL     1      22.313  50.051  48.293  1.00  0.00    -0.062 A 
HETATM   30  C   UNL     1      21.027  50.730  47.927  1.00  0.00     0.048 C 
HETATM   31  C   UNL     1      23.536  50.580  47.868  1.00  0.00     0.007 A 
HETATM   32  C   UNL     1      24.739  49.984  48.252  1.00  0.00     0.009 A 
ENDBRANCH  25  26
ENDBRANCH   1  25
TORSDOF 6
ENDMDL
MODEL 6
REMARK VINA RESULT:      -8.7      5.933     10.143
REMARK  6 active torsions:
REMARK  status: ('A' for Active; 'I' for Inactive)
REMARK    1  A    between atoms: C_5  and  C_6 
REMARK    2  A    between atoms: C_6  and  N_7 
REMARK    3  A    between atoms: C_9  and  C_10 
REMARK    4  A    between atoms: C_17  and  C_18 
REMARK       I    between atoms: C_18  and  N_19 
REMARK    5  A    between atoms: N_19  and  C_20 
REMARK    6  A    between atoms: C_23  and  O_24 
ROOT
HETATM    1  N   UNL     1      28.535  40.513  51.544  1.00  0.00    -0.275 N 
HETATM    2  N   UNL     1      29.171  41.128  52.555  1.00  0.00    -0.171 NA
HETATM    3  C   UNL     1      28.590  42.339  52.655  1.00  0.00     0.104 A 
HETATM    4  C   UNL     1      27.627  42.517  51.607  1.00  0.00     0.080 A 
HETATM    5  C   UNL     1      27.583  41.291  50.965  1.00  0.00     0.132 A 
ENDROOT
BRANCH   4   6
HETATM    6  C   UNL     1      26.829  43.655  51.173  1.00  0.00     0.255 C 
HETATM    7  N   UNL     1      25.628  43.795  51.825  1.00  0.00    -0.352 N 
HETATM    8  H   UNL     1      25.441  43.131  52.567  1.00  0.00     0.163 HD
HETATM    9  O   UNL     1      27.266  44.460  50.362  1.00  0.00    -0.268 OA
BRANCH   7  10
HETATM   10  C   UNL     1      24.734  44.951  51.776  1.00  0.00     0.084 C 
HETATM   11  C   UNL     1      25.356  46.209  52.398  1.00  0.00     0.028 C 
HETATM   12  C   UNL     1      26.104  47.102  51.409  1.00  0.00     0.034 C 
HETATM   13  C   UNL     1      25.263  47.418  50.177  1.00  0.00     0.118 C 
HETATM   14  C   UNL     1      24.771  46.156  49.477  1.00  0.00     0.034 C 
HETATM   15  C   UNL     1      24.055  45.187  50.420  1.00  0.00     0.028 C 
BRANCH  13  16
HETATM   16  O   UNL     1      24.128  48.192  50.570  1.00  0.00    -0.396 OA
HETATM   17  H   UNL     1      24.205  49.055  50.129  1.00  0.00     0.210 HD
ENDBRANCH  13  16
ENDBRANCH   7  10
ENDBRANCH   4   6
BRANCH   3  18
HETATM   18  C   UNL     1      29.012  43.246  53.733  1.00  0.00    -0.005 A 
HETATM   19  C   UNL     1      30.221  43.007  54.406  1.00  0.00     0.014 A 
HETATM   20  C   UNL     1      30.644  43.835  55.450  1.00  0.00     0.007 A 
HETATM   21  C   UNL     1      29.862  44.922  55.849  1.00  0.00    -0.062 A 
HETATM   22  C   UNL     1      30.332  45.812  56.961  1.00  0.00     0.048 C 
HETATM   23  C   UNL     1      28.654  45.166  55.187  1.00  0.00     0.007 A 
HETATM   24  C   UNL     1      28.226  44.327  54.149  1.00  0.00     0.014 A 
ENDBRANCH   3  18
BRANCH   1  25
HETATM   25  C   UNL     1      29.021  39.230  51.051  1.00  0.00     0.189 C 
BRANCH  25  26
HETATM   26  C   UNL     1      28.399  38.823  49.740  1.00  0.00    -0.038 A 
HETATM   27  C   UNL     1      28.774  39.458  48.547  1.00  0.00     0.009 A 
HETATM   28  C   UNL     1      28.259  39.029  47.321  1.00  0.00     0.007 A 
HETATM   29  C   UNL     1      27.351  37.966  47.263  1.00  0.00    -0.062 A 
HETATM   30  C   UNL     1      26.841  37.467  45.945  1.00  0.00     0.048 C 
HETATM   31  C   UNL     1      26.975  37.331  48.452  1.00  0.00     0.007 A 
HETATM   32  C   UNL     1      27.491  37.757  49.678  1.00  0.00     0.009 A 
ENDBRANCH  25  26
ENDBRANCH   1  25
TORSDOF 6
ENDMDL
MODEL 7
REMARK VINA RESULT:      -8.6      6.054     10.060
REMARK  6 active torsions:
REMARK  status: ('A' for Active; 'I' for Inactive)
REMARK    1  A    between atoms: C_5  and  C_6 
REMARK    2  A    between atoms: C_6  and  N_7 
REMARK    3  A    between atoms: C_9  and  C_10 
REMARK    4  A    between atoms: C_17  and  C_18 
REMARK       I    between atoms: C_18  and  N_19 
REMARK    5  A    between atoms: N_19  and  C_20 
REMARK    6  A    between atoms: C_23  and  O_24 
ROOT
HETATM    1  N   UNL     1      29.231  42.553  52.855  1.00  0.00    -0.275 N 
HETATM    2  N   UNL     1      28.592  43.671  52.472  1.00  0.00    -0.171 NA
HETATM    3  C   UNL     1      27.582  43.249  51.687  1.00  0.00     0.104 A 
HETATM    4  C   UNL     1      27.655  41.829  51.500  1.00  0.00     0.080 A 
HETATM    5  C   UNL     1      28.689  41.424  52.326  1.00  0.00     0.132 A 
ENDROOT
BRANCH   4   6
HETATM    6  C   UNL     1      26.916  40.897  50.660  1.00  0.00     0.255 C 
HETATM    7  N   UNL     1      27.702  40.040  49.928  1.00  0.00    -0.352 N 
HETATM    8  H   UNL     1      28.701  40.107  50.081  1.00  0.00     0.163 HD
HETATM    9  O   UNL     1      25.694  40.841  50.701  1.00  0.00    -0.268 OA
BRANCH   7  10
HETATM   10  C   UNL     1      27.256  38.859  49.189  1.00  0.00     0.084 C 
HETATM   11  C   UNL     1      26.559  39.214  47.868  1.00  0.00     0.028 C 
HETATM   12  C   UNL     1      27.487  39.275  46.656  1.00  0.00     0.034 C 
HETATM   13  C   UNL     1      28.352  38.025  46.538  1.00  0.00     0.118 C 
HETATM   14  C   UNL     1      29.159  37.762  47.804  1.00  0.00     0.034 C 
HETATM   15  C   UNL     1      28.299  37.739  49.069  1.00  0.00     0.028 C 
BRANCH  13  16
HETATM   16  O   UNL     1      27.514  36.896  46.290  1.00  0.00    -0.396 OA
HETATM   17  H   UNL     1      28.099  36.142  46.099  1.00  0.00     0.210 HD
ENDBRANCH  13  16
ENDBRANCH   7  10
ENDBRANCH   4   6
BRANCH   3  18
HETATM   18  C   UNL     1      26.631  44.238  51.156  1.00  0.00    -0.005 A 
HETATM   19  C   UNL     1      27.019  45.075  50.097  1.00  0.00     0.014 A 
HETATM   20  C   UNL     1      26.150  46.041  49.582  1.00  0.00     0.007 A 
HETATM   21  C   UNL     1      24.868  46.195  50.119  1.00  0.00    -0.062 A 
HETATM   22  C   UNL     1      23.939  47.226  49.549  1.00  0.00     0.048 C 
HETATM   23  C   UNL     1      24.474  45.369  51.176  1.00  0.00     0.007 A 
HETATM   24  C   UNL     1      25.352  44.410  51.700  1.00  0.00     0.014 A 
ENDBRANCH   3  18
BRANCH   1  25
HETATM   25  C   UNL     1      30.486  42.648  53.591  1.00  0.00     0.189 C 
BRANCH  25  26
HETATM   26  C   UNL     1      30.375  43.466  54.852  1.00  0.00    -0.038 A 
HETATM   27  C   UNL     1      31.199  43.194  55.952  1.00  0.00     0.009 A 
HETATM   28  C   UNL     1      31.154  44.001  57.092  1.00  0.00     0.007 A 
HETATM   29  C   UNL     1      30.278  45.090  57.159  1.00  0.00    -0.062 A 
HETATM   30  C   UNL     1      30.269  45.992  58.356  1.00  0.00     0.048 C 
HETATM   31  C   UNL     1      29.455  45.365  56.062  1.00  0.00     0.007 A 
HETATM   32  C   UNL     1      29.500  44.560  54.921  1.00  0.00     0.009 A 
ENDBRANCH  25  26
ENDBRANCH   1  25
TORSDOF 6
ENDMDL
MODEL 8
REMARK VINA RESULT:      -8.5      2.901      7.952
REMARK  6 active torsions:
REMARK  status: ('A' for Active; 'I' for Inactive)
REMARK    1  A    between atoms: C_5  and  C_6 
REMARK    2  A    between atoms: C_6  and  N_7 
REMARK    3  A    between atoms: C_9  and  C_10 
REMARK    4  A    between atoms: C_17  and  C_18 
REMARK       I    between atoms: C_18  and  N_19 
REMARK    5  A    between atoms: N_19  and  C_20 
REMARK    6  A    between atoms: C_23  and  O_24 
ROOT
HETATM    1  N   UNL     1      23.591  48.980  48.870  1.00  0.00    -0.275 N 
HETATM    2  N   UNL     1      24.537  48.438  49.655  1.00  0.00    -0.171 NA
HETATM    3  C   UNL     1      24.314  47.110  49.611  1.00  0.00     0.104 A 
HETATM    4  C   UNL     1      23.131  46.828  48.851  1.00  0.00     0.080 A 
HETATM    5  C   UNL     1      22.745  48.056  48.343  1.00  0.00     0.132 A 
ENDROOT
BRANCH   4   6
HETATM    6  C   UNL     1      22.375  45.607  48.605  1.00  0.00     0.255 C 
HETATM    7  N   UNL     1      23.141  44.519  48.262  1.00  0.00    -0.352 N 
HETATM    8  H   UNL     1      24.144  44.659  48.262  1.00  0.00     0.163 HD
HETATM    9  O   UNL     1      21.167  45.564  48.795  1.00  0.00    -0.268 OA
BRANCH   7  10
HETATM   10  C   UNL     1      22.700  43.127  48.187  1.00  0.00     0.084 C 
HETATM   11  C   UNL     1      22.794  42.550  46.767  1.00  0.00     0.028 C 
HETATM   12  C   UNL     1      24.117  41.853  46.451  1.00  0.00     0.034 C 
HETATM   13  C   UNL     1      24.492  40.831  47.519  1.00  0.00     0.118 C 
HETATM   14  C   UNL     1      24.543  41.447  48.912  1.00  0.00     0.034 C 
HETATM   15  C   UNL     1      23.267  42.209  49.278  1.00  0.00     0.028 C 
BRANCH  13  16
HETATM   16  O   UNL     1      23.525  39.780  47.521  1.00  0.00    -0.396 OA
HETATM   17  H   UNL     1      22.893  39.974  48.236  1.00  0.00     0.210 HD
ENDBRANCH  13  16
ENDBRANCH   7  10
ENDBRANCH   4   6
BRANCH   3  18
HETATM   18  C   UNL     1      25.238  46.209  50.317  1.00  0.00    -0.005 A 
HETATM   19  C   UNL     1      25.113  46.035  51.705  1.00  0.00     0.014 A 
HETATM   20  C   UNL     1      25.987  45.205  52.412  1.00  0.00     0.007 A 
HETATM   21  C   UNL     1      27.013  44.528  51.744  1.00  0.00    -0.062 A 
HETATM   22  C   UNL     1      27.935  43.628  52.511  1.00  0.00     0.048 C 
HETATM   23  C   UNL     1      27.147  44.698  50.363  1.00  0.00     0.007 A 
HETATM   24  C   UNL     1      26.278  45.542  49.658  1.00  0.00     0.014 A 
ENDBRANCH   3  18
BRANCH   1  25
HETATM   25  C   UNL     1      23.433  50.428  48.815  1.00  0.00     0.189 C 
BRANCH  25  26
HETATM   26  C   UNL     1      22.023  50.883  49.092  1.00  0.00    -0.038 A 
HETATM   27  C   UNL     1      21.202  51.333  48.050  1.00  0.00     0.009 A 
HETATM   28  C   UNL     1      19.870  51.680  48.292  1.00  0.00     0.007 A 
HETATM   29  C   UNL     1      19.336  51.595  49.582  1.00  0.00    -0.062 A 
HETATM   30  C   UNL     1      17.892  51.911  49.835  1.00  0.00     0.048 C 
HETATM   31  C   UNL     1      20.153  51.146  50.625  1.00  0.00     0.007 A 
HETATM   32  C   UNL     1      21.484  50.797  50.384  1.00  0.00     0.009 A 
ENDBRANCH  25  26
ENDBRANCH   1  25
TORSDOF 6
ENDMDL
MODEL 9
REMARK VINA RESULT:      -8.2      1.598      6.781
REMARK  6 active torsions:
REMARK  status: ('A' for Active; 'I' for Inactive)
REMARK    1  A    between atoms: C_5  and  C_6 
REMARK    2  A    between atoms: C_6  and  N_7 
REMARK    3  A    between atoms: C_9  and  C_10 
REMARK    4  A    between atoms: C_17  and  C_18 
REMARK       I    between atoms: C_18  and  N_19 
REMARK    5  A    between atoms: N_19  and  C_20 
REMARK    6  A    between atoms: C_23  and  O_24 
ROOT
HETATM    1  N   UNL     1      23.395  49.214  48.964  1.00  0.00    -0.275 N 
HETATM    2  N   UNL     1      24.325  48.664  49.762  1.00  0.00    -0.171 NA
HETATM    3  C   UNL     1      24.187  47.333  49.600  1.00  0.00     0.104 A 
HETATM    4  C   UNL     1      23.071  47.048  48.746  1.00  0.00     0.080 A 
HETATM    5  C   UNL     1      22.641  48.290  48.312  1.00  0.00     0.132 A 
ENDROOT
BRANCH   4   6
HETATM    6  C   UNL     1      22.408  45.812  48.356  1.00  0.00     0.255 C 
HETATM    7  N   UNL     1      21.054  45.928  48.155  1.00  0.00    -0.352 N 
HETATM    8  H   UNL     1      20.665  46.858  48.247  1.00  0.00     0.163 HD
HETATM    9  O   UNL     1      23.050  44.793  48.137  1.00  0.00    -0.268 OA
BRANCH   7  10
HETATM   10  C   UNL     1      20.172  44.936  47.540  1.00  0.00     0.084 C 
HETATM   11  C   UNL     1      18.744  44.982  48.102  1.00  0.00     0.028 C 
HETATM   12  C   UNL     1      17.789  45.894  47.333  1.00  0.00     0.034 C 
HETATM   13  C   UNL     1      17.814  45.612  45.835  1.00  0.00     0.118 C 
HETATM   14  C   UNL     1      19.220  45.715  45.253  1.00  0.00     0.034 C 
HETATM   15  C   UNL     1      20.245  44.866  46.008  1.00  0.00     0.028 C 
BRANCH  13  16
HETATM   16  O   UNL     1      17.320  44.293  45.597  1.00  0.00    -0.396 OA
HETATM   17  H   UNL     1      16.557  44.163  46.187  1.00  0.00     0.210 HD
ENDBRANCH  13  16
ENDBRANCH   7  10
ENDBRANCH   4   6
BRANCH   3  18
HETATM   18  C   UNL     1      25.122  46.431  50.290  1.00  0.00    -0.005 A 
HETATM   19  C   UNL     1      25.132  46.384  51.694  1.00  0.00     0.014 A 
HETATM   20  C   UNL     1      26.022  45.555  52.384  1.00  0.00     0.007 A 
HETATM   21  C   UNL     1      26.927  44.753  51.683  1.00  0.00    -0.062 A 
HETATM   22  C   UNL     1      27.867  43.857  52.434  1.00  0.00     0.048 C 
HETATM   23  C   UNL     1      26.926  44.796  50.285  1.00  0.00     0.007 A 
HETATM   24  C   UNL     1      26.043  45.638  49.596  1.00  0.00     0.014 A 
ENDBRANCH   3  18
BRANCH   1  25
HETATM   25  C   UNL     1      23.152  50.651  49.013  1.00  0.00     0.189 C 
BRANCH  25  26
HETATM   26  C   UNL     1      21.695  51.002  49.175  1.00  0.00    -0.038 A 
HETATM   27  C   UNL     1      21.060  50.846  50.415  1.00  0.00     0.009 A 
HETATM   28  C   UNL     1      19.732  51.245  50.589  1.00  0.00     0.007 A 
HETATM   29  C   UNL     1      19.010  51.797  49.525  1.00  0.00    -0.062 A 
HETATM   30  C   UNL     1      17.604  52.279  49.723  1.00  0.00     0.048 C 
HETATM   31  C   UNL     1      19.642  51.954  48.287  1.00  0.00     0.007 A 
HETATM   32  C   UNL     1      20.969  51.557  48.112  1.00  0.00     0.009 A 
ENDBRANCH  25  26
ENDBRANCH   1  25
TORSDOF 6
ENDMDL
MODEL 10
REMARK VINA RESULT:      -8.2      4.450      6.358
REMARK  6 active torsions:
REMARK  status: ('A' for Active; 'I' for Inactive)
REMARK    1  A    between atoms: C_5  and  C_6 
REMARK    2  A    between atoms: C_6  and  N_7 
REMARK    3  A    between atoms: C_9  and  C_10 
REMARK    4  A    between atoms: C_17  and  C_18 
REMARK       I    between atoms: C_18  and  N_19 
REMARK    5  A    between atoms: N_19  and  C_20 
REMARK    6  A    between atoms: C_23  and  O_24 
ROOT
HETATM    1  N   UNL     1      27.162  43.747  51.854  1.00  0.00    -0.275 N 
HETATM    2  N   UNL     1      27.401  44.944  51.292  1.00  0.00    -0.171 NA
HETATM    3  C   UNL     1      26.242  45.296  50.702  1.00  0.00     0.104 A 
HETATM    4  C   UNL     1      25.282  44.238  50.819  1.00  0.00     0.080 A 
HETATM    5  C   UNL     1      25.899  43.297  51.625  1.00  0.00     0.132 A 
ENDROOT
BRANCH   4   6
HETATM    6  C   UNL     1      23.951  44.036  50.262  1.00  0.00     0.255 C 
HETATM    7  N   UNL     1      23.891  44.096  48.891  1.00  0.00    -0.352 N 
HETATM    8  H   UNL     1      24.772  44.224  48.408  1.00  0.00     0.163 HD
HETATM    9  O   UNL     1      23.005  43.739  50.978  1.00  0.00    -0.268 OA
BRANCH   7  10
HETATM   10  C   UNL     1      22.762  43.707  48.046  1.00  0.00     0.084 C 
HETATM   11  C   UNL     1      21.701  44.810  47.927  1.00  0.00     0.028 C 
HETATM   12  C   UNL     1      21.897  45.754  46.742  1.00  0.00     0.034 C 
HETATM   13  C   UNL     1      22.094  44.995  45.435  1.00  0.00     0.118 C 
HETATM   14  C   UNL     1      23.250  44.004  45.513  1.00  0.00     0.034 C 
HETATM   15  C   UNL     1      23.148  43.057  46.710  1.00  0.00     0.028 C 
BRANCH  13  16
HETATM   16  O   UNL     1      20.899  44.276  45.125  1.00  0.00    -0.396 OA
HETATM   17  H   UNL     1      21.030  43.361  45.429  1.00  0.00     0.210 HD
ENDBRANCH  13  16
ENDBRANCH   7  10
ENDBRANCH   4   6
BRANCH   3  18
HETATM   18  C   UNL     1      26.145  46.611  50.050  1.00  0.00    -0.005 A 
HETATM   19  C   UNL     1      27.308  47.235  49.570  1.00  0.00     0.014 A 
HETATM   20  C   UNL     1      27.257  48.494  48.966  1.00  0.00     0.007 A 
HETATM   21  C   UNL     1      26.037  49.163  48.830  1.00  0.00    -0.062 A 
HETATM   22  C   UNL     1      25.992  50.507  48.167  1.00  0.00     0.048 C 
HETATM   23  C   UNL     1      24.874  48.551  49.309  1.00  0.00     0.007 A 
HETATM   24  C   UNL     1      24.929  47.294  49.927  1.00  0.00     0.014 A 
ENDBRANCH   3  18
BRANCH   1  25
HETATM   25  C   UNL     1      28.256  42.989  52.447  1.00  0.00     0.189 C 
BRANCH  25  26
HETATM   26  C   UNL     1      28.872  43.670  53.642  1.00  0.00    -0.038 A 
HETATM   27  C   UNL     1      28.230  44.757  54.251  1.00  0.00     0.009 A 
HETATM   28  C   UNL     1      28.759  45.340  55.406  1.00  0.00     0.007 A 
HETATM   29  C   UNL     1      29.944  44.855  55.968  1.00  0.00    -0.062 A 
HETATM   30  C   UNL     1      30.483  45.440  57.240  1.00  0.00     0.048 C 
HETATM   31  C   UNL     1      30.587  43.771  55.363  1.00  0.00     0.007 A 
HETATM   32  C   UNL     1      30.059  43.186  54.210  1.00  0.00     0.009 A 
ENDBRANCH  25  26
ENDBRANCH   1  25
TORSDOF 6
ENDMDL
