MODEL 1
REMARK VINA RESULT:      -9.9      0.000      0.000
REMARK  9 active torsions:
REMARK  status: ('A' for Active; 'I' for Inactive)
REMARK    1  A    between atoms: C_2  and  C_3 
REMARK    2  A    between atoms: C_6  and  N_7 
REMARK    3  A    between atoms: N_7  and  C_8 
REMARK    4  A    between atoms: C_12  and  C_13 
REMARK       I    between atoms: C_13  and  N_14 
REMARK    5  A    between atoms: N_14  and  C_15 
REMARK    6  A    between atoms: C_15  and  C_16 
REMARK    7  A    between atoms: C_16  and  C_17 
REMARK    8  A    between atoms: C_17  and  N_18 
REMARK    9  A    between atoms: N_22  and  C_23 
ROOT
HETATM    1  C   UNL     1      24.611  47.454  50.127  1.00  0.00     0.129 A 
HETATM    2  N   UNL     1      25.263  47.532  51.298  1.00  0.00    -0.231 NA
HETATM    3  C   UNL     1      25.345  46.467  52.108  1.00  0.00     0.070 A 
HETATM    4  C   UNL     1      24.758  45.222  51.809  1.00  0.00     0.009 A 
HETATM    5  C   UNL     1      24.129  45.135  50.540  1.00  0.00     0.048 A 
HETATM    6  C   UNL     1      24.060  46.259  49.707  1.00  0.00     0.068 A 
HETATM    7  C   UNL     1      26.022  46.635  53.307  1.00  0.00     0.032 A 
HETATM    8  C   UNL     1      26.118  45.615  54.252  1.00  0.00     0.002 A 
HETATM    9  C   UNL     1      25.503  44.400  54.006  1.00  0.00     0.001 A 
HETATM   10  C   UNL     1      24.820  44.206  52.806  1.00  0.00     0.015 A 
ENDROOT
BRANCH   5  11
HETATM   11  C   UNL     1      23.439  43.930  50.011  1.00  0.00     0.252 C 
HETATM   12  N   UNL     1      23.523  43.655  48.665  1.00  0.00    -0.357 N 
HETATM   13  H   UNL     1      23.837  44.403  48.050  1.00  0.00     0.162 HD
HETATM   14  O   UNL     1      22.790  43.207  50.768  1.00  0.00    -0.268 OA
BRANCH  12  15
HETATM   15  C   UNL     1      22.810  42.548  48.058  1.00  0.00     0.124 C 
BRANCH  15  16
HETATM   16  C   UNL     1      23.608  41.239  48.000  1.00  0.00     0.047 C 
BRANCH  16  17
HETATM   17  C   UNL     1      25.074  41.309  47.561  1.00  0.00     0.236 C 
BRANCH  17  18
HETATM   18  N   UNL     1      26.038  40.746  48.561  1.00  0.00    -0.068 N 
HETATM   19  H   UNL     1      26.035  39.714  48.417  1.00  0.00     0.280 HD
HETATM   20  C   UNL     1      27.467  41.259  48.458  1.00  0.00     0.254 C 
HETATM   21  C   UNL     1      28.383  40.530  49.467  1.00  0.00     0.150 C 
HETATM   22  N   UNL     1      27.845  40.553  50.840  1.00  0.00    -0.375 N 
HETATM   23  C   UNL     1      26.444  40.097  50.963  1.00  0.00     0.150 C 
HETATM   24  C   UNL     1      25.527  40.884  50.000  1.00  0.00     0.254 C 
BRANCH  22  25
HETATM   25  C   UNL     1      28.268  41.527  51.752  1.00  0.00     0.069 A 
HETATM   26  C   UNL     1      28.744  41.260  53.050  1.00  0.00     0.142 A 
HETATM   27  F   UNL     1      28.864  39.995  53.483  1.00  0.00    -0.204 F 
HETATM   28  C   UNL     1      29.148  42.273  53.921  1.00  0.00     0.044 A 
HETATM   29  C   UNL     1      29.073  43.603  53.520  1.00  0.00     0.003 A 
HETATM   30  C   UNL     1      28.589  43.908  52.253  1.00  0.00     0.002 A 
HETATM   31  C   UNL     1      28.191  42.884  51.386  1.00  0.00     0.032 A 
ENDBRANCH  22  25
ENDBRANCH  17  18
ENDBRANCH  16  17
ENDBRANCH  15  16
ENDBRANCH  12  15
ENDBRANCH   5  11
BRANCH   1  32
HETATM   32  N   UNL     1      24.412  48.590  49.317  1.00  0.00    -0.341 N 
HETATM   33  H   UNL     1      25.174  49.251  49.417  1.00  0.00     0.167 HD
BRANCH  32  34
HETATM   34  C   UNL     1      23.205  49.221  48.945  1.00  0.00     0.033 A 
HETATM   35  C   UNL     1      22.120  48.530  48.397  1.00  0.00     0.030 A 
HETATM   36  C   UNL     1      20.976  49.205  47.953  1.00  0.00     0.010 A 
HETATM   37  C   UNL     1      20.898  50.601  48.015  1.00  0.00    -0.055 A 
HETATM   38  C   UNL     1      21.994  51.302  48.532  1.00  0.00     0.010 A 
HETATM   39  C   UNL     1      23.133  50.621  48.979  1.00  0.00     0.030 A 
BRANCH  37  40
HETATM   40  C   UNL     1      19.668  51.353  47.540  1.00  0.00     0.010 C 
HETATM   41  C   UNL     1      19.146  52.300  48.623  1.00  0.00     0.015 C 
HETATM   42  C   UNL     1      18.564  50.403  47.068  1.00  0.00     0.015 C 
ENDBRANCH  37  40
ENDBRANCH  32  34
ENDBRANCH   1  32
TORSDOF 9
ENDMDL
MODEL 2
REMARK VINA RESULT:      -9.8      3.615      6.682
REMARK  9 active torsions:
REMARK  status: ('A' for Active; 'I' for Inactive)
REMARK    1  A    between atoms: C_2  and  C_3 
REMARK    2  A    between atoms: C_6  and  N_7 
REMARK    3  A    between atoms: N_7  and  C_8 
REMARK    4  A    between atoms: C_12  and  C_13 
REMARK       I    between atoms: C_13  and  N_14 
REMARK    5  A    between atoms: N_14  and  C_15 
REMARK    6  A    between atoms: C_15  and  C_16 
REMARK    7  A    between atoms: C_16  and  C_17 
REMARK    8  A    between atoms: C_17  and  N_18 
REMARK    9  A    between atoms: N_22  and  C_23 
ROOT
HETATM    1  C   UNL     1      24.311  47.893  49.656  1.00  0.00     0.129 A 
HETATM    2  N   UNL     1      24.942  47.899  50.841  1.00  0.00    -0.231 NA
HETATM    3  C   UNL     1      25.107  46.764  51.534  1.00  0.00     0.070 A 
HETATM    4  C   UNL     1      24.631  45.514  51.094  1.00  0.00     0.009 A 
HETATM    5  C   UNL     1      24.024  45.511  49.811  1.00  0.00     0.048 A 
HETATM    6  C   UNL     1      23.868  46.708  49.101  1.00  0.00     0.068 A 
HETATM    7  C   UNL     1      25.755  46.858  52.757  1.00  0.00     0.032 A 
HETATM    8  C   UNL     1      25.928  45.755  53.590  1.00  0.00     0.002 A 
HETATM    9  C   UNL     1      25.421  44.525  53.205  1.00  0.00     0.001 A 
HETATM   10  C   UNL     1      24.769  44.405  51.978  1.00  0.00     0.015 A 
ENDROOT
BRANCH   5  11
HETATM   11  C   UNL     1      23.445  44.316  49.144  1.00  0.00     0.252 C 
HETATM   12  N   UNL     1      24.182  43.676  48.173  1.00  0.00    -0.357 N 
HETATM   13  H   UNL     1      24.974  44.176  47.777  1.00  0.00     0.162 HD
HETATM   14  O   UNL     1      22.317  43.926  49.447  1.00  0.00    -0.268 OA
BRANCH  12  15
HETATM   15  C   UNL     1      23.653  42.556  47.418  1.00  0.00     0.124 C 
BRANCH  15  16
HETATM   16  C   UNL     1      22.913  42.955  46.135  1.00  0.00     0.047 C 
BRANCH  16  17
HETATM   17  C   UNL     1      21.398  42.727  46.077  1.00  0.00     0.236 C 
BRANCH  17  18
HETATM   18  N   UNL     1      20.604  43.969  45.811  1.00  0.00    -0.068 N 
HETATM   19  H   UNL     1      20.603  44.097  44.776  1.00  0.00     0.280 HD
HETATM   20  C   UNL     1      19.167  43.952  46.312  1.00  0.00     0.254 C 
HETATM   21  C   UNL     1      18.424  45.238  45.886  1.00  0.00     0.150 C 
HETATM   22  N   UNL     1      19.161  46.464  46.248  1.00  0.00    -0.375 N 
HETATM   23  C   UNL     1      20.572  46.490  45.808  1.00  0.00     0.150 C 
HETATM   24  C   UNL     1      21.322  45.233  46.301  1.00  0.00     0.254 C 
BRANCH  22  25
HETATM   25  C   UNL     1      18.862  47.148  47.432  1.00  0.00     0.069 A 
HETATM   26  C   UNL     1      17.673  47.865  47.669  1.00  0.00     0.142 A 
HETATM   27  F   UNL     1      16.700  47.892  46.743  1.00  0.00    -0.204 F 
HETATM   28  C   UNL     1      17.430  48.534  48.869  1.00  0.00     0.044 A 
HETATM   29  C   UNL     1      18.388  48.519  49.877  1.00  0.00     0.003 A 
HETATM   30  C   UNL     1      19.584  47.839  49.674  1.00  0.00     0.002 A 
HETATM   31  C   UNL     1      19.815  47.168  48.467  1.00  0.00     0.032 A 
ENDBRANCH  22  25
ENDBRANCH  17  18
ENDBRANCH  16  17
ENDBRANCH  15  16
ENDBRANCH  12  15
ENDBRANCH   5  11
BRANCH   1  32
HETATM   32  N   UNL     1      24.024  49.089  48.968  1.00  0.00    -0.341 N 
HETATM   33  H   UNL     1      24.811  49.728  48.996  1.00  0.00     0.167 HD
BRANCH  32  34
HETATM   34  C   UNL     1      22.793  49.766  48.828  1.00  0.00     0.033 A 
HETATM   35  C   UNL     1      22.103  49.854  47.616  1.00  0.00     0.030 A 
HETATM   36  C   UNL     1      20.932  50.613  47.497  1.00  0.00     0.010 A 
HETATM   37  C   UNL     1      20.433  51.336  48.586  1.00  0.00    -0.055 A 
HETATM   38  C   UNL     1      21.137  51.280  49.795  1.00  0.00     0.010 A 
HETATM   39  C   UNL     1      22.304  50.515  49.909  1.00  0.00     0.030 A 
BRANCH  37  40
HETATM   40  C   UNL     1      19.166  52.167  48.481  1.00  0.00     0.010 C 
HETATM   41  C   UNL     1      18.382  52.147  49.795  1.00  0.00     0.015 C 
HETATM   42  C   UNL     1      18.285  51.717  47.313  1.00  0.00     0.015 C 
ENDBRANCH  37  40
ENDBRANCH  32  34
ENDBRANCH   1  32
TORSDOF 9
ENDMDL
MODEL 3
REMARK VINA RESULT:      -9.7      4.024     10.825
REMARK  9 active torsions:
REMARK  status: ('A' for Active; 'I' for Inactive)
REMARK    1  A    between atoms: C_2  and  C_3 
REMARK    2  A    between atoms: C_6  and  N_7 
REMARK    3  A    between atoms: N_7  and  C_8 
REMARK    4  A    between atoms: C_12  and  C_13 
REMARK       I    between atoms: C_13  and  N_14 
REMARK    5  A    between atoms: N_14  and  C_15 
REMARK    6  A    between atoms: C_15  and  C_16 
REMARK    7  A    between atoms: C_16  and  C_17 
REMARK    8  A    between atoms: C_17  and  N_18 
REMARK    9  A    between atoms: N_22  and  C_23 
ROOT
HETATM    1  C   UNL     1      25.889  45.309  52.846  1.00  0.00     0.129 A 
HETATM    2  N   UNL     1      25.674  44.078  52.357  1.00  0.00    -0.231 NA
HETATM    3  C   UNL     1      25.161  43.907  51.131  1.00  0.00     0.070 A 
HETATM    4  C   UNL     1      24.802  44.977  50.288  1.00  0.00     0.009 A 
HETATM    5  C   UNL     1      25.095  46.271  50.790  1.00  0.00     0.048 A 
HETATM    6  C   UNL     1      25.637  46.426  52.072  1.00  0.00     0.068 A 
HETATM    7  C   UNL     1      24.955  42.602  50.708  1.00  0.00     0.032 A 
HETATM    8  C   UNL     1      24.371  42.307  49.477  1.00  0.00     0.002 A 
HETATM    9  C   UNL     1      23.960  43.341  48.654  1.00  0.00     0.001 A 
HETATM   10  C   UNL     1      24.160  44.661  49.056  1.00  0.00     0.015 A 
ENDROOT
BRANCH   5  11
HETATM   11  C   UNL     1      24.803  47.546  50.084  1.00  0.00     0.252 C 
HETATM   12  N   UNL     1      23.503  47.997  50.041  1.00  0.00    -0.357 N 
HETATM   13  H   UNL     1      22.766  47.334  50.269  1.00  0.00     0.162 HD
HETATM   14  O   UNL     1      25.711  48.171  49.536  1.00  0.00    -0.268 OA
BRANCH  12  15
HETATM   15  C   UNL     1      23.124  49.186  49.301  1.00  0.00     0.124 C 
BRANCH  15  16
HETATM   16  C   UNL     1      22.548  48.905  47.908  1.00  0.00     0.047 C 
BRANCH  16  17
HETATM   17  C   UNL     1      21.753  47.611  47.705  1.00  0.00     0.236 C 
BRANCH  17  18
HETATM   18  N   UNL     1      20.267  47.792  47.762  1.00  0.00    -0.068 N 
HETATM   19  H   UNL     1      19.855  46.976  47.263  1.00  0.00     0.280 HD
HETATM   20  C   UNL     1      19.667  47.876  49.158  1.00  0.00     0.254 C 
HETATM   21  C   UNL     1      18.126  47.955  49.087  1.00  0.00     0.150 C 
HETATM   22  N   UNL     1      17.654  49.017  48.178  1.00  0.00    -0.375 N 
HETATM   23  C   UNL     1      18.252  48.983  46.826  1.00  0.00     0.150 C 
HETATM   24  C   UNL     1      19.795  48.977  46.910  1.00  0.00     0.254 C 
BRANCH  22  25
HETATM   25  C   UNL     1      17.309  50.277  48.678  1.00  0.00     0.069 A 
HETATM   26  C   UNL     1      16.025  50.851  48.596  1.00  0.00     0.142 A 
HETATM   27  F   UNL     1      15.009  50.166  48.049  1.00  0.00    -0.204 F 
HETATM   28  C   UNL     1      15.738  52.117  49.109  1.00  0.00     0.044 A 
HETATM   29  C   UNL     1      16.743  52.865  49.713  1.00  0.00     0.003 A 
HETATM   30  C   UNL     1      18.029  52.342  49.795  1.00  0.00     0.002 A 
HETATM   31  C   UNL     1      18.304  51.069  49.282  1.00  0.00     0.032 A 
ENDBRANCH  22  25
ENDBRANCH  17  18
ENDBRANCH  16  17
ENDBRANCH  15  16
ENDBRANCH  12  15
ENDBRANCH   5  11
BRANCH   1  32
HETATM   32  N   UNL     1      26.316  45.512  54.174  1.00  0.00    -0.341 N 
HETATM   33  H   UNL     1      25.854  46.312  54.591  1.00  0.00     0.167 HD
BRANCH  32  34
HETATM   34  C   UNL     1      27.579  45.263  54.752  1.00  0.00     0.033 A 
HETATM   35  C   UNL     1      28.371  44.162  54.414  1.00  0.00     0.030 A 
HETATM   36  C   UNL     1      29.576  43.899  55.078  1.00  0.00     0.010 A 
HETATM   37  C   UNL     1      30.009  44.717  56.127  1.00  0.00    -0.055 A 
HETATM   38  C   UNL     1      29.206  45.804  56.493  1.00  0.00     0.010 A 
HETATM   39  C   UNL     1      28.005  46.064  55.823  1.00  0.00     0.030 A 
BRANCH  37  40
HETATM   40  C   UNL     1      31.311  44.451  56.862  1.00  0.00     0.010 C 
HETATM   41  C   UNL     1      31.612  42.952  56.928  1.00  0.00     0.015 C 
HETATM   42  C   UNL     1      31.314  45.070  58.262  1.00  0.00     0.015 C 
ENDBRANCH  37  40
ENDBRANCH  32  34
ENDBRANCH   1  32
TORSDOF 9
ENDMDL
MODEL 4
REMARK VINA RESULT:      -9.7      2.852      9.586
REMARK  9 active torsions:
REMARK  status: ('A' for Active; 'I' for Inactive)
REMARK    1  A    between atoms: C_2  and  C_3 
REMARK    2  A    between atoms: C_6  and  N_7 
REMARK    3  A    between atoms: N_7  and  C_8 
REMARK    4  A    between atoms: C_12  and  C_13 
REMARK       I    between atoms: C_13  and  N_14 
REMARK    5  A    between atoms: N_14  and  C_15 
REMARK    6  A    between atoms: C_15  and  C_16 
REMARK    7  A    between atoms: C_16  and  C_17 
REMARK    8  A    between atoms: C_17  and  N_18 
REMARK    9  A    between atoms: N_22  and  C_23 
ROOT
HETATM    1  C   UNL     1      27.913  42.027  53.322  1.00  0.00     0.129 A 
HETATM    2  N   UNL     1      29.008  42.115  54.093  1.00  0.00    -0.231 NA
HETATM    3  C   UNL     1      29.308  43.256  54.728  1.00  0.00     0.070 A 
HETATM    4  C   UNL     1      28.529  44.425  54.627  1.00  0.00     0.009 A 
HETATM    5  C   UNL     1      27.340  44.298  53.863  1.00  0.00     0.048 A 
HETATM    6  C   UNL     1      27.042  43.094  53.212  1.00  0.00     0.068 A 
HETATM    7  C   UNL     1      30.467  43.270  55.492  1.00  0.00     0.032 A 
HETATM    8  C   UNL     1      30.909  44.418  56.146  1.00  0.00     0.002 A 
HETATM    9  C   UNL     1      30.189  45.594  56.018  1.00  0.00     0.001 A 
HETATM   10  C   UNL     1      29.019  45.604  55.258  1.00  0.00     0.015 A 
ENDROOT
BRANCH   5  11
HETATM   11  C   UNL     1      26.366  45.393  53.611  1.00  0.00     0.252 C 
HETATM   12  N   UNL     1      26.343  45.988  52.370  1.00  0.00    -0.357 N 
HETATM   13  H   UNL     1      27.143  45.835  51.759  1.00  0.00     0.162 HD
HETATM   14  O   UNL     1      25.612  45.766  54.509  1.00  0.00    -0.268 OA
BRANCH  12  15
HETATM   15  C   UNL     1      25.483  47.117  52.073  1.00  0.00     0.124 C 
BRANCH  15  16
HETATM   16  C   UNL     1      25.285  47.382  50.575  1.00  0.00     0.047 C 
BRANCH  16  17
HETATM   17  C   UNL     1      24.169  46.621  49.851  1.00  0.00     0.236 C 
BRANCH  17  18
HETATM   18  N   UNL     1      23.378  47.461  48.895  1.00  0.00    -0.068 N 
HETATM   19  H   UNL     1      23.870  47.397  47.978  1.00  0.00     0.280 HD
HETATM   20  C   UNL     1      21.924  47.056  48.710  1.00  0.00     0.254 C 
HETATM   21  C   UNL     1      21.247  47.926  47.626  1.00  0.00     0.150 C 
HETATM   22  N   UNL     1      21.431  49.370  47.863  1.00  0.00    -0.375 N 
HETATM   23  C   UNL     1      22.833  49.786  48.087  1.00  0.00     0.150 C 
HETATM   24  C   UNL     1      23.475  48.957  49.221  1.00  0.00     0.254 C 
BRANCH  22  25
HETATM   25  C   UNL     1      20.446  50.112  48.524  1.00  0.00     0.069 A 
HETATM   26  C   UNL     1      19.596  49.608  49.527  1.00  0.00     0.142 A 
HETATM   27  F   UNL     1      19.724  48.341  49.952  1.00  0.00    -0.204 F 
HETATM   28  C   UNL     1      18.625  50.394  50.149  1.00  0.00     0.044 A 
HETATM   29  C   UNL     1      18.462  51.722  49.771  1.00  0.00     0.003 A 
HETATM   30  C   UNL     1      19.268  52.252  48.769  1.00  0.00     0.002 A 
HETATM   31  C   UNL     1      20.242  51.455  48.156  1.00  0.00     0.032 A 
ENDBRANCH  22  25
ENDBRANCH  17  18
ENDBRANCH  16  17
ENDBRANCH  15  16
ENDBRANCH  12  15
ENDBRANCH   5  11
BRANCH   1  32
HETATM   32  N   UNL     1      27.643  40.876  52.554  1.00  0.00    -0.341 N 
HETATM   33  H   UNL     1      28.114  40.063  52.932  1.00  0.00     0.167 HD
BRANCH  32  34
HETATM   34  C   UNL     1      27.415  40.763  51.166  1.00  0.00     0.033 A 
HETATM   35  C   UNL     1      26.137  40.775  50.598  1.00  0.00     0.030 A 
HETATM   36  C   UNL     1      25.947  40.566  49.227  1.00  0.00     0.010 A 
HETATM   37  C   UNL     1      27.034  40.305  48.384  1.00  0.00    -0.055 A 
HETATM   38  C   UNL     1      28.313  40.258  48.951  1.00  0.00     0.010 A 
HETATM   39  C   UNL     1      28.497  40.473  50.322  1.00  0.00     0.030 A 
BRANCH  37  40
HETATM   40  C   UNL     1      26.851  40.075  46.894  1.00  0.00     0.010 C 
HETATM   41  C   UNL     1      27.887  40.858  46.083  1.00  0.00     0.015 C 
HETATM   42  C   UNL     1      25.431  40.411  46.434  1.00  0.00     0.015 C 
ENDBRANCH  37  40
ENDBRANCH  32  34
ENDBRANCH   1  32
TORSDOF 9
ENDMDL
MODEL 5
REMARK VINA RESULT:      -9.5      3.935     11.050
REMARK  9 active torsions:
REMARK  status: ('A' for Active; 'I' for Inactive)
REMARK    1  A    between atoms: C_2  and  C_3 
REMARK    2  A    between atoms: C_6  and  N_7 
REMARK    3  A    between atoms: N_7  and  C_8 
REMARK    4  A    between atoms: C_12  and  C_13 
REMARK       I    between atoms: C_13  and  N_14 
REMARK    5  A    between atoms: N_14  and  C_15 
REMARK    6  A    between atoms: C_15  and  C_16 
REMARK    7  A    between atoms: C_16  and  C_17 
REMARK    8  A    between atoms: C_17  and  N_18 
REMARK    9  A    between atoms: N_22  and  C_23 
ROOT
HETATM    1  C   UNL     1      25.101  45.614  52.496  1.00  0.00     0.129 A 
HETATM    2  N   UNL     1      24.496  44.516  52.017  1.00  0.00    -0.231 NA
HETATM    3  C   UNL     1      24.071  44.467  50.747  1.00  0.00     0.070 A 
HETATM    4  C   UNL     1      24.209  45.540  49.844  1.00  0.00     0.009 A 
HETATM    5  C   UNL     1      24.908  46.668  50.344  1.00  0.00     0.048 A 
HETATM    6  C   UNL     1      25.349  46.696  51.673  1.00  0.00     0.068 A 
HETATM    7  C   UNL     1      23.440  43.302  50.335  1.00  0.00     0.032 A 
HETATM    8  C   UNL     1      22.904  43.163  49.055  1.00  0.00     0.002 A 
HETATM    9  C   UNL     1      22.979  44.223  48.168  1.00  0.00     0.001 A 
HETATM   10  C   UNL     1      23.612  45.403  48.558  1.00  0.00     0.015 A 
ENDROOT
BRANCH   5  11
HETATM   11  C   UNL     1      25.170  47.917  49.581  1.00  0.00     0.252 C 
HETATM   12  N   UNL     1      24.104  48.606  49.049  1.00  0.00    -0.357 N 
HETATM   13  H   UNL     1      23.214  48.117  48.983  1.00  0.00     0.162 HD
HETATM   14  O   UNL     1      26.326  48.309  49.416  1.00  0.00    -0.268 OA
BRANCH  12  15
HETATM   15  C   UNL     1      24.282  49.783  48.222  1.00  0.00     0.124 C 
BRANCH  15  16
HETATM   16  C   UNL     1      23.116  50.778  48.282  1.00  0.00     0.047 C 
BRANCH  16  17
HETATM   17  C   UNL     1      22.310  50.865  49.582  1.00  0.00     0.236 C 
BRANCH  17  18
HETATM   18  N   UNL     1      20.918  50.320  49.474  1.00  0.00    -0.068 N 
HETATM   19  H   UNL     1      20.908  49.439  50.031  1.00  0.00     0.280 HD
HETATM   20  C   UNL     1      19.811  51.238  49.972  1.00  0.00     0.254 C 
HETATM   21  C   UNL     1      18.441  50.526  49.908  1.00  0.00     0.150 C 
HETATM   22  N   UNL     1      18.169  49.939  48.582  1.00  0.00    -0.375 N 
HETATM   23  C   UNL     1      19.247  49.075  48.056  1.00  0.00     0.150 C 
HETATM   24  C   UNL     1      20.598  49.823  48.059  1.00  0.00     0.254 C 
BRANCH  22  25
HETATM   25  C   UNL     1      17.413  50.641  47.637  1.00  0.00     0.069 A 
HETATM   26  C   UNL     1      16.025  50.494  47.446  1.00  0.00     0.142 A 
HETATM   27  F   UNL     1      15.316  49.666  48.230  1.00  0.00    -0.204 F 
HETATM   28  C   UNL     1      15.322  51.218  46.483  1.00  0.00     0.044 A 
HETATM   29  C   UNL     1      15.996  52.113  45.659  1.00  0.00     0.003 A 
HETATM   30  C   UNL     1      17.370  52.271  45.802  1.00  0.00     0.002 A 
HETATM   31  C   UNL     1      18.065  51.543  46.775  1.00  0.00     0.032 A 
ENDBRANCH  22  25
ENDBRANCH  17  18
ENDBRANCH  16  17
ENDBRANCH  15  16
ENDBRANCH  12  15
ENDBRANCH   5  11
BRANCH   1  32
HETATM   32  N   UNL     1      25.449  45.729  53.857  1.00  0.00    -0.341 N 
HETATM   33  H   UNL     1      24.923  46.467  54.310  1.00  0.00     0.167 HD
BRANCH  32  34
HETATM   34  C   UNL     1      26.694  45.501  54.483  1.00  0.00     0.033 A 
HETATM   35  C   UNL     1      27.405  46.499  55.155  1.00  0.00     0.030 A 
HETATM   36  C   UNL     1      28.680  46.256  55.682  1.00  0.00     0.010 A 
HETATM   37  C   UNL     1      29.296  45.010  55.522  1.00  0.00    -0.055 A 
HETATM   38  C   UNL     1      28.604  44.016  54.821  1.00  0.00     0.010 A 
HETATM   39  C   UNL     1      27.328  44.263  54.301  1.00  0.00     0.030 A 
BRANCH  37  40
HETATM   40  C   UNL     1      30.677  44.725  56.084  1.00  0.00     0.010 C 
HETATM   41  C   UNL     1      31.060  43.255  55.890  1.00  0.00     0.015 C 
HETATM   42  C   UNL     1      30.789  45.126  57.557  1.00  0.00     0.015 C 
ENDBRANCH  37  40
ENDBRANCH  32  34
ENDBRANCH   1  32
TORSDOF 9
ENDMDL
MODEL 6
REMARK VINA RESULT:      -9.3      3.106      9.653
REMARK  9 active torsions:
REMARK  status: ('A' for Active; 'I' for Inactive)
REMARK    1  A    between atoms: C_2  and  C_3 
REMARK    2  A    between atoms: C_6  and  N_7 
REMARK    3  A    between atoms: N_7  and  C_8 
REMARK    4  A    between atoms: C_12  and  C_13 
REMARK       I    between atoms: C_13  and  N_14 
REMARK    5  A    between atoms: N_14  and  C_15 
REMARK    6  A    between atoms: C_15  and  C_16 
REMARK    7  A    between atoms: C_16  and  C_17 
REMARK    8  A    between atoms: C_17  and  N_18 
REMARK    9  A    between atoms: N_22  and  C_23 
ROOT
HETATM    1  C   UNL     1      28.361  40.730  51.870  1.00  0.00     0.129 A 
HETATM    2  N   UNL     1      28.895  39.651  51.277  1.00  0.00    -0.231 NA
HETATM    3  C   UNL     1      28.635  39.378  49.991  1.00  0.00     0.070 A 
HETATM    4  C   UNL     1      27.791  40.170  49.188  1.00  0.00     0.009 A 
HETATM    5  C   UNL     1      27.286  41.342  49.808  1.00  0.00     0.048 A 
HETATM    6  C   UNL     1      27.576  41.612  51.152  1.00  0.00     0.068 A 
HETATM    7  C   UNL     1      29.213  38.234  49.457  1.00  0.00     0.032 A 
HETATM    8  C   UNL     1      28.963  37.820  48.151  1.00  0.00     0.002 A 
HETATM    9  C   UNL     1      28.094  38.552  47.359  1.00  0.00     0.001 A 
HETATM   10  C   UNL     1      27.504  39.706  47.872  1.00  0.00     0.015 A 
ENDROOT
BRANCH   5  11
HETATM   11  C   UNL     1      26.376  42.324  49.163  1.00  0.00     0.252 C 
HETATM   12  N   UNL     1      25.092  41.936  48.856  1.00  0.00    -0.357 N 
HETATM   13  H   UNL     1      24.890  40.938  48.850  1.00  0.00     0.162 HD
HETATM   14  O   UNL     1      26.779  43.456  48.897  1.00  0.00    -0.268 OA
BRANCH  12  15
HETATM   15  C   UNL     1      24.171  42.807  48.151  1.00  0.00     0.124 C 
BRANCH  15  16
HETATM   16  C   UNL     1      23.238  43.611  49.065  1.00  0.00     0.047 C 
BRANCH  16  17
HETATM   17  C   UNL     1      23.733  44.965  49.587  1.00  0.00     0.236 C 
BRANCH  17  18
HETATM   18  N   UNL     1      23.260  46.137  48.783  1.00  0.00    -0.068 N 
HETATM   19  H   UNL     1      23.879  46.183  47.946  1.00  0.00     0.280 HD
HETATM   20  C   UNL     1      21.809  46.081  48.327  1.00  0.00     0.254 C 
HETATM   21  C   UNL     1      21.473  47.288  47.422  1.00  0.00     0.150 C 
HETATM   22  N   UNL     1      21.850  48.577  48.033  1.00  0.00    -0.375 N 
HETATM   23  C   UNL     1      23.244  48.645  48.522  1.00  0.00     0.150 C 
HETATM   24  C   UNL     1      23.545  47.472  49.482  1.00  0.00     0.254 C 
BRANCH  22  25
HETATM   25  C   UNL     1      20.904  49.333  48.734  1.00  0.00     0.069 A 
HETATM   26  C   UNL     1      20.897  50.739  48.812  1.00  0.00     0.142 A 
HETATM   27  F   UNL     1      21.814  51.461  48.148  1.00  0.00    -0.204 F 
HETATM   28  C   UNL     1      19.930  51.444  49.531  1.00  0.00     0.044 A 
HETATM   29  C   UNL     1      18.937  50.753  50.216  1.00  0.00     0.003 A 
HETATM   30  C   UNL     1      18.922  49.363  50.181  1.00  0.00     0.002 A 
HETATM   31  C   UNL     1      19.894  48.668  49.453  1.00  0.00     0.032 A 
ENDBRANCH  22  25
ENDBRANCH  17  18
ENDBRANCH  16  17
ENDBRANCH  15  16
ENDBRANCH  12  15
ENDBRANCH   5  11
BRANCH   1  32
HETATM   32  N   UNL     1      28.527  40.971  53.249  1.00  0.00    -0.341 N 
HETATM   33  H   UNL     1      28.085  40.248  53.805  1.00  0.00     0.167 HD
BRANCH  32  34
HETATM   34  C   UNL     1      28.604  42.201  53.937  1.00  0.00     0.033 A 
HETATM   35  C   UNL     1      27.483  42.982  54.233  1.00  0.00     0.030 A 
HETATM   36  C   UNL     1      27.610  44.241  54.834  1.00  0.00     0.010 A 
HETATM   37  C   UNL     1      28.871  44.770  55.129  1.00  0.00    -0.055 A 
HETATM   38  C   UNL     1      30.000  44.008  54.806  1.00  0.00     0.010 A 
HETATM   39  C   UNL     1      29.867  42.748  54.210  1.00  0.00     0.030 A 
BRANCH  37  40
HETATM   40  C   UNL     1      29.033  46.132  55.781  1.00  0.00     0.010 C 
HETATM   41  C   UNL     1      28.788  46.056  57.290  1.00  0.00     0.015 C 
HETATM   42  C   UNL     1      28.129  47.185  55.135  1.00  0.00     0.015 C 
ENDBRANCH  37  40
ENDBRANCH  32  34
ENDBRANCH   1  32
TORSDOF 9
ENDMDL
MODEL 7
REMARK VINA RESULT:      -9.2      3.863     11.111
REMARK  9 active torsions:
REMARK  status: ('A' for Active; 'I' for Inactive)
REMARK    1  A    between atoms: C_2  and  C_3 
REMARK    2  A    between atoms: C_6  and  N_7 
REMARK    3  A    between atoms: N_7  and  C_8 
REMARK    4  A    between atoms: C_12  and  C_13 
REMARK       I    between atoms: C_13  and  N_14 
REMARK    5  A    between atoms: N_14  and  C_15 
REMARK    6  A    between atoms: C_15  and  C_16 
REMARK    7  A    between atoms: C_16  and  C_17 
REMARK    8  A    between atoms: C_17  and  N_18 
REMARK    9  A    between atoms: N_22  and  C_23 
ROOT
HETATM    1  C   UNL     1      25.106  46.304  50.625  1.00  0.00     0.129 A 
HETATM    2  N   UNL     1      26.206  47.052  50.439  1.00  0.00    -0.231 NA
HETATM    3  C   UNL     1      26.165  48.152  49.675  1.00  0.00     0.070 A 
HETATM    4  C   UNL     1      25.001  48.590  49.013  1.00  0.00     0.009 A 
HETATM    5  C   UNL     1      23.832  47.828  49.270  1.00  0.00     0.048 A 
HETATM    6  C   UNL     1      23.896  46.685  50.077  1.00  0.00     0.068 A 
HETATM    7  C   UNL     1      27.349  48.859  49.520  1.00  0.00     0.032 A 
HETATM    8  C   UNL     1      27.437  49.983  48.701  1.00  0.00     0.002 A 
HETATM    9  C   UNL     1      26.321  50.401  47.996  1.00  0.00     0.001 A 
HETATM   10  C   UNL     1      25.119  49.708  48.139  1.00  0.00     0.015 A 
ENDROOT
BRANCH   5  11
HETATM   11  C   UNL     1      22.493  48.094  48.682  1.00  0.00     0.252 C 
HETATM   12  N   UNL     1      21.402  47.422  49.185  1.00  0.00    -0.357 N 
HETATM   13  H   UNL     1      21.578  46.601  49.758  1.00  0.00     0.162 HD
HETATM   14  O   UNL     1      22.376  48.889  47.749  1.00  0.00    -0.268 OA
BRANCH  12  15
HETATM   15  C   UNL     1      20.078  47.563  48.610  1.00  0.00     0.124 C 
BRANCH  15  16
HETATM   16  C   UNL     1      18.981  47.900  49.627  1.00  0.00     0.047 C 
BRANCH  16  17
HETATM   17  C   UNL     1      19.076  49.236  50.372  1.00  0.00     0.236 C 
BRANCH  17  18
HETATM   18  N   UNL     1      18.514  50.399  49.612  1.00  0.00    -0.068 N 
HETATM   19  H   UNL     1      18.066  51.019  50.319  1.00  0.00     0.280 HD
HETATM   20  C   UNL     1      19.522  51.208  48.808  1.00  0.00     0.254 C 
HETATM   21  C   UNL     1      18.844  52.435  48.159  1.00  0.00     0.150 C 
HETATM   22  N   UNL     1      17.633  52.076  47.396  1.00  0.00    -0.375 N 
HETATM   23  C   UNL     1      16.655  51.255  48.141  1.00  0.00     0.150 C 
HETATM   24  C   UNL     1      17.330  49.995  48.725  1.00  0.00     0.254 C 
BRANCH  22  25
HETATM   25  C   UNL     1      17.700  51.868  46.014  1.00  0.00     0.069 A 
HETATM   26  C   UNL     1      18.409  50.823  45.391  1.00  0.00     0.142 A 
HETATM   27  F   UNL     1      19.049  49.902  46.129  1.00  0.00    -0.204 F 
HETATM   28  C   UNL     1      18.446  50.666  44.005  1.00  0.00     0.044 A 
HETATM   29  C   UNL     1      17.779  51.572  43.187  1.00  0.00     0.003 A 
HETATM   30  C   UNL     1      17.085  52.630  43.763  1.00  0.00     0.002 A 
HETATM   31  C   UNL     1      17.051  52.775  45.155  1.00  0.00     0.032 A 
ENDBRANCH  22  25
ENDBRANCH  17  18
ENDBRANCH  16  17
ENDBRANCH  15  16
ENDBRANCH  12  15
ENDBRANCH   5  11
BRANCH   1  32
HETATM   32  N   UNL     1      25.155  45.083  51.327  1.00  0.00    -0.341 N 
HETATM   33  H   UNL     1      24.230  44.788  51.618  1.00  0.00     0.167 HD
BRANCH  32  34
HETATM   34  C   UNL     1      26.166  44.580  52.174  1.00  0.00     0.033 A 
HETATM   35  C   UNL     1      26.165  44.769  53.559  1.00  0.00     0.030 A 
HETATM   36  C   UNL     1      27.233  44.336  54.355  1.00  0.00     0.010 A 
HETATM   37  C   UNL     1      28.354  43.727  53.779  1.00  0.00    -0.055 A 
HETATM   38  C   UNL     1      28.377  43.564  52.389  1.00  0.00     0.010 A 
HETATM   39  C   UNL     1      27.304  43.995  51.600  1.00  0.00     0.030 A 
BRANCH  37  40
HETATM   40  C   UNL     1      29.524  43.250  54.622  1.00  0.00     0.010 C 
HETATM   41  C   UNL     1      30.033  44.363  55.541  1.00  0.00     0.015 C 
HETATM   42  C   UNL     1      30.660  42.693  53.759  1.00  0.00     0.015 C 
ENDBRANCH  37  40
ENDBRANCH  32  34
ENDBRANCH   1  32
TORSDOF 9
ENDMDL
MODEL 8
REMARK VINA RESULT:      -9.2      3.893      9.851
REMARK  9 active torsions:
REMARK  status: ('A' for Active; 'I' for Inactive)
REMARK    1  A    between atoms: C_2  and  C_3 
REMARK    2  A    between atoms: C_6  and  N_7 
REMARK    3  A    between atoms: N_7  and  C_8 
REMARK    4  A    between atoms: C_12  and  C_13 
REMARK       I    between atoms: C_13  and  N_14 
REMARK    5  A    between atoms: N_14  and  C_15 
REMARK    6  A    between atoms: C_15  and  C_16 
REMARK    7  A    between atoms: C_16  and  C_17 
REMARK    8  A    between atoms: C_17  and  N_18 
REMARK    9  A    between atoms: N_22  and  C_23 
ROOT
HETATM    1  C   UNL     1      24.861  47.268  49.950  1.00  0.00     0.129 A 
HETATM    2  N   UNL     1      24.724  48.584  49.722  1.00  0.00    -0.231 NA
HETATM    3  C   UNL     1      23.674  49.053  49.033  1.00  0.00     0.070 A 
HETATM    4  C   UNL     1      22.670  48.225  48.496  1.00  0.00     0.009 A 
HETATM    5  C   UNL     1      22.793  46.845  48.800  1.00  0.00     0.048 A 
HETATM    6  C   UNL     1      23.895  46.376  49.527  1.00  0.00     0.068 A 
HETATM    7  C   UNL     1      23.615  50.424  48.827  1.00  0.00     0.032 A 
HETATM    8  C   UNL     1      22.603  51.016  48.073  1.00  0.00     0.002 A 
HETATM    9  C   UNL     1      21.634  50.218  47.489  1.00  0.00     0.001 A 
HETATM   10  C   UNL     1      21.671  48.837  47.685  1.00  0.00     0.015 A 
ENDROOT
BRANCH   5  11
HETATM   11  C   UNL     1      21.860  45.783  48.339  1.00  0.00     0.252 C 
HETATM   12  N   UNL     1      21.929  45.362  47.031  1.00  0.00    -0.357 N 
HETATM   13  H   UNL     1      22.432  45.952  46.371  1.00  0.00     0.162 HD
HETATM   14  O   UNL     1      21.033  45.308  49.117  1.00  0.00    -0.268 OA
BRANCH  12  15
HETATM   15  C   UNL     1      20.999  44.392  46.483  1.00  0.00     0.124 C 
BRANCH  15  16
HETATM   16  C   UNL     1      19.756  45.010  45.831  1.00  0.00     0.047 C 
BRANCH  16  17
HETATM   17  C   UNL     1      18.417  44.878  46.566  1.00  0.00     0.236 C 
BRANCH  17  18
HETATM   18  N   UNL     1      17.700  46.178  46.765  1.00  0.00    -0.068 N 
HETATM   19  H   UNL     1      16.878  46.157  46.125  1.00  0.00     0.280 HD
HETATM   20  C   UNL     1      17.221  46.455  48.183  1.00  0.00     0.254 C 
HETATM   21  C   UNL     1      16.408  47.768  48.238  1.00  0.00     0.150 C 
HETATM   22  N   UNL     1      17.123  48.903  47.626  1.00  0.00    -0.375 N 
HETATM   23  C   UNL     1      17.635  48.648  46.262  1.00  0.00     0.150 C 
HETATM   24  C   UNL     1      18.505  47.371  46.235  1.00  0.00     0.254 C 
BRANCH  22  25
HETATM   25  C   UNL     1      17.866  49.785  48.418  1.00  0.00     0.069 A 
HETATM   26  C   UNL     1      18.025  51.160  48.160  1.00  0.00     0.142 A 
HETATM   27  F   UNL     1      17.404  51.731  47.115  1.00  0.00    -0.204 F 
HETATM   28  C   UNL     1      18.785  51.993  48.983  1.00  0.00     0.044 A 
HETATM   29  C   UNL     1      19.430  51.465  50.096  1.00  0.00     0.003 A 
HETATM   30  C   UNL     1      19.315  50.107  50.374  1.00  0.00     0.002 A 
HETATM   31  C   UNL     1      18.547  49.283  49.543  1.00  0.00     0.032 A 
ENDBRANCH  22  25
ENDBRANCH  17  18
ENDBRANCH  16  17
ENDBRANCH  15  16
ENDBRANCH  12  15
ENDBRANCH   5  11
BRANCH   1  32
HETATM   32  N   UNL     1      26.014  46.744  50.569  1.00  0.00    -0.341 N 
HETATM   33  H   UNL     1      26.848  47.238  50.272  1.00  0.00     0.167 HD
BRANCH  32  34
HETATM   34  C   UNL     1      26.292  45.416  50.960  1.00  0.00     0.033 A 
HETATM   35  C   UNL     1      26.271  44.993  52.292  1.00  0.00     0.030 A 
HETATM   36  C   UNL     1      26.643  43.691  52.649  1.00  0.00     0.010 A 
HETATM   37  C   UNL     1      27.081  42.780  51.681  1.00  0.00    -0.055 A 
HETATM   38  C   UNL     1      27.136  43.207  50.349  1.00  0.00     0.010 A 
HETATM   39  C   UNL     1      26.758  44.509  49.998  1.00  0.00     0.030 A 
BRANCH  37  40
HETATM   40  C   UNL     1      27.490  41.364  52.044  1.00  0.00     0.010 C 
HETATM   41  C   UNL     1      28.261  41.333  53.367  1.00  0.00     0.015 C 
HETATM   42  C   UNL     1      28.298  40.698  50.928  1.00  0.00     0.015 C 
ENDBRANCH  37  40
ENDBRANCH  32  34
ENDBRANCH   1  32
TORSDOF 9
ENDMDL
MODEL 9
REMARK VINA RESULT:      -9.1      4.166     10.347
REMARK  9 active torsions:
REMARK  status: ('A' for Active; 'I' for Inactive)
REMARK    1  A    between atoms: C_2  and  C_3 
REMARK    2  A    between atoms: C_6  and  N_7 
REMARK    3  A    between atoms: N_7  and  C_8 
REMARK    4  A    between atoms: C_12  and  C_13 
REMARK       I    between atoms: C_13  and  N_14 
REMARK    5  A    between atoms: N_14  and  C_15 
REMARK    6  A    between atoms: C_15  and  C_16 
REMARK    7  A    between atoms: C_16  and  C_17 
REMARK    8  A    between atoms: C_17  and  N_18 
REMARK    9  A    between atoms: N_22  and  C_23 
ROOT
HETATM    1  C   UNL     1      24.213  47.838  49.638  1.00  0.00     0.129 A 
HETATM    2  N   UNL     1      23.804  49.116  49.619  1.00  0.00    -0.231 NA
HETATM    3  C   UNL     1      22.612  49.446  49.103  1.00  0.00     0.070 A 
HETATM    4  C   UNL     1      21.725  48.506  48.543  1.00  0.00     0.009 A 
HETATM    5  C   UNL     1      22.141  47.152  48.629  1.00  0.00     0.048 A 
HETATM    6  C   UNL     1      23.388  46.829  49.178  1.00  0.00     0.068 A 
HETATM    7  C   UNL     1      22.272  50.792  49.106  1.00  0.00     0.032 A 
HETATM    8  C   UNL     1      21.085  51.256  48.542  1.00  0.00     0.002 A 
HETATM    9  C   UNL     1      20.222  50.358  47.937  1.00  0.00     0.001 A 
HETATM   10  C   UNL     1      20.541  49.000  47.924  1.00  0.00     0.015 A 
ENDROOT
BRANCH   5  11
HETATM   11  C   UNL     1      21.377  45.990  48.104  1.00  0.00     0.252 C 
HETATM   12  N   UNL     1      21.444  45.705  46.759  1.00  0.00    -0.357 N 
HETATM   13  H   UNL     1      21.804  46.430  46.141  1.00  0.00     0.162 HD
HETATM   14  O   UNL     1      20.685  45.312  48.863  1.00  0.00    -0.268 OA
BRANCH  12  15
HETATM   15  C   UNL     1      20.664  44.642  46.156  1.00  0.00     0.124 C 
BRANCH  15  16
HETATM   16  C   UNL     1      19.312  45.095  45.589  1.00  0.00     0.047 C 
BRANCH  16  17
HETATM   17  C   UNL     1      18.039  44.613  46.292  1.00  0.00     0.236 C 
BRANCH  17  18
HETATM   18  N   UNL     1      17.079  45.711  46.637  1.00  0.00    -0.068 N 
HETATM   19  H   UNL     1      16.167  45.247  46.837  1.00  0.00     0.280 HD
HETATM   20  C   UNL     1      17.469  46.576  47.826  1.00  0.00     0.254 C 
HETATM   21  C   UNL     1      16.355  47.598  48.147  1.00  0.00     0.150 C 
HETATM   22  N   UNL     1      15.941  48.375  46.963  1.00  0.00    -0.375 N 
HETATM   23  C   UNL     1      15.595  47.559  45.779  1.00  0.00     0.150 C 
HETATM   24  C   UNL     1      16.746  46.592  45.426  1.00  0.00     0.254 C 
BRANCH  22  25
HETATM   25  C   UNL     1      16.491  49.636  46.714  1.00  0.00     0.069 A 
HETATM   26  C   UNL     1      16.271  50.781  47.505  1.00  0.00     0.142 A 
HETATM   27  F   UNL     1      15.523  50.704  48.617  1.00  0.00    -0.204 F 
HETATM   28  C   UNL     1      16.843  52.018  47.206  1.00  0.00     0.044 A 
HETATM   29  C   UNL     1      17.651  52.155  46.083  1.00  0.00     0.003 A 
HETATM   30  C   UNL     1      17.876  51.053  45.264  1.00  0.00     0.002 A 
HETATM   31  C   UNL     1      17.301  49.816  45.577  1.00  0.00     0.032 A 
ENDBRANCH  22  25
ENDBRANCH  17  18
ENDBRANCH  16  17
ENDBRANCH  15  16
ENDBRANCH  12  15
ENDBRANCH   5  11
BRANCH   1  32
HETATM   32  N   UNL     1      25.508  47.484  50.067  1.00  0.00    -0.341 N 
HETATM   33  H   UNL     1      26.135  47.360  49.281  1.00  0.00     0.167 HD
BRANCH  32  34
HETATM   34  C   UNL     1      25.900  46.720  51.188  1.00  0.00     0.033 A 
HETATM   35  C   UNL     1      25.853  47.206  52.497  1.00  0.00     0.030 A 
HETATM   36  C   UNL     1      26.338  46.452  53.573  1.00  0.00     0.010 A 
HETATM   37  C   UNL     1      26.916  45.195  53.362  1.00  0.00    -0.055 A 
HETATM   38  C   UNL     1      26.997  44.715  52.050  1.00  0.00     0.010 A 
HETATM   39  C   UNL     1      26.506  45.473  50.980  1.00  0.00     0.030 A 
BRANCH  37  40
HETATM   40  C   UNL     1      27.450  44.359  54.513  1.00  0.00     0.010 C 
HETATM   41  C   UNL     1      28.861  44.800  54.908  1.00  0.00     0.015 C 
HETATM   42  C   UNL     1      27.415  42.862  54.195  1.00  0.00     0.015 C 
ENDBRANCH  37  40
ENDBRANCH  32  34
ENDBRANCH   1  32
TORSDOF 9
ENDMDL
MODEL 10
REMARK VINA RESULT:      -9.0      3.980      9.951
REMARK  9 active torsions:
REMARK  status: ('A' for Active; 'I' for Inactive)
REMARK    1  A    between atoms: C_2  and  C_3 
REMARK    2  A    between atoms: C_6  and  N_7 
REMARK    3  A    between atoms: N_7  and  C_8 
REMARK    4  A    between atoms: C_12  and  C_13 
REMARK       I    between atoms: C_13  and  N_14 
REMARK    5  A    between atoms: N_14  and  C_15 
REMARK    6  A    between atoms: C_15  and  C_16 
REMARK    7  A    between atoms: C_16  and  C_17 
REMARK    8  A    between atoms: C_17  and  N_18 
REMARK    9  A    between atoms: N_22  and  C_23 
ROOT
HETATM    1  C   UNL     1      24.373  46.471  49.561  1.00  0.00     0.129 A 
HETATM    2  N   UNL     1      24.642  47.782  49.459  1.00  0.00    -0.231 NA
HETATM    3  C   UNL     1      23.766  48.618  48.884  1.00  0.00     0.070 A 
HETATM    4  C   UNL     1      22.536  48.195  48.343  1.00  0.00     0.009 A 
HETATM    5  C   UNL     1      22.236  46.819  48.515  1.00  0.00     0.048 A 
HETATM    6  C   UNL     1      23.164  45.965  49.125  1.00  0.00     0.068 A 
HETATM    7  C   UNL     1      24.127  49.955  48.804  1.00  0.00     0.032 A 
HETATM    8  C   UNL     1      23.322  50.902  48.174  1.00  0.00     0.002 A 
HETATM    9  C   UNL     1      22.134  50.502  47.586  1.00  0.00     0.001 A 
HETATM   10  C   UNL     1      21.748  49.164  47.657  1.00  0.00     0.015 A 
ENDROOT
BRANCH   5  11
HETATM   11  C   UNL     1      21.005  46.146  48.025  1.00  0.00     0.252 C 
HETATM   12  N   UNL     1      20.771  46.097  46.669  1.00  0.00    -0.357 N 
HETATM   13  H   UNL     1      21.307  46.727  46.076  1.00  0.00     0.162 HD
HETATM   14  O   UNL     1      20.207  45.660  48.826  1.00  0.00    -0.268 OA
BRANCH  12  15
HETATM   15  C   UNL     1      19.554  45.534  46.117  1.00  0.00     0.124 C 
BRANCH  15  16
HETATM   16  C   UNL     1      19.162  46.100  44.746  1.00  0.00     0.047 C 
BRANCH  16  17
HETATM   17  C   UNL     1      17.709  46.539  44.538  1.00  0.00     0.236 C 
BRANCH  17  18
HETATM   18  N   UNL     1      17.362  47.835  45.206  1.00  0.00    -0.068 N 
HETATM   19  H   UNL     1      16.730  48.340  44.549  1.00  0.00     0.280 HD
HETATM   20  C   UNL     1      16.677  47.714  46.560  1.00  0.00     0.254 C 
HETATM   21  C   UNL     1      16.276  49.106  47.096  1.00  0.00     0.150 C 
HETATM   22  N   UNL     1      17.399  50.063  47.086  1.00  0.00    -0.375 N 
HETATM   23  C   UNL     1      18.108  50.170  45.793  1.00  0.00     0.150 C 
HETATM   24  C   UNL     1      18.566  48.778  45.303  1.00  0.00     0.254 C 
BRANCH  22  25
HETATM   25  C   UNL     1      18.166  50.269  48.238  1.00  0.00     0.069 A 
HETATM   26  C   UNL     1      18.738  51.500  48.614  1.00  0.00     0.142 A 
HETATM   27  F   UNL     1      18.529  52.600  47.874  1.00  0.00    -0.204 F 
HETATM   28  C   UNL     1      19.500  51.647  49.774  1.00  0.00     0.044 A 
HETATM   29  C   UNL     1      19.729  50.550  50.597  1.00  0.00     0.003 A 
HETATM   30  C   UNL     1      19.198  49.312  50.249  1.00  0.00     0.002 A 
HETATM   31  C   UNL     1      18.432  49.178  49.086  1.00  0.00     0.032 A 
ENDBRANCH  22  25
ENDBRANCH  17  18
ENDBRANCH  16  17
ENDBRANCH  15  16
ENDBRANCH  12  15
ENDBRANCH   5  11
BRANCH   1  32
HETATM   32  N   UNL     1      25.328  45.559  50.054  1.00  0.00    -0.341 N 
HETATM   33  H   UNL     1      25.221  44.646  49.627  1.00  0.00     0.167 HD
BRANCH  32  34
HETATM   34  C   UNL     1      25.907  45.481  51.339  1.00  0.00     0.033 A 
HETATM   35  C   UNL     1      25.750  46.476  52.309  1.00  0.00     0.030 A 
HETATM   36  C   UNL     1      26.417  46.406  53.539  1.00  0.00     0.010 A 
HETATM   37  C   UNL     1      27.290  45.350  53.821  1.00  0.00    -0.055 A 
HETATM   38  C   UNL     1      27.479  44.368  52.842  1.00  0.00     0.010 A 
HETATM   39  C   UNL     1      26.805  44.440  51.617  1.00  0.00     0.030 A 
BRANCH  37  40
HETATM   40  C   UNL     1      28.025  45.255  55.147  1.00  0.00     0.010 C 
HETATM   41  C   UNL     1      28.291  46.644  55.733  1.00  0.00     0.015 C 
HETATM   42  C   UNL     1      29.325  44.457  55.024  1.00  0.00     0.015 C 
ENDBRANCH  37  40
ENDBRANCH  32  34
ENDBRANCH   1  32
TORSDOF 9
ENDMDL
