MODEL 1
REMARK VINA RESULT:      -9.0      0.000      0.000
REMARK  8 active torsions:
REMARK  status: ('A' for Active; 'I' for Inactive)
REMARK    1  A    between atoms: C_2  and  N_3 
REMARK    2  A    between atoms: C_2  and  C_23 
REMARK       I    between atoms: N_3  and  C_4 
REMARK    3  A    between atoms: N_3  and  C_16 
REMARK    4  A    between atoms: C_4  and  C_5 
REMARK    5  A    between atoms: C_5  and  N_6 
REMARK    6  A    between atoms: C_16  and  C_17 
REMARK       I    between atoms: C_23  and  N_24 
REMARK    7  A    between atoms: N_24  and  C_25 
REMARK    8  A    between atoms: C_28  and  O_29 
ROOT
HETATM    1  N   UNL     1      25.346  45.683  51.144  1.00  0.00    -0.333 N 
HETATM    2  C   UNL     1      24.510  44.694  50.622  1.00  0.00     0.240 C 
HETATM    3  O   UNL     1      23.617  44.190  51.310  1.00  0.00    -0.271 OA
ENDROOT
BRANCH   1   4
HETATM    4  C   UNL     1      25.343  45.836  52.627  1.00  0.00     0.176 C 
HETATM    5  C   UNL     1      25.570  47.288  53.056  1.00  0.00     0.042 C 
BRANCH   4   6
HETATM    6  C   UNL     1      26.277  44.852  53.380  1.00  0.00     0.244 C 
HETATM    7  N   UNL     1      27.557  45.356  53.554  1.00  0.00    -0.325 N 
HETATM    8  H   UNL     1      27.739  46.254  53.124  1.00  0.00     0.169 HD
HETATM    9  O   UNL     1      25.928  43.696  53.617  1.00  0.00    -0.271 OA
BRANCH   7  10
HETATM   10  C   UNL     1      28.627  44.748  54.239  1.00  0.00     0.035 A 
HETATM   11  C   UNL     1      29.074  45.360  55.413  1.00  0.00     0.032 A 
HETATM   12  C   UNL     1      30.110  44.789  56.160  1.00  0.00     0.039 A 
HETATM   13  C   UNL     1      30.700  43.590  55.758  1.00  0.00     0.068 A 
HETATM   14  C   UNL     1      30.263  42.982  54.583  1.00  0.00     0.039 A 
HETATM   15  C   UNL     1      29.232  43.560  53.829  1.00  0.00     0.032 A 
BRANCH  13  16
HETATM   16  O   UNL     1      31.685  43.123  56.584  1.00  0.00    -0.356 OA
HETATM   17  C   UNL     1      31.989  43.921  57.722  1.00  0.00     0.210 C 
ENDBRANCH  13  16
ENDBRANCH   7  10
ENDBRANCH   4   6
ENDBRANCH   1   4
BRANCH   1  18
HETATM   18  C   UNL     1      26.496  46.247  50.419  1.00  0.00     0.165 C 
BRANCH  18  19
HETATM   19  C   UNL     1      26.173  47.550  49.727  1.00  0.00    -0.040 A 
HETATM   20  C   UNL     1      24.839  47.938  49.526  1.00  0.00     0.009 A 
HETATM   21  C   UNL     1      24.538  49.120  48.850  1.00  0.00     0.001 A 
HETATM   22  C   UNL     1      25.564  49.933  48.375  1.00  0.00     0.000 A 
HETATM   23  C   UNL     1      26.893  49.568  48.582  1.00  0.00     0.001 A 
HETATM   24  C   UNL     1      27.197  48.385  49.257  1.00  0.00     0.009 A 
ENDBRANCH  18  19
ENDBRANCH   1  18
BRANCH   2  25
HETATM   25  C   UNL     1      24.703  44.184  49.215  1.00  0.00     0.250 C 
BRANCH  25  26
HETATM   26  N   UNL     1      25.078  42.792  49.126  1.00  0.00    -0.263 N 
HETATM   27  N   UNL     1      24.330  41.983  48.347  1.00  0.00     0.006 NA
HETATM   28  N   UNL     1      24.859  40.769  48.402  1.00  0.00    -0.158 NA
HETATM   29  C   UNL     1      25.952  40.821  49.220  1.00  0.00     0.102 A 
HETATM   30  C   UNL     1      26.122  42.117  49.701  1.00  0.00     0.079 A 
HETATM   31  C   UNL     1      26.844  39.811  49.605  1.00  0.00     0.035 A 
HETATM   32  C   UNL     1      27.166  42.468  50.563  1.00  0.00     0.033 A 
HETATM   33  C   UNL     1      28.041  41.445  50.948  1.00  0.00     0.002 A 
HETATM   34  C   UNL     1      27.886  40.138  50.480  1.00  0.00     0.002 A 
ENDBRANCH  25  26
ENDBRANCH   2  25
TORSDOF 8
ENDMDL
MODEL 2
REMARK VINA RESULT:      -8.7      2.038      3.622
REMARK  8 active torsions:
REMARK  status: ('A' for Active; 'I' for Inactive)
REMARK    1  A    between atoms: C_2  and  N_3 
REMARK    2  A    between atoms: C_2  and  C_23 
REMARK       I    between atoms: N_3  and  C_4 
REMARK    3  A    between atoms: N_3  and  C_16 
REMARK    4  A    between atoms: C_4  and  C_5 
REMARK    5  A    between atoms: C_5  and  N_6 
REMARK    6  A    between atoms: C_16  and  C_17 
REMARK       I    between atoms: C_23  and  N_24 
REMARK    7  A    between atoms: N_24  and  C_25 
REMARK    8  A    between atoms: C_28  and  O_29 
ROOT
HETATM    1  N   UNL     1      25.327  45.610  50.880  1.00  0.00    -0.333 N 
HETATM    2  C   UNL     1      24.380  44.755  50.314  1.00  0.00     0.240 C 
HETATM    3  O   UNL     1      23.469  44.275  50.996  1.00  0.00    -0.271 OA
ENDROOT
BRANCH   1   4
HETATM    4  C   UNL     1      25.396  45.627  52.369  1.00  0.00     0.176 C 
HETATM    5  C   UNL     1      25.503  47.049  52.925  1.00  0.00     0.042 C 
BRANCH   4   6
HETATM    6  C   UNL     1      26.466  44.680  52.976  1.00  0.00     0.244 C 
HETATM    7  N   UNL     1      27.498  45.368  53.598  1.00  0.00    -0.325 N 
HETATM    8  H   UNL     1      27.461  46.376  53.525  1.00  0.00     0.169 HD
HETATM    9  O   UNL     1      26.450  43.471  52.752  1.00  0.00    -0.271 OA
BRANCH   7  10
HETATM   10  C   UNL     1      28.592  44.818  54.292  1.00  0.00     0.035 A 
HETATM   11  C   UNL     1      29.102  45.541  55.374  1.00  0.00     0.032 A 
HETATM   12  C   UNL     1      30.165  45.034  56.128  1.00  0.00     0.039 A 
HETATM   13  C   UNL     1      30.723  43.791  55.825  1.00  0.00     0.068 A 
HETATM   14  C   UNL     1      30.225  43.072  54.741  1.00  0.00     0.039 A 
HETATM   15  C   UNL     1      29.165  43.585  53.980  1.00  0.00     0.032 A 
BRANCH  13  16
HETATM   16  O   UNL     1      31.741  43.397  56.649  1.00  0.00    -0.356 OA
HETATM   17  C   UNL     1      31.850  44.079  57.893  1.00  0.00     0.210 C 
ENDBRANCH  13  16
ENDBRANCH   7  10
ENDBRANCH   4   6
ENDBRANCH   1   4
BRANCH   1  18
HETATM   18  C   UNL     1      26.497  46.128  50.154  1.00  0.00     0.165 C 
BRANCH  18  19
HETATM   19  C   UNL     1      26.273  47.511  49.588  1.00  0.00    -0.040 A 
HETATM   20  C   UNL     1      24.972  48.013  49.431  1.00  0.00     0.009 A 
HETATM   21  C   UNL     1      24.760  49.272  48.869  1.00  0.00     0.001 A 
HETATM   22  C   UNL     1      25.844  50.048  48.467  1.00  0.00     0.000 A 
HETATM   23  C   UNL     1      27.143  49.569  48.633  1.00  0.00     0.001 A 
HETATM   24  C   UNL     1      27.357  48.308  49.193  1.00  0.00     0.009 A 
ENDBRANCH  18  19
ENDBRANCH   1  18
BRANCH   2  25
HETATM   25  C   UNL     1      24.468  44.360  48.860  1.00  0.00     0.250 C 
BRANCH  25  26
HETATM   26  N   UNL     1      23.192  44.197  48.203  1.00  0.00    -0.263 N 
HETATM   27  N   UNL     1      22.734  42.942  48.010  1.00  0.00     0.006 NA
HETATM   28  N   UNL     1      21.555  43.031  47.413  1.00  0.00    -0.158 NA
HETATM   29  C   UNL     1      21.269  44.355  47.236  1.00  0.00     0.102 A 
HETATM   30  C   UNL     1      22.308  45.135  47.740  1.00  0.00     0.079 A 
HETATM   31  C   UNL     1      20.154  44.972  46.651  1.00  0.00     0.035 A 
HETATM   32  C   UNL     1      22.288  46.533  47.697  1.00  0.00     0.033 A 
HETATM   33  C   UNL     1      21.172  47.132  47.098  1.00  0.00     0.002 A 
HETATM   34  C   UNL     1      20.122  46.368  46.583  1.00  0.00     0.002 A 
ENDBRANCH  25  26
ENDBRANCH   2  25
TORSDOF 8
ENDMDL
MODEL 3
REMARK VINA RESULT:      -8.6      7.282     11.957
REMARK  8 active torsions:
REMARK  status: ('A' for Active; 'I' for Inactive)
REMARK    1  A    between atoms: C_2  and  N_3 
REMARK    2  A    between atoms: C_2  and  C_23 
REMARK       I    between atoms: N_3  and  C_4 
REMARK    3  A    between atoms: N_3  and  C_16 
REMARK    4  A    between atoms: C_4  and  C_5 
REMARK    5  A    between atoms: C_5  and  N_6 
REMARK    6  A    between atoms: C_16  and  C_17 
REMARK       I    between atoms: C_23  and  N_24 
REMARK    7  A    between atoms: N_24  and  C_25 
REMARK    8  A    between atoms: C_28  and  O_29 
ROOT
HETATM    1  N   UNL     1      20.662  50.028  48.901  1.00  0.00    -0.333 N 
HETATM    2  C   UNL     1      22.003  50.415  48.922  1.00  0.00     0.240 C 
HETATM    3  O   UNL     1      22.476  51.018  49.890  1.00  0.00    -0.271 OA
ENDROOT
BRANCH   1   4
HETATM    4  C   UNL     1      19.773  50.673  49.910  1.00  0.00     0.176 C 
HETATM    5  C   UNL     1      19.012  49.643  50.749  1.00  0.00     0.042 C 
BRANCH   4   6
HETATM    6  C   UNL     1      18.834  51.768  49.337  1.00  0.00     0.244 C 
HETATM    7  N   UNL     1      17.498  51.534  49.629  1.00  0.00    -0.325 N 
HETATM    8  H   UNL     1      17.299  50.667  50.111  1.00  0.00     0.169 HD
HETATM    9  O   UNL     1      19.254  52.630  48.566  1.00  0.00    -0.271 OA
BRANCH   7  10
HETATM   10  C   UNL     1      16.399  52.354  49.308  1.00  0.00     0.035 A 
HETATM   11  C   UNL     1      15.942  53.236  50.291  1.00  0.00     0.032 A 
HETATM   12  C   UNL     1      14.877  54.103  50.025  1.00  0.00     0.039 A 
HETATM   13  C   UNL     1      14.265  54.115  48.771  1.00  0.00     0.068 A 
HETATM   14  C   UNL     1      14.711  53.230  47.792  1.00  0.00     0.039 A 
HETATM   15  C   UNL     1      15.773  52.354  48.062  1.00  0.00     0.032 A 
BRANCH  13  16
HETATM   16  O   UNL     1      13.251  55.022  48.629  1.00  0.00    -0.356 OA
HETATM   17  C   UNL     1      12.018  54.698  49.262  1.00  0.00     0.210 C 
ENDBRANCH  13  16
ENDBRANCH   7  10
ENDBRANCH   4   6
ENDBRANCH   1   4
BRANCH   1  18
HETATM   18  C   UNL     1      20.008  49.408  47.739  1.00  0.00     0.165 C 
BRANCH  18  19
HETATM   19  C   UNL     1      19.742  47.933  47.932  1.00  0.00    -0.040 A 
HETATM   20  C   UNL     1      20.762  47.077  48.375  1.00  0.00     0.009 A 
HETATM   21  C   UNL     1      20.531  45.709  48.514  1.00  0.00     0.001 A 
HETATM   22  C   UNL     1      19.276  45.181  48.223  1.00  0.00     0.000 A 
HETATM   23  C   UNL     1      18.248  46.022  47.799  1.00  0.00     0.001 A 
HETATM   24  C   UNL     1      18.478  47.391  47.657  1.00  0.00     0.009 A 
ENDBRANCH  18  19
ENDBRANCH   1  18
BRANCH   2  25
HETATM   25  C   UNL     1      22.902  50.143  47.740  1.00  0.00     0.250 C 
BRANCH  25  26
HETATM   26  N   UNL     1      24.251  49.761  48.088  1.00  0.00    -0.263 N 
HETATM   27  N   UNL     1      25.269  50.413  47.488  1.00  0.00     0.006 NA
HETATM   28  N   UNL     1      26.402  49.916  47.963  1.00  0.00    -0.158 NA
HETATM   29  C   UNL     1      26.089  48.946  48.874  1.00  0.00     0.102 A 
HETATM   30  C   UNL     1      24.705  48.825  48.979  1.00  0.00     0.079 A 
HETATM   31  C   UNL     1      26.922  48.124  49.644  1.00  0.00     0.035 A 
HETATM   32  C   UNL     1      24.094  47.908  49.840  1.00  0.00     0.033 A 
HETATM   33  C   UNL     1      24.941  47.085  50.594  1.00  0.00     0.002 A 
HETATM   34  C   UNL     1      26.331  47.188  50.500  1.00  0.00     0.002 A 
ENDBRANCH  25  26
ENDBRANCH   2  25
TORSDOF 8
ENDMDL
MODEL 4
REMARK VINA RESULT:      -8.5      4.267      7.721
REMARK  8 active torsions:
REMARK  status: ('A' for Active; 'I' for Inactive)
REMARK    1  A    between atoms: C_2  and  N_3 
REMARK    2  A    between atoms: C_2  and  C_23 
REMARK       I    between atoms: N_3  and  C_4 
REMARK    3  A    between atoms: N_3  and  C_16 
REMARK    4  A    between atoms: C_4  and  C_5 
REMARK    5  A    between atoms: C_5  and  N_6 
REMARK    6  A    between atoms: C_16  and  C_17 
REMARK       I    between atoms: C_23  and  N_24 
REMARK    7  A    between atoms: N_24  and  C_25 
REMARK    8  A    between atoms: C_28  and  O_29 
ROOT
HETATM    1  N   UNL     1      20.398  47.751  48.276  1.00  0.00    -0.333 N 
HETATM    2  C   UNL     1      21.658  48.205  47.884  1.00  0.00     0.240 C 
HETATM    3  O   UNL     1      22.303  47.613  47.012  1.00  0.00    -0.271 OA
ENDROOT
BRANCH   1   4
HETATM    4  C   UNL     1      20.038  46.363  47.868  1.00  0.00     0.176 C 
HETATM    5  C   UNL     1      18.526  46.182  47.715  1.00  0.00     0.042 C 
BRANCH   4   6
HETATM    6  C   UNL     1      20.675  45.248  48.739  1.00  0.00     0.244 C 
HETATM    7  N   UNL     1      21.983  44.964  48.373  1.00  0.00    -0.325 N 
HETATM    8  H   UNL     1      22.330  45.460  47.563  1.00  0.00     0.169 HD
HETATM    9  O   UNL     1      20.001  44.595  49.534  1.00  0.00    -0.271 OA
BRANCH   7  10
HETATM   10  C   UNL     1      22.861  44.051  48.988  1.00  0.00     0.035 A 
HETATM   11  C   UNL     1      23.075  42.828  48.348  1.00  0.00     0.032 A 
HETATM   12  C   UNL     1      23.962  41.891  48.888  1.00  0.00     0.039 A 
HETATM   13  C   UNL     1      24.663  42.168  50.062  1.00  0.00     0.068 A 
HETATM   14  C   UNL     1      24.445  43.383  50.709  1.00  0.00     0.039 A 
HETATM   15  C   UNL     1      23.548  44.318  50.173  1.00  0.00     0.032 A 
BRANCH  13  16
HETATM   16  O   UNL     1      25.516  41.182  50.475  1.00  0.00    -0.356 OA
HETATM   17  C   UNL     1      26.897  41.521  50.529  1.00  0.00     0.210 C 
ENDBRANCH  13  16
ENDBRANCH   7  10
ENDBRANCH   4   6
ENDBRANCH   1   4
BRANCH   1  18
HETATM   18  C   UNL     1      19.625  48.341  49.381  1.00  0.00     0.165 C 
BRANCH  18  19
HETATM   19  C   UNL     1      19.140  49.738  49.077  1.00  0.00    -0.040 A 
HETATM   20  C   UNL     1      18.692  50.073  47.791  1.00  0.00     0.009 A 
HETATM   21  C   UNL     1      18.283  51.374  47.496  1.00  0.00     0.001 A 
HETATM   22  C   UNL     1      18.306  52.352  48.487  1.00  0.00     0.000 A 
HETATM   23  C   UNL     1      18.732  52.030  49.775  1.00  0.00     0.001 A 
HETATM   24  C   UNL     1      19.144  50.730  50.070  1.00  0.00     0.009 A 
ENDBRANCH  18  19
ENDBRANCH   1  18
BRANCH   2  25
HETATM   25  C   UNL     1      22.286  49.408  48.544  1.00  0.00     0.250 C 
BRANCH  25  26
HETATM   26  N   UNL     1      23.715  49.515  48.364  1.00  0.00    -0.263 N 
HETATM   27  N   UNL     1      24.175  50.382  47.438  1.00  0.00     0.006 NA
HETATM   28  N   UNL     1      25.499  50.327  47.456  1.00  0.00    -0.158 NA
HETATM   29  C   UNL     1      25.871  49.420  48.407  1.00  0.00     0.102 A 
HETATM   30  C   UNL     1      24.740  48.879  49.014  1.00  0.00     0.079 A 
HETATM   31  C   UNL     1      27.146  48.997  48.807  1.00  0.00     0.035 A 
HETATM   32  C   UNL     1      24.816  47.921  50.030  1.00  0.00     0.033 A 
HETATM   33  C   UNL     1      26.098  47.501  50.409  1.00  0.00     0.002 A 
HETATM   34  C   UNL     1      27.245  48.027  49.810  1.00  0.00     0.002 A 
ENDBRANCH  25  26
ENDBRANCH   2  25
TORSDOF 8
ENDMDL
MODEL 5
REMARK VINA RESULT:      -8.4      2.823      8.429
REMARK  8 active torsions:
REMARK  status: ('A' for Active; 'I' for Inactive)
REMARK    1  A    between atoms: C_2  and  N_3 
REMARK    2  A    between atoms: C_2  and  C_23 
REMARK       I    between atoms: N_3  and  C_4 
REMARK    3  A    between atoms: N_3  and  C_16 
REMARK    4  A    between atoms: C_4  and  C_5 
REMARK    5  A    between atoms: C_5  and  N_6 
REMARK    6  A    between atoms: C_16  and  C_17 
REMARK       I    between atoms: C_23  and  N_24 
REMARK    7  A    between atoms: N_24  and  C_25 
REMARK    8  A    between atoms: C_28  and  O_29 
ROOT
HETATM    1  N   UNL     1      24.958  45.741  51.439  1.00  0.00    -0.333 N 
HETATM    2  C   UNL     1      25.738  46.285  52.462  1.00  0.00     0.240 C 
HETATM    3  O   UNL     1      26.477  47.252  52.251  1.00  0.00    -0.271 OA
ENDROOT
BRANCH   1   4
HETATM    4  C   UNL     1      25.320  46.140  50.049  1.00  0.00     0.176 C 
HETATM    5  C   UNL     1      26.810  45.934  49.761  1.00  0.00     0.042 C 
BRANCH   4   6
HETATM    6  C   UNL     1      24.836  47.555  49.636  1.00  0.00     0.244 C 
HETATM    7  N   UNL     1      23.456  47.633  49.512  1.00  0.00    -0.325 N 
HETATM    8  H   UNL     1      22.953  46.765  49.639  1.00  0.00     0.169 HD
HETATM    9  O   UNL     1      25.632  48.428  49.295  1.00  0.00    -0.271 OA
BRANCH   7  10
HETATM   10  C   UNL     1      22.691  48.776  49.208  1.00  0.00     0.035 A 
HETATM   11  C   UNL     1      21.309  48.614  49.085  1.00  0.00     0.032 A 
HETATM   12  C   UNL     1      20.487  49.715  48.819  1.00  0.00     0.039 A 
HETATM   13  C   UNL     1      21.030  50.993  48.690  1.00  0.00     0.068 A 
HETATM   14  C   UNL     1      22.409  51.157  48.801  1.00  0.00     0.039 A 
HETATM   15  C   UNL     1      23.234  50.052  49.059  1.00  0.00     0.032 A 
BRANCH  13  16
HETATM   16  O   UNL     1      20.122  51.988  48.453  1.00  0.00    -0.356 OA
HETATM   17  C   UNL     1      18.981  52.020  49.302  1.00  0.00     0.210 C 
ENDBRANCH  13  16
ENDBRANCH   7  10
ENDBRANCH   4   6
ENDBRANCH   1   4
BRANCH   1  18
HETATM   18  C   UNL     1      24.143  44.526  51.592  1.00  0.00     0.165 C 
BRANCH  18  19
HETATM   19  C   UNL     1      24.737  43.328  50.890  1.00  0.00    -0.040 A 
HETATM   20  C   UNL     1      24.087  42.754  49.786  1.00  0.00     0.009 A 
HETATM   21  C   UNL     1      24.612  41.622  49.163  1.00  0.00     0.001 A 
HETATM   22  C   UNL     1      25.796  41.056  49.627  1.00  0.00     0.000 A 
HETATM   23  C   UNL     1      26.462  41.626  50.711  1.00  0.00     0.001 A 
HETATM   24  C   UNL     1      25.937  42.757  51.339  1.00  0.00     0.009 A 
ENDBRANCH  18  19
ENDBRANCH   1  18
BRANCH   2  25
HETATM   25  C   UNL     1      25.730  45.678  53.844  1.00  0.00     0.250 C 
BRANCH  25  26
HETATM   26  N   UNL     1      27.006  45.710  54.521  1.00  0.00    -0.263 N 
HETATM   27  N   UNL     1      27.307  46.802  55.254  1.00  0.00     0.006 NA
HETATM   28  N   UNL     1      28.503  46.610  55.792  1.00  0.00    -0.158 NA
HETATM   29  C   UNL     1      28.952  45.382  55.395  1.00  0.00     0.102 A 
HETATM   30  C   UNL     1      28.004  44.774  54.574  1.00  0.00     0.079 A 
HETATM   31  C   UNL     1      30.153  44.719  55.683  1.00  0.00     0.035 A 
HETATM   32  C   UNL     1      28.194  43.504  54.019  1.00  0.00     0.033 A 
HETATM   33  C   UNL     1      29.405  42.861  54.307  1.00  0.00     0.002 A 
HETATM   34  C   UNL     1      30.369  43.455  55.124  1.00  0.00     0.002 A 
ENDBRANCH  25  26
ENDBRANCH   2  25
TORSDOF 8
ENDMDL
MODEL 6
REMARK VINA RESULT:      -8.2     12.639     15.195
REMARK  8 active torsions:
REMARK  status: ('A' for Active; 'I' for Inactive)
REMARK    1  A    between atoms: C_2  and  N_3 
REMARK    2  A    between atoms: C_2  and  C_23 
REMARK       I    between atoms: N_3  and  C_4 
REMARK    3  A    between atoms: N_3  and  C_16 
REMARK    4  A    between atoms: C_4  and  C_5 
REMARK    5  A    between atoms: C_5  and  N_6 
REMARK    6  A    between atoms: C_16  and  C_17 
REMARK       I    between atoms: C_23  and  N_24 
REMARK    7  A    between atoms: N_24  and  C_25 
REMARK    8  A    between atoms: C_28  and  O_29 
ROOT
HETATM    1  N   UNL     1      34.536  51.726  40.752  1.00  0.00    -0.333 N 
HETATM    2  C   UNL     1      33.771  52.412  39.807  1.00  0.00     0.240 C 
HETATM    3  O   UNL     1      34.265  52.783  38.737  1.00  0.00    -0.271 OA
ENDROOT
BRANCH   1   4
HETATM    4  C   UNL     1      36.015  51.781  40.569  1.00  0.00     0.176 C 
HETATM    5  C   UNL     1      36.558  50.522  39.889  1.00  0.00     0.042 C 
BRANCH   4   6
HETATM    6  C   UNL     1      36.811  52.141  41.852  1.00  0.00     0.244 C 
HETATM    7  N   UNL     1      36.752  53.493  42.157  1.00  0.00    -0.325 N 
HETATM    8  H   UNL     1      36.264  54.074  41.487  1.00  0.00     0.169 HD
HETATM    9  O   UNL     1      37.542  51.319  42.402  1.00  0.00    -0.271 OA
BRANCH   7  10
HETATM   10  C   UNL     1      37.313  54.140  43.275  1.00  0.00     0.035 A 
HETATM   11  C   UNL     1      38.135  55.245  43.037  1.00  0.00     0.032 A 
HETATM   12  C   UNL     1      38.695  55.954  44.105  1.00  0.00     0.039 A 
HETATM   13  C   UNL     1      38.429  55.583  45.423  1.00  0.00     0.068 A 
HETATM   14  C   UNL     1      37.618  54.476  45.664  1.00  0.00     0.039 A 
HETATM   15  C   UNL     1      37.064  53.759  44.594  1.00  0.00     0.032 A 
BRANCH  13  16
HETATM   16  O   UNL     1      39.017  56.368  46.376  1.00  0.00    -0.356 OA
HETATM   17  C   UNL     1      39.961  57.327  45.913  1.00  0.00     0.210 C 
ENDBRANCH  13  16
ENDBRANCH   7  10
ENDBRANCH   4   6
ENDBRANCH   1   4
BRANCH   1  18
HETATM   18  C   UNL     1      34.044  51.353  42.087  1.00  0.00     0.165 C 
BRANCH  18  19
HETATM   19  C   UNL     1      33.107  50.169  42.058  1.00  0.00    -0.040 A 
HETATM   20  C   UNL     1      33.344  49.094  41.187  1.00  0.00     0.009 A 
HETATM   21  C   UNL     1      32.458  48.019  41.127  1.00  0.00     0.001 A 
HETATM   22  C   UNL     1      31.330  47.999  41.944  1.00  0.00     0.000 A 
HETATM   23  C   UNL     1      31.091  49.051  42.827  1.00  0.00     0.001 A 
HETATM   24  C   UNL     1      31.976  50.130  42.886  1.00  0.00     0.009 A 
ENDBRANCH  18  19
ENDBRANCH   1  18
BRANCH   2  25
HETATM   25  C   UNL     1      32.328  52.755  40.085  1.00  0.00     0.250 C 
BRANCH  25  26
HETATM   26  N   UNL     1      31.379  51.755  39.656  1.00  0.00    -0.263 N 
HETATM   27  N   UNL     1      31.729  50.944  38.636  1.00  0.00     0.006 NA
HETATM   28  N   UNL     1      30.726  50.104  38.425  1.00  0.00    -0.158 NA
HETATM   29  C   UNL     1      29.740  50.389  39.327  1.00  0.00     0.102 A 
HETATM   30  C   UNL     1      30.134  51.450  40.139  1.00  0.00     0.079 A 
HETATM   31  C   UNL     1      28.483  49.796  39.513  1.00  0.00     0.035 A 
HETATM   32  C   UNL     1      29.321  51.958  41.159  1.00  0.00     0.033 A 
HETATM   33  C   UNL     1      28.064  51.363  41.323  1.00  0.00     0.002 A 
HETATM   34  C   UNL     1      27.649  50.301  40.516  1.00  0.00     0.002 A 
ENDBRANCH  25  26
ENDBRANCH   2  25
TORSDOF 8
ENDMDL
MODEL 7
REMARK VINA RESULT:      -8.2      2.901      7.576
REMARK  8 active torsions:
REMARK  status: ('A' for Active; 'I' for Inactive)
REMARK    1  A    between atoms: C_2  and  N_3 
REMARK    2  A    between atoms: C_2  and  C_23 
REMARK       I    between atoms: N_3  and  C_4 
REMARK    3  A    between atoms: N_3  and  C_16 
REMARK    4  A    between atoms: C_4  and  C_5 
REMARK    5  A    between atoms: C_5  and  N_6 
REMARK    6  A    between atoms: C_16  and  C_17 
REMARK       I    between atoms: C_23  and  N_24 
REMARK    7  A    between atoms: N_24  and  C_25 
REMARK    8  A    between atoms: C_28  and  O_29 
ROOT
HETATM    1  N   UNL     1      25.910  45.584  50.982  1.00  0.00    -0.333 N 
HETATM    2  C   UNL     1      26.229  44.309  50.510  1.00  0.00     0.240 C 
HETATM    3  O   UNL     1      26.715  44.151  49.386  1.00  0.00    -0.271 OA
ENDROOT
BRANCH   1   4
HETATM    4  C   UNL     1      25.851  46.670  49.962  1.00  0.00     0.176 C 
HETATM    5  C   UNL     1      26.689  47.886  50.367  1.00  0.00     0.042 C 
BRANCH   4   6
HETATM    6  C   UNL     1      24.417  47.069  49.525  1.00  0.00     0.244 C 
HETATM    7  N   UNL     1      24.208  48.439  49.560  1.00  0.00    -0.325 N 
HETATM    8  H   UNL     1      24.976  48.992  49.918  1.00  0.00     0.169 HD
HETATM    9  O   UNL     1      23.544  46.220  49.350  1.00  0.00    -0.271 OA
BRANCH   7  10
HETATM   10  C   UNL     1      23.045  49.135  49.176  1.00  0.00     0.035 A 
HETATM   11  C   UNL     1      21.867  48.396  49.035  1.00  0.00     0.032 A 
HETATM   12  C   UNL     1      20.669  49.031  48.690  1.00  0.00     0.039 A 
HETATM   13  C   UNL     1      20.626  50.413  48.500  1.00  0.00     0.068 A 
HETATM   14  C   UNL     1      21.800  51.151  48.630  1.00  0.00     0.039 A 
HETATM   15  C   UNL     1      23.003  50.513  48.966  1.00  0.00     0.032 A 
BRANCH  13  16
HETATM   16  O   UNL     1      19.393  50.917  48.189  1.00  0.00    -0.356 OA
HETATM   17  C   UNL     1      19.184  52.297  48.465  1.00  0.00     0.210 C 
ENDBRANCH  13  16
ENDBRANCH   7  10
ENDBRANCH   4   6
ENDBRANCH   1   4
BRANCH   1  18
HETATM   18  C   UNL     1      25.229  45.835  52.261  1.00  0.00     0.165 C 
BRANCH  18  19
HETATM   19  C   UNL     1      26.182  46.218  53.369  1.00  0.00    -0.040 A 
HETATM   20  C   UNL     1      26.072  47.464  54.004  1.00  0.00     0.009 A 
HETATM   21  C   UNL     1      26.976  47.837  54.998  1.00  0.00     0.001 A 
HETATM   22  C   UNL     1      27.995  46.966  55.376  1.00  0.00     0.000 A 
HETATM   23  C   UNL     1      28.106  45.718  54.766  1.00  0.00     0.001 A 
HETATM   24  C   UNL     1      27.203  45.343  53.769  1.00  0.00     0.009 A 
ENDBRANCH  18  19
ENDBRANCH   1  18
BRANCH   2  25
HETATM   25  C   UNL     1      25.947  43.084  51.346  1.00  0.00     0.250 C 
BRANCH  25  26
HETATM   26  N   UNL     1      26.946  42.046  51.246  1.00  0.00    -0.263 N 
HETATM   27  N   UNL     1      28.008  42.106  52.076  1.00  0.00     0.006 NA
HETATM   28  N   UNL     1      28.777  41.057  51.823  1.00  0.00    -0.158 NA
HETATM   29  C   UNL     1      28.187  40.331  50.828  1.00  0.00     0.102 A 
HETATM   30  C   UNL     1      26.999  40.943  50.435  1.00  0.00     0.079 A 
HETATM   31  C   UNL     1      28.602  39.147  50.202  1.00  0.00     0.035 A 
HETATM   32  C   UNL     1      26.179  40.419  49.431  1.00  0.00     0.033 A 
HETATM   33  C   UNL     1      26.614  39.242  48.808  1.00  0.00     0.002 A 
HETATM   34  C   UNL     1      27.804  38.615  49.183  1.00  0.00     0.002 A 
ENDBRANCH  25  26
ENDBRANCH   2  25
TORSDOF 8
ENDMDL
MODEL 8
REMARK VINA RESULT:      -8.2      6.492      9.699
REMARK  8 active torsions:
REMARK  status: ('A' for Active; 'I' for Inactive)
REMARK    1  A    between atoms: C_2  and  N_3 
REMARK    2  A    between atoms: C_2  and  C_23 
REMARK       I    between atoms: N_3  and  C_4 
REMARK    3  A    between atoms: N_3  and  C_16 
REMARK    4  A    between atoms: C_4  and  C_5 
REMARK    5  A    between atoms: C_5  and  N_6 
REMARK    6  A    between atoms: C_16  and  C_17 
REMARK       I    between atoms: C_23  and  N_24 
REMARK    7  A    between atoms: N_24  and  C_25 
REMARK    8  A    between atoms: C_28  and  O_29 
ROOT
HETATM    1  N   UNL     1      19.962  49.119  48.883  1.00  0.00    -0.333 N 
HETATM    2  C   UNL     1      18.996  49.159  49.890  1.00  0.00     0.240 C 
HETATM    3  O   UNL     1      19.112  49.926  50.851  1.00  0.00    -0.271 OA
ENDROOT
BRANCH   1   4
HETATM    4  C   UNL     1      21.271  49.761  49.196  1.00  0.00     0.176 C 
HETATM    5  C   UNL     1      21.337  51.206  48.696  1.00  0.00     0.042 C 
BRANCH   4   6
HETATM    6  C   UNL     1      22.514  48.936  48.768  1.00  0.00     0.244 C 
HETATM    7  N   UNL     1      22.945  48.065  49.758  1.00  0.00    -0.325 N 
HETATM    8  H   UNL     1      22.449  48.119  50.638  1.00  0.00     0.169 HD
HETATM    9  O   UNL     1      23.120  49.189  47.728  1.00  0.00    -0.271 OA
BRANCH   7  10
HETATM   10  C   UNL     1      24.003  47.140  49.677  1.00  0.00     0.035 A 
HETATM   11  C   UNL     1      25.278  47.581  50.043  1.00  0.00     0.032 A 
HETATM   12  C   UNL     1      26.366  46.703  50.020  1.00  0.00     0.039 A 
HETATM   13  C   UNL     1      26.196  45.369  49.648  1.00  0.00     0.068 A 
HETATM   14  C   UNL     1      24.930  44.928  49.272  1.00  0.00     0.039 A 
HETATM   15  C   UNL     1      23.840  45.811  49.287  1.00  0.00     0.032 A 
BRANCH  13  16
HETATM   16  O   UNL     1      27.332  44.607  49.687  1.00  0.00    -0.356 OA
HETATM   17  C   UNL     1      27.567  43.881  50.887  1.00  0.00     0.210 C 
ENDBRANCH  13  16
ENDBRANCH   7  10
ENDBRANCH   4   6
ENDBRANCH   1   4
BRANCH   1  18
HETATM   18  C   UNL     1      19.943  48.156  47.771  1.00  0.00     0.165 C 
BRANCH  18  19
HETATM   19  C   UNL     1      19.268  48.700  46.534  1.00  0.00    -0.040 A 
HETATM   20  C   UNL     1      19.280  50.077  46.263  1.00  0.00     0.009 A 
HETATM   21  C   UNL     1      18.622  50.587  45.144  1.00  0.00     0.001 A 
HETATM   22  C   UNL     1      17.953  49.727  44.277  1.00  0.00     0.000 A 
HETATM   23  C   UNL     1      17.947  48.355  44.524  1.00  0.00     0.001 A 
HETATM   24  C   UNL     1      18.604  47.843  45.644  1.00  0.00     0.009 A 
ENDBRANCH  18  19
ENDBRANCH   1  18
BRANCH   2  25
HETATM   25  C   UNL     1      17.803  48.235  49.852  1.00  0.00     0.250 C 
BRANCH  25  26
HETATM   26  N   UNL     1      16.857  48.518  48.799  1.00  0.00    -0.263 N 
HETATM   27  N   UNL     1      16.198  47.480  48.242  1.00  0.00     0.006 NA
HETATM   28  N   UNL     1      15.381  47.969  47.321  1.00  0.00    -0.158 NA
HETATM   29  C   UNL     1      15.525  49.327  47.305  1.00  0.00     0.102 A 
HETATM   30  C   UNL     1      16.471  49.714  48.252  1.00  0.00     0.079 A 
HETATM   31  C   UNL     1      14.895  50.297  46.512  1.00  0.00     0.035 A 
HETATM   32  C   UNL     1      16.824  51.051  48.460  1.00  0.00     0.033 A 
HETATM   33  C   UNL     1      16.194  52.006  47.652  1.00  0.00     0.002 A 
HETATM   34  C   UNL     1      15.246  51.639  46.693  1.00  0.00     0.002 A 
ENDBRANCH  25  26
ENDBRANCH   2  25
TORSDOF 8
ENDMDL
MODEL 9
REMARK VINA RESULT:      -8.1      2.081      8.134
REMARK  8 active torsions:
REMARK  status: ('A' for Active; 'I' for Inactive)
REMARK    1  A    between atoms: C_2  and  N_3 
REMARK    2  A    between atoms: C_2  and  C_23 
REMARK       I    between atoms: N_3  and  C_4 
REMARK    3  A    between atoms: N_3  and  C_16 
REMARK    4  A    between atoms: C_4  and  C_5 
REMARK    5  A    between atoms: C_5  and  N_6 
REMARK    6  A    between atoms: C_16  and  C_17 
REMARK       I    between atoms: C_23  and  N_24 
REMARK    7  A    between atoms: N_24  and  C_25 
REMARK    8  A    between atoms: C_28  and  O_29 
ROOT
HETATM    1  N   UNL     1      26.773  43.026  51.717  1.00  0.00    -0.333 N 
HETATM    2  C   UNL     1      27.279  43.430  52.953  1.00  0.00     0.240 C 
HETATM    3  O   UNL     1      26.543  43.521  53.942  1.00  0.00    -0.271 OA
ENDROOT
BRANCH   1   4
HETATM    4  C   UNL     1      25.290  43.058  51.567  1.00  0.00     0.176 C 
HETATM    5  C   UNL     1      24.799  42.089  50.488  1.00  0.00     0.042 C 
BRANCH   4   6
HETATM    6  C   UNL     1      24.689  44.479  51.394  1.00  0.00     0.244 C 
HETATM    7  N   UNL     1      24.737  44.923  50.081  1.00  0.00    -0.325 N 
HETATM    8  H   UNL     1      25.203  44.309  49.425  1.00  0.00     0.169 HD
HETATM    9  O   UNL     1      24.382  45.165  52.367  1.00  0.00    -0.271 OA
BRANCH   7  10
HETATM   10  C   UNL     1      24.231  46.135  49.572  1.00  0.00     0.035 A 
HETATM   11  C   UNL     1      25.026  47.275  49.708  1.00  0.00     0.032 A 
HETATM   12  C   UNL     1      24.599  48.504  49.193  1.00  0.00     0.039 A 
HETATM   13  C   UNL     1      23.381  48.608  48.520  1.00  0.00     0.068 A 
HETATM   14  C   UNL     1      22.580  47.475  48.391  1.00  0.00     0.039 A 
HETATM   15  C   UNL     1      23.005  46.246  48.916  1.00  0.00     0.032 A 
BRANCH  13  16
HETATM   16  O   UNL     1      23.086  49.856  48.045  1.00  0.00    -0.356 OA
HETATM   17  C   UNL     1      23.072  50.911  49.000  1.00  0.00     0.210 C 
ENDBRANCH  13  16
ENDBRANCH   7  10
ENDBRANCH   4   6
ENDBRANCH   1   4
BRANCH   1  18
HETATM   18  C   UNL     1      27.566  43.001  50.478  1.00  0.00     0.165 C 
BRANCH  18  19
HETATM   19  C   UNL     1      27.962  41.604  50.062  1.00  0.00    -0.040 A 
HETATM   20  C   UNL     1      28.403  40.674  51.016  1.00  0.00     0.009 A 
HETATM   21  C   UNL     1      28.809  39.398  50.629  1.00  0.00     0.001 A 
HETATM   22  C   UNL     1      28.770  39.031  49.286  1.00  0.00     0.000 A 
HETATM   23  C   UNL     1      28.316  39.938  48.329  1.00  0.00     0.001 A 
HETATM   24  C   UNL     1      27.912  41.217  48.714  1.00  0.00     0.009 A 
ENDBRANCH  18  19
ENDBRANCH   1  18
BRANCH   2  25
HETATM   25  C   UNL     1      28.732  43.808  53.106  1.00  0.00     0.250 C 
BRANCH  25  26
HETATM   26  N   UNL     1      29.037  44.550  54.307  1.00  0.00    -0.263 N 
HETATM   27  N   UNL     1      28.422  45.737  54.492  1.00  0.00     0.006 NA
HETATM   28  N   UNL     1      28.834  46.228  55.652  1.00  0.00    -0.158 NA
HETATM   29  C   UNL     1      29.711  45.336  56.201  1.00  0.00     0.102 A 
HETATM   30  C   UNL     1      29.861  44.239  55.356  1.00  0.00     0.079 A 
HETATM   31  C   UNL     1      30.424  45.391  57.406  1.00  0.00     0.035 A 
HETATM   32  C   UNL     1      30.700  43.163  55.663  1.00  0.00     0.033 A 
HETATM   33  C   UNL     1      31.414  43.239  56.865  1.00  0.00     0.002 A 
HETATM   34  C   UNL     1      31.281  44.333  57.724  1.00  0.00     0.002 A 
ENDBRANCH  25  26
ENDBRANCH   2  25
TORSDOF 8
ENDMDL
MODEL 10
REMARK VINA RESULT:      -7.9     11.876     13.947
REMARK  8 active torsions:
REMARK  status: ('A' for Active; 'I' for Inactive)
REMARK    1  A    between atoms: C_2  and  N_3 
REMARK    2  A    between atoms: C_2  and  C_23 
REMARK       I    between atoms: N_3  and  C_4 
REMARK    3  A    between atoms: N_3  and  C_16 
REMARK    4  A    between atoms: C_4  and  C_5 
REMARK    5  A    between atoms: C_5  and  N_6 
REMARK    6  A    between atoms: C_16  and  C_17 
REMARK       I    between atoms: C_23  and  N_24 
REMARK    7  A    between atoms: N_24  and  C_25 
REMARK    8  A    between atoms: C_28  and  O_29 
ROOT
HETATM    1  N   UNL     1      32.368  50.366  41.690  1.00  0.00    -0.333 N 
HETATM    2  C   UNL     1      31.955  49.036  41.595  1.00  0.00     0.240 C 
HETATM    3  O   UNL     1      31.850  48.330  42.603  1.00  0.00    -0.271 OA
ENDROOT
BRANCH   1   4
HETATM    4  C   UNL     1      32.999  50.771  42.978  1.00  0.00     0.176 C 
HETATM    5  C   UNL     1      32.100  51.705  43.791  1.00  0.00     0.042 C 
BRANCH   4   6
HETATM    6  C   UNL     1      34.444  51.323  42.843  1.00  0.00     0.244 C 
HETATM    7  N   UNL     1      35.340  50.369  42.384  1.00  0.00    -0.325 N 
HETATM    8  H   UNL     1      34.965  49.438  42.258  1.00  0.00     0.169 HD
HETATM    9  O   UNL     1      34.746  52.434  43.275  1.00  0.00    -0.271 OA
BRANCH   7  10
HETATM   10  C   UNL     1      36.707  50.551  42.100  1.00  0.00     0.035 A 
HETATM   11  C   UNL     1      37.046  51.031  40.832  1.00  0.00     0.032 A 
HETATM   12  C   UNL     1      38.383  51.267  40.497  1.00  0.00     0.039 A 
HETATM   13  C   UNL     1      39.399  51.046  41.427  1.00  0.00     0.068 A 
HETATM   14  C   UNL     1      39.067  50.557  42.689  1.00  0.00     0.039 A 
HETATM   15  C   UNL     1      37.727  50.311  43.021  1.00  0.00     0.032 A 
BRANCH  13  16
HETATM   16  O   UNL     1      40.662  51.335  40.987  1.00  0.00    -0.356 OA
HETATM   17  C   UNL     1      41.201  50.469  39.995  1.00  0.00     0.210 C 
ENDBRANCH  13  16
ENDBRANCH   7  10
ENDBRANCH   4   6
ENDBRANCH   1   4
BRANCH   1  18
HETATM   18  C   UNL     1      32.619  51.228  40.525  1.00  0.00     0.165 C 
BRANCH  18  19
HETATM   19  C   UNL     1      31.354  51.814  39.943  1.00  0.00    -0.040 A 
HETATM   20  C   UNL     1      30.536  52.651  40.716  1.00  0.00     0.009 A 
HETATM   21  C   UNL     1      29.345  53.159  40.195  1.00  0.00     0.001 A 
HETATM   22  C   UNL     1      28.964  52.844  38.893  1.00  0.00     0.000 A 
HETATM   23  C   UNL     1      29.776  52.028  38.107  1.00  0.00     0.001 A 
HETATM   24  C   UNL     1      30.966  51.517  38.628  1.00  0.00     0.009 A 
ENDBRANCH  18  19
ENDBRANCH   1  18
BRANCH   2  25
HETATM   25  C   UNL     1      31.667  48.411  40.251  1.00  0.00     0.250 C 
BRANCH  25  26
HETATM   26  N   UNL     1      30.402  47.720  40.169  1.00  0.00    -0.263 N 
HETATM   27  N   UNL     1      30.419  46.393  39.919  1.00  0.00     0.006 NA
HETATM   28  N   UNL     1      29.164  45.969  39.904  1.00  0.00    -0.158 NA
HETATM   29  C   UNL     1      28.353  47.041  40.152  1.00  0.00     0.102 A 
HETATM   30  C   UNL     1      29.124  48.187  40.331  1.00  0.00     0.079 A 
HETATM   31  C   UNL     1      26.956  47.120  40.234  1.00  0.00     0.035 A 
HETATM   32  C   UNL     1      28.561  49.438  40.603  1.00  0.00     0.033 A 
HETATM   33  C   UNL     1      27.163  49.502  40.669  1.00  0.00     0.002 A 
HETATM   34  C   UNL     1      26.372  48.366  40.488  1.00  0.00     0.002 A 
ENDBRANCH  25  26
ENDBRANCH   2  25
TORSDOF 8
ENDMDL
