MODEL 1
REMARK VINA RESULT:     -10.1      0.000      0.000
REMARK  9 active torsions:
REMARK  status: ('A' for Active; 'I' for Inactive)
REMARK    1  A    between atoms: C_3  and  C_4 
REMARK       I    between atoms: C_4  and  N_5 
REMARK    2  A    between atoms: N_5  and  C_6 
REMARK    3  A    between atoms: C_6  and  C_7 
REMARK    4  A    between atoms: C_14  and  N_15 
REMARK       I    between atoms: N_15  and  C_16 
REMARK    5  A    between atoms: C_16  and  C_17 
REMARK       I    between atoms: C_17  and  N_18 
REMARK    6  A    between atoms: N_18  and  C_19 
REMARK    7  A    between atoms: C_19  and  C_20 
REMARK    8  A    between atoms: C_20  and  C_21 
REMARK    9  A    between atoms: C_24  and  O_25 
ROOT
HETATM    1  N   UNL     1      25.910  46.843  50.462  1.00  0.00    -0.318 N 
HETATM    2  C   UNL     1      25.613  46.784  51.807  1.00  0.00     0.313 C 
HETATM    3  O   UNL     1      25.217  47.683  52.540  1.00  0.00    -0.262 OA
HETATM    4  H   UNL     1      25.943  45.937  50.000  1.00  0.00     0.169 HD
ENDROOT
BRANCH   1   5
HETATM    5  C   UNL     1      25.909  48.008  49.672  1.00  0.00     0.051 A 
HETATM    6  C   UNL     1      24.807  48.504  48.949  1.00  0.00     0.058 A 
HETATM    7  C   UNL     1      24.966  49.637  48.129  1.00  0.00     0.019 A 
HETATM    8  C   UNL     1      26.200  50.281  48.041  1.00  0.00     0.001 A 
HETATM    9  C   UNL     1      27.275  49.825  48.797  1.00  0.00     0.002 A 
HETATM   10  C   UNL     1      27.126  48.706  49.618  1.00  0.00     0.030 A 
BRANCH   6  11
HETATM   11  C   UNL     1      23.417  48.032  49.198  1.00  0.00     0.254 C 
HETATM   12  N   UNL     1      22.430  48.993  49.115  1.00  0.00    -0.353 N 
HETATM   13  H   UNL     1      22.647  49.878  48.677  1.00  0.00     0.163 HD
HETATM   14  O   UNL     1      23.207  46.864  49.509  1.00  0.00    -0.268 OA
BRANCH  12  15
HETATM   15  C   UNL     1      21.035  48.648  49.282  1.00  0.00     0.162 C 
BRANCH  15  16
HETATM   16  C   UNL     1      20.157  49.867  49.305  1.00  0.00    -0.023 A 
HETATM   17  C   UNL     1      19.071  49.947  50.172  1.00  0.00     0.125 A 
HETATM   18  N   UNL     1      18.266  51.029  50.288  1.00  0.00    -0.273 NA
HETATM   19  C   UNL     1      18.564  52.092  49.512  1.00  0.00     0.116 A 
HETATM   20  C   UNL     1      19.627  52.124  48.626  1.00  0.00     0.020 A 
HETATM   21  C   UNL     1      20.436  50.996  48.529  1.00  0.00     0.012 A 
ENDBRANCH  15  16
ENDBRANCH  12  15
ENDBRANCH   6  11
ENDBRANCH   1   5
BRANCH   2  22
HETATM   22  C   UNL     1      25.688  45.340  52.356  1.00  0.00     0.309 C 
HETATM   23  N   UNL     1      26.915  45.011  52.884  1.00  0.00    -0.353 N 
HETATM   24  H   UNL     1      27.645  45.713  52.796  1.00  0.00     0.162 HD
HETATM   25  O   UNL     1      24.698  44.622  52.326  1.00  0.00    -0.262 OA
BRANCH  23  26
HETATM   26  C   UNL     1      27.233  43.680  53.361  1.00  0.00     0.128 C 
BRANCH  26  27
HETATM   27  C   UNL     1      28.737  43.415  53.302  1.00  0.00     0.058 C 
BRANCH  27  28
HETATM   28  C   UNL     1      29.441  43.821  54.573  1.00  0.00    -0.057 A 
HETATM   29  C   UNL     1      30.440  43.003  55.121  1.00  0.00     0.010 A 
HETATM   30  C   UNL     1      31.098  43.376  56.295  1.00  0.00     0.037 A 
HETATM   31  C   UNL     1      30.750  44.566  56.924  1.00  0.00     0.065 A 
HETATM   32  C   UNL     1      29.754  45.383  56.404  1.00  0.00     0.037 A 
HETATM   33  C   UNL     1      29.098  45.011  55.229  1.00  0.00     0.010 A 
BRANCH  31  34
HETATM   34  O   UNL     1      31.371  44.973  58.069  1.00  0.00    -0.361 OA
HETATM   35  H   UNL     1      32.227  44.516  58.132  1.00  0.00     0.217 HD
ENDBRANCH  31  34
ENDBRANCH  27  28
ENDBRANCH  26  27
ENDBRANCH  23  26
ENDBRANCH   2  22
TORSDOF 9
ENDMDL
MODEL 2
REMARK VINA RESULT:     -10.0      1.851      2.700
REMARK  9 active torsions:
REMARK  status: ('A' for Active; 'I' for Inactive)
REMARK    1  A    between atoms: C_3  and  C_4 
REMARK       I    between atoms: C_4  and  N_5 
REMARK    2  A    between atoms: N_5  and  C_6 
REMARK    3  A    between atoms: C_6  and  C_7 
REMARK    4  A    between atoms: C_14  and  N_15 
REMARK       I    between atoms: N_15  and  C_16 
REMARK    5  A    between atoms: C_16  and  C_17 
REMARK       I    between atoms: C_17  and  N_18 
REMARK    6  A    between atoms: N_18  and  C_19 
REMARK    7  A    between atoms: C_19  and  C_20 
REMARK    8  A    between atoms: C_20  and  C_21 
REMARK    9  A    between atoms: C_24  and  O_25 
ROOT
HETATM    1  N   UNL     1      24.337  46.159  50.906  1.00  0.00    -0.318 N 
HETATM    2  C   UNL     1      25.658  46.480  51.138  1.00  0.00     0.313 C 
HETATM    3  O   UNL     1      26.531  46.751  50.323  1.00  0.00    -0.262 OA
HETATM    4  H   UNL     1      23.734  46.251  51.719  1.00  0.00     0.169 HD
ENDROOT
BRANCH   1   5
HETATM    5  C   UNL     1      23.748  45.981  49.639  1.00  0.00     0.051 A 
HETATM    6  C   UNL     1      23.001  46.950  48.943  1.00  0.00     0.058 A 
HETATM    7  C   UNL     1      22.393  46.612  47.719  1.00  0.00     0.019 A 
HETATM    8  C   UNL     1      22.538  45.333  47.184  1.00  0.00     0.001 A 
HETATM    9  C   UNL     1      23.321  44.391  47.844  1.00  0.00     0.002 A 
HETATM   10  C   UNL     1      23.934  44.718  49.055  1.00  0.00     0.030 A 
BRANCH   6  11
HETATM   11  C   UNL     1      23.023  48.391  49.318  1.00  0.00     0.254 C 
HETATM   12  N   UNL     1      21.795  49.018  49.381  1.00  0.00    -0.353 N 
HETATM   13  H   UNL     1      20.959  48.449  49.406  1.00  0.00     0.163 HD
HETATM   14  O   UNL     1      24.092  48.966  49.499  1.00  0.00    -0.268 OA
BRANCH  12  15
HETATM   15  C   UNL     1      21.682  50.401  49.789  1.00  0.00     0.162 C 
BRANCH  15  16
HETATM   16  C   UNL     1      20.305  50.946  49.538  1.00  0.00    -0.023 A 
HETATM   17  C   UNL     1      19.222  50.531  50.308  1.00  0.00     0.125 A 
HETATM   18  N   UNL     1      17.964  51.012  50.176  1.00  0.00    -0.273 NA
HETATM   19  C   UNL     1      17.774  51.967  49.242  1.00  0.00     0.116 A 
HETATM   20  C   UNL     1      18.781  52.461  48.432  1.00  0.00     0.020 A 
HETATM   21  C   UNL     1      20.065  51.945  48.589  1.00  0.00     0.012 A 
ENDBRANCH  15  16
ENDBRANCH  12  15
ENDBRANCH   6  11
ENDBRANCH   1   5
BRANCH   2  22
HETATM   22  C   UNL     1      25.964  46.622  52.647  1.00  0.00     0.309 C 
HETATM   23  N   UNL     1      26.723  45.594  53.158  1.00  0.00    -0.353 N 
HETATM   24  H   UNL     1      26.938  44.833  52.519  1.00  0.00     0.162 HD
HETATM   25  O   UNL     1      25.568  47.602  53.262  1.00  0.00    -0.262 OA
BRANCH  23  26
HETATM   26  C   UNL     1      27.040  45.477  54.567  1.00  0.00     0.128 C 
BRANCH  26  27
HETATM   27  C   UNL     1      28.314  46.247  54.914  1.00  0.00     0.058 C 
BRANCH  27  28
HETATM   28  C   UNL     1      29.333  45.384  55.615  1.00  0.00    -0.057 A 
HETATM   29  C   UNL     1      29.843  45.765  56.865  1.00  0.00     0.010 A 
HETATM   30  C   UNL     1      30.783  44.967  57.522  1.00  0.00     0.037 A 
HETATM   31  C   UNL     1      31.218  43.790  56.921  1.00  0.00     0.065 A 
HETATM   32  C   UNL     1      30.734  43.404  55.678  1.00  0.00     0.037 A 
HETATM   33  C   UNL     1      29.792  44.200  55.023  1.00  0.00     0.010 A 
BRANCH  31  34
HETATM   34  O   UNL     1      32.129  42.978  57.529  1.00  0.00    -0.361 OA
HETATM   35  H   UNL     1      31.873  42.873  58.461  1.00  0.00     0.217 HD
ENDBRANCH  31  34
ENDBRANCH  27  28
ENDBRANCH  26  27
ENDBRANCH  23  26
ENDBRANCH   2  22
TORSDOF 9
ENDMDL
MODEL 3
REMARK VINA RESULT:      -9.7      3.233      9.455
REMARK  9 active torsions:
REMARK  status: ('A' for Active; 'I' for Inactive)
REMARK    1  A    between atoms: C_3  and  C_4 
REMARK       I    between atoms: C_4  and  N_5 
REMARK    2  A    between atoms: N_5  and  C_6 
REMARK    3  A    between atoms: C_6  and  C_7 
REMARK    4  A    between atoms: C_14  and  N_15 
REMARK       I    between atoms: N_15  and  C_16 
REMARK    5  A    between atoms: C_16  and  C_17 
REMARK       I    between atoms: C_17  and  N_18 
REMARK    6  A    between atoms: N_18  and  C_19 
REMARK    7  A    between atoms: C_19  and  C_20 
REMARK    8  A    between atoms: C_20  and  C_21 
REMARK    9  A    between atoms: C_24  and  O_25 
ROOT
HETATM    1  N   UNL     1      27.973  45.027  54.369  1.00  0.00    -0.318 N 
HETATM    2  C   UNL     1      26.765  44.363  54.354  1.00  0.00     0.313 C 
HETATM    3  O   UNL     1      26.396  43.439  55.068  1.00  0.00    -0.262 OA
HETATM    4  H   UNL     1      27.963  45.928  53.898  1.00  0.00     0.169 HD
ENDROOT
BRANCH   1   5
HETATM    5  C   UNL     1      29.084  44.692  55.168  1.00  0.00     0.051 A 
HETATM    6  C   UNL     1      29.891  43.550  55.005  1.00  0.00     0.058 A 
HETATM    7  C   UNL     1      30.922  43.290  55.928  1.00  0.00     0.019 A 
HETATM    8  C   UNL     1      31.160  44.162  56.990  1.00  0.00     0.001 A 
HETATM    9  C   UNL     1      30.398  45.319  57.119  1.00  0.00     0.002 A 
HETATM   10  C   UNL     1      29.378  45.589  56.206  1.00  0.00     0.030 A 
BRANCH   6  11
HETATM   11  C   UNL     1      29.865  42.728  53.763  1.00  0.00     0.254 C 
HETATM   12  N   UNL     1      28.833  41.818  53.663  1.00  0.00    -0.353 N 
HETATM   13  H   UNL     1      28.043  41.906  54.288  1.00  0.00     0.163 HD
HETATM   14  O   UNL     1      30.755  42.845  52.927  1.00  0.00    -0.268 OA
BRANCH  12  15
HETATM   15  C   UNL     1      28.668  41.001  52.480  1.00  0.00     0.162 C 
BRANCH  15  16
HETATM   16  C   UNL     1      27.658  41.587  51.534  1.00  0.00    -0.023 A 
HETATM   17  C   UNL     1      26.554  40.847  51.122  1.00  0.00     0.125 A 
HETATM   18  N   UNL     1      25.577  41.320  50.314  1.00  0.00    -0.273 NA
HETATM   19  C   UNL     1      25.696  42.601  49.905  1.00  0.00     0.116 A 
HETATM   20  C   UNL     1      26.745  43.429  50.265  1.00  0.00     0.020 A 
HETATM   21  C   UNL     1      27.735  42.912  51.096  1.00  0.00     0.012 A 
ENDBRANCH  15  16
ENDBRANCH  12  15
ENDBRANCH   6  11
ENDBRANCH   1   5
BRANCH   2  22
HETATM   22  C   UNL     1      25.758  45.010  53.375  1.00  0.00     0.309 C 
HETATM   23  N   UNL     1      26.259  46.106  52.710  1.00  0.00    -0.353 N 
HETATM   24  H   UNL     1      27.192  46.407  52.978  1.00  0.00     0.162 HD
HETATM   25  O   UNL     1      24.648  44.520  53.227  1.00  0.00    -0.262 OA
BRANCH  23  26
HETATM   26  C   UNL     1      25.453  46.921  51.823  1.00  0.00     0.128 C 
BRANCH  26  27
HETATM   27  C   UNL     1      26.228  47.299  50.561  1.00  0.00     0.058 C 
BRANCH  27  28
HETATM   28  C   UNL     1      25.419  48.164  49.629  1.00  0.00    -0.057 A 
HETATM   29  C   UNL     1      24.041  47.947  49.477  1.00  0.00     0.010 A 
HETATM   30  C   UNL     1      23.286  48.749  48.618  1.00  0.00     0.037 A 
HETATM   31  C   UNL     1      23.913  49.765  47.905  1.00  0.00     0.065 A 
HETATM   32  C   UNL     1      25.278  49.987  48.031  1.00  0.00     0.037 A 
HETATM   33  C   UNL     1      26.032  49.187  48.892  1.00  0.00     0.010 A 
BRANCH  31  34
HETATM   34  O   UNL     1      23.213  50.576  47.061  1.00  0.00    -0.361 OA
HETATM   35  H   UNL     1      22.609  50.024  46.536  1.00  0.00     0.217 HD
ENDBRANCH  31  34
ENDBRANCH  27  28
ENDBRANCH  26  27
ENDBRANCH  23  26
ENDBRANCH   2  22
TORSDOF 9
ENDMDL
MODEL 4
REMARK VINA RESULT:      -9.6      2.949      5.027
REMARK  9 active torsions:
REMARK  status: ('A' for Active; 'I' for Inactive)
REMARK    1  A    between atoms: C_3  and  C_4 
REMARK       I    between atoms: C_4  and  N_5 
REMARK    2  A    between atoms: N_5  and  C_6 
REMARK    3  A    between atoms: C_6  and  C_7 
REMARK    4  A    between atoms: C_14  and  N_15 
REMARK       I    between atoms: N_15  and  C_16 
REMARK    5  A    between atoms: C_16  and  C_17 
REMARK       I    between atoms: C_17  and  N_18 
REMARK    6  A    between atoms: N_18  and  C_19 
REMARK    7  A    between atoms: C_19  and  C_20 
REMARK    8  A    between atoms: C_20  and  C_21 
REMARK    9  A    between atoms: C_24  and  O_25 
ROOT
HETATM    1  N   UNL     1      25.351  42.059  50.586  1.00  0.00    -0.318 N 
HETATM    2  C   UNL     1      26.687  42.386  50.497  1.00  0.00     0.313 C 
HETATM    3  O   UNL     1      27.247  43.075  49.653  1.00  0.00    -0.262 OA
HETATM    4  H   UNL     1      25.061  41.725  51.502  1.00  0.00     0.169 HD
ENDROOT
BRANCH   1   5
HETATM    5  C   UNL     1      24.362  42.382  49.637  1.00  0.00     0.051 A 
HETATM    6  C   UNL     1      23.596  43.563  49.627  1.00  0.00     0.058 A 
HETATM    7  C   UNL     1      22.578  43.724  48.668  1.00  0.00     0.019 A 
HETATM    8  C   UNL     1      22.334  42.731  47.719  1.00  0.00     0.001 A 
HETATM    9  C   UNL     1      23.127  41.588  47.694  1.00  0.00     0.002 A 
HETATM   10  C   UNL     1      24.143  41.422  48.637  1.00  0.00     0.030 A 
BRANCH   6  11
HETATM   11  C   UNL     1      23.970  44.760  50.430  1.00  0.00     0.254 C 
HETATM   12  N   UNL     1      24.075  45.946  49.733  1.00  0.00    -0.353 N 
HETATM   13  H   UNL     1      23.681  46.001  48.803  1.00  0.00     0.163 HD
HETATM   14  O   UNL     1      24.216  44.649  51.627  1.00  0.00    -0.268 OA
BRANCH  12  15
HETATM   15  C   UNL     1      24.378  47.188  50.411  1.00  0.00     0.162 C 
BRANCH  15  16
HETATM   16  C   UNL     1      25.036  48.179  49.494  1.00  0.00    -0.023 A 
HETATM   17  C   UNL     1      24.284  48.930  48.597  1.00  0.00     0.125 A 
HETATM   18  N   UNL     1      24.796  49.876  47.775  1.00  0.00    -0.273 NA
HETATM   19  C   UNL     1      26.125  50.099  47.861  1.00  0.00     0.116 A 
HETATM   20  C   UNL     1      26.964  49.419  48.727  1.00  0.00     0.020 A 
HETATM   21  C   UNL     1      26.407  48.450  49.557  1.00  0.00     0.012 A 
ENDBRANCH  15  16
ENDBRANCH  12  15
ENDBRANCH   6  11
ENDBRANCH   1   5
BRANCH   2  22
HETATM   22  C   UNL     1      27.489  41.895  51.724  1.00  0.00     0.309 C 
HETATM   23  N   UNL     1      27.525  42.800  52.761  1.00  0.00    -0.353 N 
HETATM   24  H   UNL     1      27.089  43.701  52.586  1.00  0.00     0.162 HD
HETATM   25  O   UNL     1      27.988  40.779  51.722  1.00  0.00    -0.262 OA
BRANCH  23  26
HETATM   26  C   UNL     1      28.303  42.584  53.964  1.00  0.00     0.128 C 
BRANCH  26  27
HETATM   27  C   UNL     1      29.661  43.280  53.878  1.00  0.00     0.058 C 
BRANCH  27  28
HETATM   28  C   UNL     1      30.088  43.870  55.198  1.00  0.00    -0.057 A 
HETATM   29  C   UNL     1      31.032  43.208  55.997  1.00  0.00     0.010 A 
HETATM   30  C   UNL     1      31.435  43.752  57.219  1.00  0.00     0.037 A 
HETATM   31  C   UNL     1      30.885  44.957  57.644  1.00  0.00     0.065 A 
HETATM   32  C   UNL     1      29.939  45.620  56.874  1.00  0.00     0.037 A 
HETATM   33  C   UNL     1      29.539  45.077  55.651  1.00  0.00     0.010 A 
BRANCH  31  34
HETATM   34  O   UNL     1      31.254  45.527  58.827  1.00  0.00    -0.361 OA
HETATM   35  H   UNL     1      30.505  45.468  59.443  1.00  0.00     0.217 HD
ENDBRANCH  31  34
ENDBRANCH  27  28
ENDBRANCH  26  27
ENDBRANCH  23  26
ENDBRANCH   2  22
TORSDOF 9
ENDMDL
MODEL 5
REMARK VINA RESULT:      -9.3      2.463     10.830
REMARK  9 active torsions:
REMARK  status: ('A' for Active; 'I' for Inactive)
REMARK    1  A    between atoms: C_3  and  C_4 
REMARK       I    between atoms: C_4  and  N_5 
REMARK    2  A    between atoms: N_5  and  C_6 
REMARK    3  A    between atoms: C_6  and  C_7 
REMARK    4  A    between atoms: C_14  and  N_15 
REMARK       I    between atoms: N_15  and  C_16 
REMARK    5  A    between atoms: C_16  and  C_17 
REMARK       I    between atoms: C_17  and  N_18 
REMARK    6  A    between atoms: N_18  and  C_19 
REMARK    7  A    between atoms: C_19  and  C_20 
REMARK    8  A    between atoms: C_20  and  C_21 
REMARK    9  A    between atoms: C_24  and  O_25 
ROOT
HETATM    1  N   UNL     1      26.266  44.998  50.636  1.00  0.00    -0.318 N 
HETATM    2  C   UNL     1      24.952  45.351  50.859  1.00  0.00     0.313 C 
HETATM    3  O   UNL     1      24.062  44.686  51.375  1.00  0.00    -0.262 OA
HETATM    4  H   UNL     1      26.888  45.783  50.463  1.00  0.00     0.169 HD
ENDROOT
BRANCH   1   5
HETATM    5  C   UNL     1      26.826  43.728  50.876  1.00  0.00     0.051 A 
HETATM    6  C   UNL     1      27.520  43.350  52.041  1.00  0.00     0.058 A 
HETATM    7  C   UNL     1      28.104  42.071  52.118  1.00  0.00     0.019 A 
HETATM    8  C   UNL     1      27.988  41.173  51.058  1.00  0.00     0.001 A 
HETATM    9  C   UNL     1      27.256  41.526  49.929  1.00  0.00     0.002 A 
HETATM   10  C   UNL     1      26.667  42.789  49.846  1.00  0.00     0.030 A 
BRANCH   6  11
HETATM   11  C   UNL     1      27.458  44.148  53.297  1.00  0.00     0.254 C 
HETATM   12  N   UNL     1      28.670  44.574  53.801  1.00  0.00    -0.353 N 
HETATM   13  H   UNL     1      29.486  44.537  53.205  1.00  0.00     0.163 HD
HETATM   14  O   UNL     1      26.382  44.348  53.850  1.00  0.00    -0.268 OA
BRANCH  12  15
HETATM   15  C   UNL     1      28.738  45.404  54.985  1.00  0.00     0.162 C 
BRANCH  15  16
HETATM   16  C   UNL     1      29.802  44.935  55.936  1.00  0.00    -0.023 A 
HETATM   17  C   UNL     1      30.011  45.584  57.148  1.00  0.00     0.125 A 
HETATM   18  N   UNL     1      30.914  45.192  58.078  1.00  0.00    -0.273 NA
HETATM   19  C   UNL     1      31.637  44.088  57.794  1.00  0.00     0.116 A 
HETATM   20  C   UNL     1      31.501  43.360  56.625  1.00  0.00     0.020 A 
HETATM   21  C   UNL     1      30.565  43.790  55.687  1.00  0.00     0.012 A 
ENDBRANCH  15  16
ENDBRANCH  12  15
ENDBRANCH   6  11
ENDBRANCH   1   5
BRANCH   2  22
HETATM   22  C   UNL     1      24.681  46.832  50.507  1.00  0.00     0.309 C 
HETATM   23  N   UNL     1      23.529  47.027  49.780  1.00  0.00    -0.353 N 
HETATM   24  H   UNL     1      23.027  46.189  49.498  1.00  0.00     0.162 HD
HETATM   25  O   UNL     1      25.442  47.704  50.902  1.00  0.00    -0.262 OA
BRANCH  23  26
HETATM   26  C   UNL     1      23.139  48.322  49.260  1.00  0.00     0.128 C 
BRANCH  26  27
HETATM   27  C   UNL     1      21.805  48.242  48.517  1.00  0.00     0.058 C 
BRANCH  27  28
HETATM   28  C   UNL     1      20.871  49.364  48.894  1.00  0.00    -0.057 A 
HETATM   29  C   UNL     1      21.047  50.645  48.352  1.00  0.00     0.010 A 
HETATM   30  C   UNL     1      20.181  51.687  48.694  1.00  0.00     0.037 A 
HETATM   31  C   UNL     1      19.142  51.445  49.586  1.00  0.00     0.065 A 
HETATM   32  C   UNL     1      18.960  50.187  50.144  1.00  0.00     0.037 A 
HETATM   33  C   UNL     1      19.823  49.145  49.799  1.00  0.00     0.010 A 
BRANCH  31  34
HETATM   34  O   UNL     1      18.270  52.431  49.943  1.00  0.00    -0.361 OA
HETATM   35  H   UNL     1      18.773  53.249  50.088  1.00  0.00     0.217 HD
ENDBRANCH  31  34
ENDBRANCH  27  28
ENDBRANCH  26  27
ENDBRANCH  23  26
ENDBRANCH   2  22
TORSDOF 9
ENDMDL
MODEL 6
REMARK VINA RESULT:      -9.3      2.383     10.185
REMARK  9 active torsions:
REMARK  status: ('A' for Active; 'I' for Inactive)
REMARK    1  A    between atoms: C_3  and  C_4 
REMARK       I    between atoms: C_4  and  N_5 
REMARK    2  A    between atoms: N_5  and  C_6 
REMARK    3  A    between atoms: C_6  and  C_7 
REMARK    4  A    between atoms: C_14  and  N_15 
REMARK       I    between atoms: N_15  and  C_16 
REMARK    5  A    between atoms: C_16  and  C_17 
REMARK       I    between atoms: C_17  and  N_18 
REMARK    6  A    between atoms: N_18  and  C_19 
REMARK    7  A    between atoms: C_19  and  C_20 
REMARK    8  A    between atoms: C_20  and  C_21 
REMARK    9  A    between atoms: C_24  and  O_25 
ROOT
HETATM    1  N   UNL     1      25.022  46.944  50.075  1.00  0.00    -0.318 N 
HETATM    2  C   UNL     1      26.137  47.494  49.478  1.00  0.00     0.313 C 
HETATM    3  O   UNL     1      27.190  46.944  49.180  1.00  0.00    -0.262 OA
HETATM    4  H   UNL     1      24.174  47.497  49.971  1.00  0.00     0.169 HD
ENDROOT
BRANCH   1   5
HETATM    5  C   UNL     1      24.917  45.626  50.560  1.00  0.00     0.051 A 
HETATM    6  C   UNL     1      25.532  45.135  51.727  1.00  0.00     0.058 A 
HETATM    7  C   UNL     1      25.414  43.770  52.054  1.00  0.00     0.019 A 
HETATM    8  C   UNL     1      24.680  42.907  51.240  1.00  0.00     0.001 A 
HETATM    9  C   UNL     1      24.027  43.403  50.117  1.00  0.00     0.002 A 
HETATM   10  C   UNL     1      24.133  44.755  49.788  1.00  0.00     0.030 A 
BRANCH   6  11
HETATM   11  C   UNL     1      26.100  46.038  52.766  1.00  0.00     0.254 C 
HETATM   12  N   UNL     1      26.911  45.439  53.708  1.00  0.00    -0.353 N 
HETATM   13  H   UNL     1      27.264  44.508  53.527  1.00  0.00     0.163 HD
HETATM   14  O   UNL     1      25.798  47.227  52.784  1.00  0.00    -0.268 OA
BRANCH  12  15
HETATM   15  C   UNL     1      27.567  46.219  54.735  1.00  0.00     0.162 C 
BRANCH  15  16
HETATM   16  C   UNL     1      28.781  45.521  55.278  1.00  0.00    -0.023 A 
HETATM   17  C   UNL     1      29.443  46.009  56.399  1.00  0.00     0.125 A 
HETATM   18  N   UNL     1      30.511  45.410  56.976  1.00  0.00    -0.273 NA
HETATM   19  C   UNL     1      30.934  44.256  56.418  1.00  0.00     0.116 A 
HETATM   20  C   UNL     1      30.341  43.675  55.311  1.00  0.00     0.020 A 
HETATM   21  C   UNL     1      29.246  44.317  54.739  1.00  0.00     0.012 A 
ENDBRANCH  15  16
ENDBRANCH  12  15
ENDBRANCH   6  11
ENDBRANCH   1   5
BRANCH   2  22
HETATM   22  C   UNL     1      25.900  48.959  49.044  1.00  0.00     0.309 C 
HETATM   23  N   UNL     1      24.574  49.273  48.855  1.00  0.00    -0.353 N 
HETATM   24  H   UNL     1      23.912  48.508  48.952  1.00  0.00     0.162 HD
HETATM   25  O   UNL     1      26.847  49.724  48.933  1.00  0.00    -0.262 OA
BRANCH  23  26
HETATM   26  C   UNL     1      24.137  50.560  48.352  1.00  0.00     0.128 C 
BRANCH  26  27
HETATM   27  C   UNL     1      22.861  50.425  47.520  1.00  0.00     0.058 C 
BRANCH  27  28
HETATM   28  C   UNL     1      21.624  50.331  48.378  1.00  0.00    -0.057 A 
HETATM   29  C   UNL     1      20.934  51.493  48.754  1.00  0.00     0.010 A 
HETATM   30  C   UNL     1      19.785  51.412  49.544  1.00  0.00     0.037 A 
HETATM   31  C   UNL     1      19.332  50.165  49.964  1.00  0.00     0.065 A 
HETATM   32  C   UNL     1      20.010  49.006  49.614  1.00  0.00     0.037 A 
HETATM   33  C   UNL     1      21.156  49.086  48.821  1.00  0.00     0.010 A 
BRANCH  31  34
HETATM   34  O   UNL     1      18.211  50.039  50.731  1.00  0.00    -0.361 OA
HETATM   35  H   UNL     1      17.796  49.184  50.530  1.00  0.00     0.217 HD
ENDBRANCH  31  34
ENDBRANCH  27  28
ENDBRANCH  26  27
ENDBRANCH  23  26
ENDBRANCH   2  22
TORSDOF 9
ENDMDL
MODEL 7
REMARK VINA RESULT:      -9.3      4.844      9.539
REMARK  9 active torsions:
REMARK  status: ('A' for Active; 'I' for Inactive)
REMARK    1  A    between atoms: C_3  and  C_4 
REMARK       I    between atoms: C_4  and  N_5 
REMARK    2  A    between atoms: N_5  and  C_6 
REMARK    3  A    between atoms: C_6  and  C_7 
REMARK    4  A    between atoms: C_14  and  N_15 
REMARK       I    between atoms: N_15  and  C_16 
REMARK    5  A    between atoms: C_16  and  C_17 
REMARK       I    between atoms: C_17  and  N_18 
REMARK    6  A    between atoms: N_18  and  C_19 
REMARK    7  A    between atoms: C_19  and  C_20 
REMARK    8  A    between atoms: C_20  and  C_21 
REMARK    9  A    between atoms: C_24  and  O_25 
ROOT
HETATM    1  N   UNL     1      25.986  43.650  51.319  1.00  0.00    -0.318 N 
HETATM    2  C   UNL     1      26.567  43.478  50.081  1.00  0.00     0.313 C 
HETATM    3  O   UNL     1      27.284  44.255  49.462  1.00  0.00    -0.262 OA
HETATM    4  H   UNL     1      25.675  42.788  51.760  1.00  0.00     0.169 HD
ENDROOT
BRANCH   1   5
HETATM    5  C   UNL     1      26.028  44.828  52.089  1.00  0.00     0.051 A 
HETATM    6  C   UNL     1      26.652  44.962  53.344  1.00  0.00     0.058 A 
HETATM    7  C   UNL     1      26.547  46.177  54.047  1.00  0.00     0.019 A 
HETATM    8  C   UNL     1      25.844  47.252  53.504  1.00  0.00     0.001 A 
HETATM    9  C   UNL     1      25.273  47.139  52.240  1.00  0.00     0.002 A 
HETATM   10  C   UNL     1      25.378  45.940  51.532  1.00  0.00     0.030 A 
BRANCH   6  11
HETATM   11  C   UNL     1      27.627  43.960  53.857  1.00  0.00     0.254 C 
HETATM   12  N   UNL     1      28.919  44.409  54.033  1.00  0.00    -0.353 N 
HETATM   13  H   UNL     1      29.092  45.406  54.036  1.00  0.00     0.163 HD
HETATM   14  O   UNL     1      27.276  42.800  54.049  1.00  0.00    -0.268 OA
BRANCH  12  15
HETATM   15  C   UNL     1      29.944  43.546  54.578  1.00  0.00     0.162 C 
BRANCH  15  16
HETATM   16  C   UNL     1      30.421  44.024  55.920  1.00  0.00    -0.023 A 
HETATM   17  C   UNL     1      31.398  43.324  56.621  1.00  0.00     0.125 A 
HETATM   18  N   UNL     1      31.914  43.717  57.809  1.00  0.00    -0.273 NA
HETATM   19  C   UNL     1      31.446  44.875  58.320  1.00  0.00     0.116 A 
HETATM   20  C   UNL     1      30.486  45.656  57.701  1.00  0.00     0.020 A 
HETATM   21  C   UNL     1      29.973  45.224  56.481  1.00  0.00     0.012 A 
ENDBRANCH  15  16
ENDBRANCH  12  15
ENDBRANCH   6  11
ENDBRANCH   1   5
BRANCH   2  22
HETATM   22  C   UNL     1      26.346  42.051  49.528  1.00  0.00     0.309 C 
HETATM   23  N   UNL     1      26.523  41.950  48.167  1.00  0.00    -0.353 N 
HETATM   24  H   UNL     1      26.708  42.818  47.672  1.00  0.00     0.162 HD
HETATM   25  O   UNL     1      26.076  41.134  50.292  1.00  0.00    -0.262 OA
BRANCH  23  26
HETATM   26  C   UNL     1      26.268  40.728  47.432  1.00  0.00     0.128 C 
BRANCH  26  27
HETATM   27  C   UNL     1      27.568  39.985  47.125  1.00  0.00     0.058 C 
BRANCH  27  28
HETATM   28  C   UNL     1      27.916  38.975  48.191  1.00  0.00    -0.057 A 
HETATM   29  C   UNL     1      29.189  38.977  48.780  1.00  0.00     0.010 A 
HETATM   30  C   UNL     1      29.514  38.048  49.770  1.00  0.00     0.037 A 
HETATM   31  C   UNL     1      28.566  37.110  50.165  1.00  0.00     0.065 A 
HETATM   32  C   UNL     1      27.305  37.084  49.584  1.00  0.00     0.037 A 
HETATM   33  C   UNL     1      26.978  38.015  48.596  1.00  0.00     0.010 A 
BRANCH  31  34
HETATM   34  O   UNL     1      28.839  36.189  51.133  1.00  0.00    -0.361 OA
HETATM   35  H   UNL     1      29.439  35.522  50.761  1.00  0.00     0.217 HD
ENDBRANCH  31  34
ENDBRANCH  27  28
ENDBRANCH  26  27
ENDBRANCH  23  26
ENDBRANCH   2  22
TORSDOF 9
ENDMDL
MODEL 8
REMARK VINA RESULT:      -9.0      2.602      5.498
REMARK  9 active torsions:
REMARK  status: ('A' for Active; 'I' for Inactive)
REMARK    1  A    between atoms: C_3  and  C_4 
REMARK       I    between atoms: C_4  and  N_5 
REMARK    2  A    between atoms: N_5  and  C_6 
REMARK    3  A    between atoms: C_6  and  C_7 
REMARK    4  A    between atoms: C_14  and  N_15 
REMARK       I    between atoms: N_15  and  C_16 
REMARK    5  A    between atoms: C_16  and  C_17 
REMARK       I    between atoms: C_17  and  N_18 
REMARK    6  A    between atoms: N_18  and  C_19 
REMARK    7  A    between atoms: C_19  and  C_20 
REMARK    8  A    between atoms: C_20  and  C_21 
REMARK    9  A    between atoms: C_24  and  O_25 
ROOT
HETATM    1  N   UNL     1      23.292  49.223  49.164  1.00  0.00    -0.318 N 
HETATM    2  C   UNL     1      24.462  49.408  48.459  1.00  0.00     0.313 C 
HETATM    3  O   UNL     1      24.636  50.043  47.426  1.00  0.00    -0.262 OA
HETATM    4  H   UNL     1      23.425  48.911  50.123  1.00  0.00     0.169 HD
ENDROOT
BRANCH   1   5
HETATM    5  C   UNL     1      22.015  49.661  48.764  1.00  0.00     0.051 A 
HETATM    6  C   UNL     1      21.122  48.938  47.950  1.00  0.00     0.058 A 
HETATM    7  C   UNL     1      19.907  49.530  47.555  1.00  0.00     0.019 A 
HETATM    8  C   UNL     1      19.575  50.817  47.975  1.00  0.00     0.001 A 
HETATM    9  C   UNL     1      20.432  51.510  48.824  1.00  0.00     0.002 A 
HETATM   10  C   UNL     1      21.636  50.930  49.227  1.00  0.00     0.030 A 
BRANCH   6  11
HETATM   11  C   UNL     1      21.290  47.482  47.685  1.00  0.00     0.254 C 
HETATM   12  N   UNL     1      21.090  46.645  48.764  1.00  0.00    -0.353 N 
HETATM   13  H   UNL     1      20.628  47.012  49.586  1.00  0.00     0.163 HD
HETATM   14  O   UNL     1      21.638  47.092  46.575  1.00  0.00    -0.268 OA
BRANCH  12  15
HETATM   15  C   UNL     1      21.169  45.208  48.620  1.00  0.00     0.162 C 
BRANCH  15  16
HETATM   16  C   UNL     1      22.443  44.658  49.195  1.00  0.00    -0.023 A 
HETATM   17  C   UNL     1      22.416  43.726  50.228  1.00  0.00     0.125 A 
HETATM   18  N   UNL     1      23.517  43.148  50.763  1.00  0.00    -0.273 NA
HETATM   19  C   UNL     1      24.707  43.504  50.234  1.00  0.00     0.116 A 
HETATM   20  C   UNL     1      24.847  44.411  49.199  1.00  0.00     0.020 A 
HETATM   21  C   UNL     1      23.697  44.990  48.670  1.00  0.00     0.012 A 
ENDBRANCH  15  16
ENDBRANCH  12  15
ENDBRANCH   6  11
ENDBRANCH   1   5
BRANCH   2  22
HETATM   22  C   UNL     1      25.686  48.819  49.199  1.00  0.00     0.309 C 
HETATM   23  N   UNL     1      25.358  47.886  50.156  1.00  0.00    -0.353 N 
HETATM   24  H   UNL     1      24.366  47.738  50.318  1.00  0.00     0.162 HD
HETATM   25  O   UNL     1      26.816  49.168  48.886  1.00  0.00    -0.262 OA
BRANCH  23  26
HETATM   26  C   UNL     1      26.342  47.284  51.033  1.00  0.00     0.128 C 
BRANCH  26  27
HETATM   27  C   UNL     1      25.672  46.529  52.181  1.00  0.00     0.058 C 
BRANCH  27  28
HETATM   28  C   UNL     1      26.570  46.400  53.385  1.00  0.00    -0.057 A 
HETATM   29  C   UNL     1      26.816  47.509  54.207  1.00  0.00     0.010 A 
HETATM   30  C   UNL     1      27.644  47.393  55.327  1.00  0.00     0.037 A 
HETATM   31  C   UNL     1      28.232  46.167  55.617  1.00  0.00     0.065 A 
HETATM   32  C   UNL     1      28.012  45.061  54.807  1.00  0.00     0.037 A 
HETATM   33  C   UNL     1      27.181  45.175  53.690  1.00  0.00     0.010 A 
BRANCH  31  34
HETATM   34  O   UNL     1      29.042  46.007  56.703  1.00  0.00    -0.361 OA
HETATM   35  H   UNL     1      28.713  46.578  57.417  1.00  0.00     0.217 HD
ENDBRANCH  31  34
ENDBRANCH  27  28
ENDBRANCH  26  27
ENDBRANCH  23  26
ENDBRANCH   2  22
TORSDOF 9
ENDMDL
MODEL 9
REMARK VINA RESULT:      -9.0      3.039      9.683
REMARK  9 active torsions:
REMARK  status: ('A' for Active; 'I' for Inactive)
REMARK    1  A    between atoms: C_3  and  C_4 
REMARK       I    between atoms: C_4  and  N_5 
REMARK    2  A    between atoms: N_5  and  C_6 
REMARK    3  A    between atoms: C_6  and  C_7 
REMARK    4  A    between atoms: C_14  and  N_15 
REMARK       I    between atoms: N_15  and  C_16 
REMARK    5  A    between atoms: C_16  and  C_17 
REMARK       I    between atoms: C_17  and  N_18 
REMARK    6  A    between atoms: N_18  and  C_19 
REMARK    7  A    between atoms: C_19  and  C_20 
REMARK    8  A    between atoms: C_20  and  C_21 
REMARK    9  A    between atoms: C_24  and  O_25 
ROOT
HETATM    1  N   UNL     1      25.172  46.534  51.912  1.00  0.00    -0.318 N 
HETATM    2  C   UNL     1      25.374  47.254  50.753  1.00  0.00     0.313 C 
HETATM    3  O   UNL     1      26.417  47.736  50.329  1.00  0.00    -0.262 OA
HETATM    4  H   UNL     1      24.310  45.995  51.926  1.00  0.00     0.169 HD
ENDROOT
BRANCH   1   5
HETATM    5  C   UNL     1      26.139  46.293  52.907  1.00  0.00     0.051 A 
HETATM    6  C   UNL     1      26.907  45.120  53.032  1.00  0.00     0.058 A 
HETATM    7  C   UNL     1      27.781  44.974  54.127  1.00  0.00     0.019 A 
HETATM    8  C   UNL     1      27.904  45.988  55.076  1.00  0.00     0.001 A 
HETATM    9  C   UNL     1      27.187  47.170  54.923  1.00  0.00     0.002 A 
HETATM   10  C   UNL     1      26.322  47.327  53.838  1.00  0.00     0.030 A 
BRANCH   6  11
HETATM   11  C   UNL     1      27.021  44.123  51.931  1.00  0.00     0.254 C 
HETATM   12  N   UNL     1      26.508  42.870  52.195  1.00  0.00    -0.353 N 
HETATM   13  H   UNL     1      25.894  42.752  52.990  1.00  0.00     0.163 HD
HETATM   14  O   UNL     1      27.593  44.420  50.887  1.00  0.00    -0.268 OA
BRANCH  12  15
HETATM   15  C   UNL     1      26.510  41.834  51.186  1.00  0.00     0.162 C 
BRANCH  15  16
HETATM   16  C   UNL     1      25.290  41.903  50.312  1.00  0.00    -0.023 A 
HETATM   17  C   UNL     1      25.168  41.086  49.192  1.00  0.00     0.125 A 
HETATM   18  N   UNL     1      24.081  41.054  48.386  1.00  0.00    -0.273 NA
HETATM   19  C   UNL     1      23.055  41.865  48.719  1.00  0.00     0.116 A 
HETATM   20  C   UNL     1      23.066  42.707  49.817  1.00  0.00     0.020 A 
HETATM   21  C   UNL     1      24.199  42.719  50.626  1.00  0.00     0.012 A 
ENDBRANCH  15  16
ENDBRANCH  12  15
ENDBRANCH   6  11
ENDBRANCH   1   5
BRANCH   2  22
HETATM   22  C   UNL     1      24.105  47.303  49.871  1.00  0.00     0.309 C 
HETATM   23  N   UNL     1      23.631  48.576  49.652  1.00  0.00    -0.353 N 
HETATM   24  H   UNL     1      24.115  49.326  50.139  1.00  0.00     0.162 HD
HETATM   25  O   UNL     1      23.638  46.269  49.413  1.00  0.00    -0.262 OA
BRANCH  23  26
HETATM   26  C   UNL     1      22.399  48.843  48.938  1.00  0.00     0.128 C 
BRANCH  26  27
HETATM   27  C   UNL     1      22.145  50.345  48.814  1.00  0.00     0.058 C 
BRANCH  27  28
HETATM   28  C   UNL     1      20.727  50.717  49.166  1.00  0.00    -0.057 A 
HETATM   29  C   UNL     1      19.973  49.904  50.025  1.00  0.00     0.010 A 
HETATM   30  C   UNL     1      18.661  50.247  50.358  1.00  0.00     0.037 A 
HETATM   31  C   UNL     1      18.100  51.403  49.825  1.00  0.00     0.065 A 
HETATM   32  C   UNL     1      18.826  52.214  48.963  1.00  0.00     0.037 A 
HETATM   33  C   UNL     1      20.139  51.873  48.632  1.00  0.00     0.010 A 
BRANCH  31  34
HETATM   34  O   UNL     1      16.825  51.779  50.129  1.00  0.00    -0.361 OA
HETATM   35  H   UNL     1      16.367  51.019  50.524  1.00  0.00     0.217 HD
ENDBRANCH  31  34
ENDBRANCH  27  28
ENDBRANCH  26  27
ENDBRANCH  23  26
ENDBRANCH   2  22
TORSDOF 9
ENDMDL
MODEL 10
REMARK VINA RESULT:      -8.9      4.089      6.077
REMARK  9 active torsions:
REMARK  status: ('A' for Active; 'I' for Inactive)
REMARK    1  A    between atoms: C_3  and  C_4 
REMARK       I    between atoms: C_4  and  N_5 
REMARK    2  A    between atoms: N_5  and  C_6 
REMARK    3  A    between atoms: C_6  and  C_7 
REMARK    4  A    between atoms: C_14  and  N_15 
REMARK       I    between atoms: N_15  and  C_16 
REMARK    5  A    between atoms: C_16  and  C_17 
REMARK       I    between atoms: C_17  and  N_18 
REMARK    6  A    between atoms: N_18  and  C_19 
REMARK    7  A    between atoms: C_19  and  C_20 
REMARK    8  A    between atoms: C_20  and  C_21 
REMARK    9  A    between atoms: C_24  and  O_25 
ROOT
HETATM    1  N   UNL     1      25.963  41.762  50.446  1.00  0.00    -0.318 N 
HETATM    2  C   UNL     1      27.330  41.650  50.311  1.00  0.00     0.313 C 
HETATM    3  O   UNL     1      28.012  41.811  49.307  1.00  0.00    -0.262 OA
HETATM    4  H   UNL     1      25.643  41.867  51.405  1.00  0.00     0.169 HD
ENDROOT
BRANCH   1   5
HETATM    5  C   UNL     1      25.052  41.994  49.397  1.00  0.00     0.051 A 
HETATM    6  C   UNL     1      24.518  43.247  49.042  1.00  0.00     0.058 A 
HETATM    7  C   UNL     1      23.549  43.327  48.024  1.00  0.00     0.019 A 
HETATM    8  C   UNL     1      23.126  42.179  47.355  1.00  0.00     0.001 A 
HETATM    9  C   UNL     1      23.693  40.948  47.668  1.00  0.00     0.002 A 
HETATM   10  C   UNL     1      24.660  40.859  48.672  1.00  0.00     0.030 A 
BRANCH   6  11
HETATM   11  C   UNL     1      25.108  44.527  49.524  1.00  0.00     0.254 C 
HETATM   12  N   UNL     1      24.269  45.339  50.261  1.00  0.00    -0.353 N 
HETATM   13  H   UNL     1      23.412  44.947  50.629  1.00  0.00     0.163 HD
HETATM   14  O   UNL     1      26.256  44.832  49.219  1.00  0.00    -0.268 OA
BRANCH  12  15
HETATM   15  C   UNL     1      24.742  46.581  50.831  1.00  0.00     0.162 C 
BRANCH  15  16
HETATM   16  C   UNL     1      25.385  46.371  52.172  1.00  0.00    -0.023 A 
HETATM   17  C   UNL     1      26.123  47.385  52.776  1.00  0.00     0.125 A 
HETATM   18  N   UNL     1      26.689  47.290  54.002  1.00  0.00    -0.273 NA
HETATM   19  C   UNL     1      26.498  46.133  54.670  1.00  0.00     0.116 A 
HETATM   20  C   UNL     1      25.772  45.067  54.169  1.00  0.00     0.020 A 
HETATM   21  C   UNL     1      25.204  45.194  52.905  1.00  0.00     0.012 A 
ENDBRANCH  15  16
ENDBRANCH  12  15
ENDBRANCH   6  11
ENDBRANCH   1   5
BRANCH   2  22
HETATM   22  C   UNL     1      28.031  41.418  51.670  1.00  0.00     0.309 C 
HETATM   23  N   UNL     1      27.759  42.390  52.606  1.00  0.00    -0.353 N 
HETATM   24  H   UNL     1      27.196  43.174  52.289  1.00  0.00     0.162 HD
HETATM   25  O   UNL     1      28.719  40.422  51.842  1.00  0.00    -0.262 OA
BRANCH  23  26
HETATM   26  C   UNL     1      28.390  42.421  53.910  1.00  0.00     0.128 C 
BRANCH  26  27
HETATM   27  C   UNL     1      29.760  43.096  53.847  1.00  0.00     0.058 C 
BRANCH  27  28
HETATM   28  C   UNL     1      30.156  43.714  55.164  1.00  0.00    -0.057 A 
HETATM   29  C   UNL     1      29.614  44.945  55.562  1.00  0.00     0.010 A 
HETATM   30  C   UNL     1      29.974  45.518  56.783  1.00  0.00     0.037 A 
HETATM   31  C   UNL     1      30.885  44.862  57.604  1.00  0.00     0.065 A 
HETATM   32  C   UNL     1      31.443  43.649  57.221  1.00  0.00     0.037 A 
HETATM   33  C   UNL     1      31.081  43.074  56.002  1.00  0.00     0.010 A 
BRANCH  31  34
HETATM   34  O   UNL     1      31.260  45.382  58.807  1.00  0.00    -0.361 OA
HETATM   35  H   UNL     1      31.771  46.193  58.645  1.00  0.00     0.217 HD
ENDBRANCH  31  34
ENDBRANCH  27  28
ENDBRANCH  26  27
ENDBRANCH  23  26
ENDBRANCH   2  22
TORSDOF 9
ENDMDL
