MODEL 1
REMARK VINA RESULT:      -9.4      0.000      0.000
REMARK  3 active torsions:
REMARK  status: ('A' for Active; 'I' for Inactive)
REMARK    1  A    between atoms: C_4  and  N_5 
REMARK       I    between atoms: N_5  and  C_6 
REMARK    2  A    between atoms: C_6  and  C_8 
REMARK    3  A    between atoms: C_21  and  C_22 
ROOT
HETATM    1  F   UNL     1      24.716  48.316  49.260  1.00  0.00    -0.205 F 
HETATM    2  C   UNL     1      24.625  47.164  49.945  1.00  0.00     0.132 A 
HETATM    3  C   UNL     1      25.472  47.006  51.048  1.00  0.00     0.072 A 
HETATM    4  C   UNL     1      25.425  45.840  51.812  1.00  0.00     0.040 A 
HETATM    5  C   UNL     1      24.517  44.844  51.450  1.00  0.00     0.072 A 
HETATM    6  C   UNL     1      23.671  45.020  50.351  1.00  0.00     0.132 A 
HETATM    7  F   UNL     1      22.819  44.024  50.061  1.00  0.00    -0.205 F 
HETATM    8  C   UNL     1      23.707  46.179  49.570  1.00  0.00     0.054 A 
ENDROOT
BRANCH   4   9
HETATM    9  N   UNL     1      26.239  45.595  52.940  1.00  0.00    -0.327 N 
HETATM   10  C   UNL     1      27.353  44.771  53.009  1.00  0.00     0.228 C 
HETATM   11  O   UNL     1      27.802  44.101  52.085  1.00  0.00    -0.273 OA
HETATM   12  H   UNL     1      25.968  46.073  53.792  1.00  0.00     0.169 HD
BRANCH  10  13
HETATM   13  C   UNL     1      27.998  44.762  54.387  1.00  0.00     0.107 C 
HETATM   14  C   UNL     1      28.320  46.175  54.857  1.00  0.00     0.190 C 
HETATM   15  O   UNL     1      28.746  46.185  56.223  1.00  0.00    -0.350 OA
HETATM   16  C   UNL     1      29.739  45.283  56.507  1.00  0.00     0.075 A 
HETATM   17  C   UNL     1      30.426  45.478  57.704  1.00  0.00     0.037 A 
HETATM   18  C   UNL     1      30.049  44.195  55.681  1.00  0.00    -0.024 A 
HETATM   19  C   UNL     1      31.454  44.610  58.069  1.00  0.00     0.003 A 
HETATM   20  C   UNL     1      31.792  43.543  57.239  1.00  0.00     0.001 A 
HETATM   21  C   UNL     1      31.093  43.336  56.048  1.00  0.00     0.010 A 
HETATM   22  C   UNL     1      29.303  43.965  54.397  1.00  0.00     0.057 C 
ENDBRANCH  10  13
ENDBRANCH   4   9
BRANCH   8  23
HETATM   23  C   UNL     1      22.816  46.339  48.433  1.00  0.00     0.016 A 
HETATM   24  C   UNL     1      22.695  45.588  47.238  1.00  0.00     0.152 A 
HETATM   25  N   UNL     1      21.749  46.060  46.421  1.00  0.00    -0.187 NA
HETATM   26  N   UNL     1      21.262  47.119  47.085  1.00  0.00    -0.289 N 
HETATM   27  H   UNL     1      20.514  47.654  46.656  1.00  0.00     0.188 HD
HETATM   28  C   UNL     1      21.871  47.334  48.287  1.00  0.00     0.123 A 
ENDBRANCH   8  23
TORSDOF 3
ENDMDL
MODEL 2
REMARK VINA RESULT:      -9.3      0.321      1.787
REMARK  3 active torsions:
REMARK  status: ('A' for Active; 'I' for Inactive)
REMARK    1  A    between atoms: C_4  and  N_5 
REMARK       I    between atoms: N_5  and  C_6 
REMARK    2  A    between atoms: C_6  and  C_8 
REMARK    3  A    between atoms: C_21  and  C_22 
ROOT
HETATM    1  F   UNL     1      22.595  43.803  50.148  1.00  0.00    -0.205 F 
HETATM    2  C   UNL     1      23.540  44.716  50.428  1.00  0.00     0.132 A 
HETATM    3  C   UNL     1      24.329  44.495  51.563  1.00  0.00     0.072 A 
HETATM    4  C   UNL     1      25.336  45.395  51.909  1.00  0.00     0.040 A 
HETATM    5  C   UNL     1      25.537  46.512  51.096  1.00  0.00     0.072 A 
HETATM    6  C   UNL     1      24.748  46.714  49.960  1.00  0.00     0.132 A 
HETATM    7  F   UNL     1      24.997  47.807  49.222  1.00  0.00    -0.205 F 
HETATM    8  C   UNL     1      23.730  45.827  49.602  1.00  0.00     0.054 A 
ENDROOT
BRANCH   4   9
HETATM    9  N   UNL     1      26.179  45.253  53.033  1.00  0.00    -0.327 N 
HETATM   10  C   UNL     1      27.391  44.580  53.094  1.00  0.00     0.228 C 
HETATM   11  O   UNL     1      27.919  43.979  52.166  1.00  0.00    -0.273 OA
HETATM   12  H   UNL     1      25.852  45.688  53.888  1.00  0.00     0.169 HD
BRANCH  10  13
HETATM   13  C   UNL     1      28.037  44.650  54.470  1.00  0.00     0.107 C 
HETATM   14  C   UNL     1      28.330  46.090  54.873  1.00  0.00     0.190 C 
HETATM   15  O   UNL     1      28.758  46.173  56.236  1.00  0.00    -0.350 OA
HETATM   16  C   UNL     1      29.770  45.306  56.559  1.00  0.00     0.075 A 
HETATM   17  C   UNL     1      30.454  45.571  57.745  1.00  0.00     0.037 A 
HETATM   18  C   UNL     1      30.102  44.187  55.785  1.00  0.00    -0.024 A 
HETATM   19  C   UNL     1      31.500  44.743  58.149  1.00  0.00     0.003 A 
HETATM   20  C   UNL     1      31.859  43.645  57.369  1.00  0.00     0.001 A 
HETATM   21  C   UNL     1      31.163  43.368  56.190  1.00  0.00     0.010 A 
HETATM   22  C   UNL     1      29.358  43.881  54.515  1.00  0.00     0.057 C 
ENDBRANCH  10  13
ENDBRANCH   4   9
BRANCH   8  23
HETATM   23  C   UNL     1      22.924  46.058  48.414  1.00  0.00     0.016 A 
HETATM   24  C   UNL     1      22.171  47.189  48.011  1.00  0.00     0.152 A 
HETATM   25  N   UNL     1      21.553  47.011  46.841  1.00  0.00    -0.187 NA
HETATM   26  N   UNL     1      21.902  45.764  46.488  1.00  0.00    -0.289 N 
HETATM   27  H   UNL     1      21.546  45.394  45.613  1.00  0.00     0.188 HD
HETATM   28  C   UNL     1      22.712  45.149  47.398  1.00  0.00     0.123 A 
ENDBRANCH   8  23
TORSDOF 3
ENDMDL
MODEL 3
REMARK VINA RESULT:      -8.8      3.887      9.856
REMARK  3 active torsions:
REMARK  status: ('A' for Active; 'I' for Inactive)
REMARK    1  A    between atoms: C_4  and  N_5 
REMARK       I    between atoms: N_5  and  C_6 
REMARK    2  A    between atoms: C_6  and  C_8 
REMARK    3  A    between atoms: C_21  and  C_22 
ROOT
HETATM    1  F   UNL     1      27.241  43.246  49.148  1.00  0.00    -0.205 F 
HETATM    2  C   UNL     1      26.560  44.007  50.021  1.00  0.00     0.132 A 
HETATM    3  C   UNL     1      25.510  44.781  49.514  1.00  0.00     0.072 A 
HETATM    4  C   UNL     1      24.753  45.587  50.362  1.00  0.00     0.040 A 
HETATM    5  C   UNL     1      25.067  45.599  51.722  1.00  0.00     0.072 A 
HETATM    6  C   UNL     1      26.112  44.814  52.216  1.00  0.00     0.132 A 
HETATM    7  F   UNL     1      26.358  44.871  53.535  1.00  0.00    -0.205 F 
HETATM    8  C   UNL     1      26.886  44.005  51.380  1.00  0.00     0.054 A 
ENDROOT
BRANCH   4   9
HETATM    9  N   UNL     1      23.676  46.398  49.939  1.00  0.00    -0.327 N 
HETATM   10  C   UNL     1      23.718  47.745  49.609  1.00  0.00     0.228 C 
HETATM   11  O   UNL     1      24.716  48.457  49.651  1.00  0.00    -0.273 OA
HETATM   12  H   UNL     1      22.775  45.939  49.879  1.00  0.00     0.169 HD
BRANCH  10  13
HETATM   13  C   UNL     1      22.366  48.290  49.176  1.00  0.00     0.107 C 
HETATM   14  C   UNL     1      22.113  48.034  47.695  1.00  0.00     0.190 C 
HETATM   15  O   UNL     1      20.771  48.372  47.330  1.00  0.00    -0.350 OA
HETATM   16  C   UNL     1      20.377  49.620  47.737  1.00  0.00     0.075 A 
HETATM   17  C   UNL     1      19.234  50.135  47.127  1.00  0.00     0.037 A 
HETATM   18  C   UNL     1      21.040  50.351  48.730  1.00  0.00    -0.024 A 
HETATM   19  C   UNL     1      18.763  51.399  47.478  1.00  0.00     0.003 A 
HETATM   20  C   UNL     1      19.435  52.149  48.443  1.00  0.00     0.001 A 
HETATM   21  C   UNL     1      20.570  51.627  49.067  1.00  0.00     0.010 A 
HETATM   22  C   UNL     1      22.263  49.798  49.407  1.00  0.00     0.057 C 
ENDBRANCH  10  13
ENDBRANCH   4   9
BRANCH   8  23
HETATM   23  C   UNL     1      27.967  43.196  51.918  1.00  0.00     0.016 A 
HETATM   24  C   UNL     1      29.183  43.571  52.542  1.00  0.00     0.152 A 
HETATM   25  N   UNL     1      29.930  42.522  52.898  1.00  0.00    -0.187 NA
HETATM   26  N   UNL     1      29.200  41.469  52.500  1.00  0.00    -0.289 N 
HETATM   27  H   UNL     1      29.568  40.538  52.666  1.00  0.00     0.188 HD
HETATM   28  C   UNL     1      28.025  41.818  51.901  1.00  0.00     0.123 A 
ENDBRANCH   8  23
TORSDOF 3
ENDMDL
MODEL 4
REMARK VINA RESULT:      -8.8      1.501      2.658
REMARK  3 active torsions:
REMARK  status: ('A' for Active; 'I' for Inactive)
REMARK    1  A    between atoms: C_4  and  N_5 
REMARK       I    between atoms: N_5  and  C_6 
REMARK    2  A    between atoms: C_6  and  C_8 
REMARK    3  A    between atoms: C_21  and  C_22 
ROOT
HETATM    1  F   UNL     1      22.045  44.041  48.674  1.00  0.00    -0.205 F 
HETATM    2  C   UNL     1      22.858  45.002  49.142  1.00  0.00     0.132 A 
HETATM    3  C   UNL     1      23.937  44.599  49.937  1.00  0.00     0.072 A 
HETATM    4  C   UNL     1      24.828  45.541  50.448  1.00  0.00     0.040 A 
HETATM    5  C   UNL     1      24.618  46.888  50.146  1.00  0.00     0.072 A 
HETATM    6  C   UNL     1      23.540  47.275  49.343  1.00  0.00     0.132 A 
HETATM    7  F   UNL     1      23.399  48.585  49.089  1.00  0.00    -0.205 F 
HETATM    8  C   UNL     1      22.634  46.345  48.827  1.00  0.00     0.054 A 
ENDROOT
BRANCH   4   9
HETATM    9  N   UNL     1      25.944  45.227  51.255  1.00  0.00    -0.327 N 
HETATM   10  C   UNL     1      25.930  44.687  52.533  1.00  0.00     0.228 C 
HETATM   11  O   UNL     1      24.924  44.409  53.178  1.00  0.00    -0.273 OA
HETATM   12  H   UNL     1      26.851  45.427  50.852  1.00  0.00     0.169 HD
BRANCH  10  13
HETATM   13  C   UNL     1      27.325  44.461  53.095  1.00  0.00     0.107 C 
HETATM   14  C   UNL     1      27.546  42.998  53.459  1.00  0.00     0.190 C 
HETATM   15  O   UNL     1      28.912  42.747  53.805  1.00  0.00    -0.350 OA
HETATM   16  C   UNL     1      29.423  43.617  54.733  1.00  0.00     0.075 A 
HETATM   17  C   UNL     1      30.606  43.227  55.358  1.00  0.00     0.037 A 
HETATM   18  C   UNL     1      28.836  44.851  55.037  1.00  0.00    -0.024 A 
HETATM   19  C   UNL     1      31.194  44.049  56.318  1.00  0.00     0.003 A 
HETATM   20  C   UNL     1      30.600  45.265  56.651  1.00  0.00     0.001 A 
HETATM   21  C   UNL     1      29.424  45.665  56.014  1.00  0.00     0.010 A 
HETATM   22  C   UNL     1      27.570  45.291  54.356  1.00  0.00     0.057 C 
ENDBRANCH  10  13
ENDBRANCH   4   9
BRANCH   8  23
HETATM   23  C   UNL     1      21.522  46.772  47.993  1.00  0.00     0.016 A 
HETATM   24  C   UNL     1      21.276  46.585  46.610  1.00  0.00     0.152 A 
HETATM   25  N   UNL     1      20.131  47.141  46.206  1.00  0.00    -0.187 NA
HETATM   26  N   UNL     1      19.638  47.693  47.326  1.00  0.00    -0.289 N 
HETATM   27  H   UNL     1      18.753  48.185  47.271  1.00  0.00     0.188 HD
HETATM   28  C   UNL     1      20.436  47.509  48.418  1.00  0.00     0.123 A 
ENDBRANCH   8  23
TORSDOF 3
ENDMDL
MODEL 5
REMARK VINA RESULT:      -8.7      3.425      9.736
REMARK  3 active torsions:
REMARK  status: ('A' for Active; 'I' for Inactive)
REMARK    1  A    between atoms: C_4  and  N_5 
REMARK       I    between atoms: N_5  and  C_6 
REMARK    2  A    between atoms: C_6  and  C_8 
REMARK    3  A    between atoms: C_21  and  C_22 
ROOT
HETATM    1  F   UNL     1      29.139  42.276  54.496  1.00  0.00    -0.205 F 
HETATM    2  C   UNL     1      28.682  43.538  54.443  1.00  0.00     0.132 A 
HETATM    3  C   UNL     1      27.644  43.807  53.543  1.00  0.00     0.072 A 
HETATM    4  C   UNL     1      27.113  45.091  53.442  1.00  0.00     0.040 A 
HETATM    5  C   UNL     1      27.637  46.094  54.258  1.00  0.00     0.072 A 
HETATM    6  C   UNL     1      28.667  45.809  55.160  1.00  0.00     0.132 A 
HETATM    7  F   UNL     1      29.122  46.819  55.917  1.00  0.00    -0.205 F 
HETATM    8  C   UNL     1      29.217  44.529  55.271  1.00  0.00     0.054 A 
ENDROOT
BRANCH   4   9
HETATM    9  N   UNL     1      26.066  45.453  52.564  1.00  0.00    -0.327 N 
HETATM   10  C   UNL     1      26.099  45.464  51.177  1.00  0.00     0.228 C 
HETATM   11  O   UNL     1      27.069  45.171  50.485  1.00  0.00    -0.273 OA
HETATM   12  H   UNL     1      25.200  45.741  53.005  1.00  0.00     0.169 HD
BRANCH  10  13
HETATM   13  C   UNL     1      24.777  45.892  50.558  1.00  0.00     0.107 C 
HETATM   14  C   UNL     1      24.507  45.146  49.257  1.00  0.00     0.190 C 
HETATM   15  O   UNL     1      23.185  45.403  48.773  1.00  0.00    -0.350 OA
HETATM   16  C   UNL     1      22.860  46.733  48.710  1.00  0.00     0.075 A 
HETATM   17  C   UNL     1      21.746  47.060  47.939  1.00  0.00     0.037 A 
HETATM   18  C   UNL     1      23.565  47.731  49.394  1.00  0.00    -0.024 A 
HETATM   19  C   UNL     1      21.346  48.390  47.816  1.00  0.00     0.003 A 
HETATM   20  C   UNL     1      22.060  49.394  48.467  1.00  0.00     0.001 A 
HETATM   21  C   UNL     1      23.166  49.067  49.254  1.00  0.00     0.010 A 
HETATM   22  C   UNL     1      24.757  47.389  50.243  1.00  0.00     0.057 C 
ENDBRANCH  10  13
ENDBRANCH   4   9
BRANCH   8  23
HETATM   23  C   UNL     1      30.286  44.257  56.217  1.00  0.00     0.016 A 
HETATM   24  C   UNL     1      30.554  44.807  57.495  1.00  0.00     0.152 A 
HETATM   25  N   UNL     1      31.652  44.297  58.060  1.00  0.00    -0.187 NA
HETATM   26  N   UNL     1      32.096  43.420  57.147  1.00  0.00    -0.289 N 
HETATM   27  H   UNL     1      32.939  42.895  57.354  1.00  0.00     0.188 HD
HETATM   28  C   UNL     1      31.322  43.366  56.025  1.00  0.00     0.123 A 
ENDBRANCH   8  23
TORSDOF 3
ENDMDL
MODEL 6
REMARK VINA RESULT:      -8.7      3.867      9.861
REMARK  3 active torsions:
REMARK  status: ('A' for Active; 'I' for Inactive)
REMARK    1  A    between atoms: C_4  and  N_5 
REMARK       I    between atoms: N_5  and  C_6 
REMARK    2  A    between atoms: C_6  and  C_8 
REMARK    3  A    between atoms: C_21  and  C_22 
ROOT
HETATM    1  F   UNL     1      26.386  44.773  53.732  1.00  0.00    -0.205 F 
HETATM    2  C   UNL     1      26.110  44.786  52.417  1.00  0.00     0.132 A 
HETATM    3  C   UNL     1      25.042  45.586  51.994  1.00  0.00     0.072 A 
HETATM    4  C   UNL     1      24.705  45.656  50.643  1.00  0.00     0.040 A 
HETATM    5  C   UNL     1      25.459  44.916  49.730  1.00  0.00     0.072 A 
HETATM    6  C   UNL     1      26.529  44.129  50.167  1.00  0.00     0.132 A 
HETATM    7  F   UNL     1      27.213  43.446  49.236  1.00  0.00    -0.205 F 
HETATM    8  C   UNL     1      26.877  44.041  51.517  1.00  0.00     0.054 A 
ENDROOT
BRANCH   4   9
HETATM    9  N   UNL     1      23.647  46.436  50.126  1.00  0.00    -0.327 N 
HETATM   10  C   UNL     1      23.713  47.744  49.670  1.00  0.00     0.228 C 
HETATM   11  O   UNL     1      24.719  48.446  49.661  1.00  0.00    -0.273 OA
HETATM   12  H   UNL     1      22.740  45.984  50.095  1.00  0.00     0.169 HD
BRANCH  10  13
HETATM   13  C   UNL     1      22.375  48.262  49.163  1.00  0.00     0.107 C 
HETATM   14  C   UNL     1      22.205  47.994  47.673  1.00  0.00     0.190 C 
HETATM   15  O   UNL     1      20.878  48.304  47.235  1.00  0.00    -0.350 OA
HETATM   16  C   UNL     1      20.440  49.547  47.613  1.00  0.00     0.075 A 
HETATM   17  C   UNL     1      19.321  50.037  46.941  1.00  0.00     0.037 A 
HETATM   18  C   UNL     1      21.037  50.296  48.635  1.00  0.00    -0.024 A 
HETATM   19  C   UNL     1      18.810  51.295  47.258  1.00  0.00     0.003 A 
HETATM   20  C   UNL     1      19.417  52.062  48.252  1.00  0.00     0.001 A 
HETATM   21  C   UNL     1      20.527  51.565  48.938  1.00  0.00     0.010 A 
HETATM   22  C   UNL     1      22.232  49.770  49.378  1.00  0.00     0.057 C 
ENDBRANCH  10  13
ENDBRANCH   4   9
BRANCH   8  23
HETATM   23  C   UNL     1      27.995  43.217  51.946  1.00  0.00     0.016 A 
HETATM   24  C   UNL     1      29.195  43.561  52.617  1.00  0.00     0.152 A 
HETATM   25  N   UNL     1      29.989  42.508  52.832  1.00  0.00    -0.187 NA
HETATM   26  N   UNL     1      29.306  41.485  52.296  1.00  0.00    -0.289 N 
HETATM   27  H   UNL     1      29.716  40.558  52.338  1.00  0.00     0.188 HD
HETATM   28  C   UNL     1      28.114  41.857  51.746  1.00  0.00     0.123 A 
ENDBRANCH   8  23
TORSDOF 3
ENDMDL
MODEL 7
REMARK VINA RESULT:      -8.5      3.076      3.633
REMARK  3 active torsions:
REMARK  status: ('A' for Active; 'I' for Inactive)
REMARK    1  A    between atoms: C_4  and  N_5 
REMARK       I    between atoms: N_5  and  C_6 
REMARK    2  A    between atoms: C_6  and  C_8 
REMARK    3  A    between atoms: C_21  and  C_22 
ROOT
HETATM    1  F   UNL     1      27.184  41.516  47.887  1.00  0.00    -0.205 F 
HETATM    2  C   UNL     1      26.431  41.893  48.933  1.00  0.00     0.132 A 
HETATM    3  C   UNL     1      27.101  42.302  50.092  1.00  0.00     0.072 A 
HETATM    4  C   UNL     1      26.384  42.717  51.213  1.00  0.00     0.040 A 
HETATM    5  C   UNL     1      24.989  42.715  51.148  1.00  0.00     0.072 A 
HETATM    6  C   UNL     1      24.334  42.313  49.981  1.00  0.00     0.132 A 
HETATM    7  F   UNL     1      22.992  42.340  49.986  1.00  0.00    -0.205 F 
HETATM    8  C   UNL     1      25.036  41.889  48.850  1.00  0.00     0.054 A 
ENDROOT
BRANCH   4   9
HETATM    9  N   UNL     1      26.975  43.146  52.422  1.00  0.00    -0.327 N 
HETATM   10  C   UNL     1      27.149  44.453  52.854  1.00  0.00     0.228 C 
HETATM   11  O   UNL     1      26.825  45.459  52.230  1.00  0.00    -0.273 OA
HETATM   12  H   UNL     1      27.312  42.413  53.034  1.00  0.00     0.169 HD
BRANCH  10  13
HETATM   13  C   UNL     1      27.808  44.542  54.222  1.00  0.00     0.107 C 
HETATM   14  C   UNL     1      28.083  45.988  54.612  1.00  0.00     0.190 C 
HETATM   15  O   UNL     1      28.524  46.088  55.971  1.00  0.00    -0.350 OA
HETATM   16  C   UNL     1      29.551  45.238  56.289  1.00  0.00     0.075 A 
HETATM   17  C   UNL     1      30.243  45.521  57.466  1.00  0.00     0.037 A 
HETATM   18  C   UNL     1      29.892  44.119  55.519  1.00  0.00    -0.024 A 
HETATM   19  C   UNL     1      31.305  44.711  57.865  1.00  0.00     0.003 A 
HETATM   20  C   UNL     1      31.673  43.613  57.088  1.00  0.00     0.001 A 
HETATM   21  C   UNL     1      30.970  43.318  55.919  1.00  0.00     0.010 A 
HETATM   22  C   UNL     1      29.141  43.793  54.259  1.00  0.00     0.057 C 
ENDBRANCH  10  13
ENDBRANCH   4   9
BRANCH   8  23
HETATM   23  C   UNL     1      24.331  41.477  47.647  1.00  0.00     0.016 A 
HETATM   24  C   UNL     1      23.648  42.239  46.666  1.00  0.00     0.152 A 
HETATM   25  N   UNL     1      23.116  41.485  45.701  1.00  0.00    -0.187 NA
HETATM   26  N   UNL     1      23.449  40.236  46.058  1.00  0.00    -0.289 N 
HETATM   27  H   UNL     1      23.149  39.469  45.465  1.00  0.00     0.188 HD
HETATM   28  C   UNL     1      24.166  40.176  47.217  1.00  0.00     0.123 A 
ENDBRANCH   8  23
TORSDOF 3
ENDMDL
MODEL 8
REMARK VINA RESULT:      -8.4      4.682      7.324
REMARK  3 active torsions:
REMARK  status: ('A' for Active; 'I' for Inactive)
REMARK    1  A    between atoms: C_4  and  N_5 
REMARK       I    between atoms: N_5  and  C_6 
REMARK    2  A    between atoms: C_6  and  C_8 
REMARK    3  A    between atoms: C_21  and  C_22 
ROOT
HETATM    1  F   UNL     1      20.008  52.765  48.462  1.00  0.00    -0.205 F 
HETATM    2  C   UNL     1      19.852  51.478  48.814  1.00  0.00     0.132 A 
HETATM    3  C   UNL     1      21.013  50.717  48.993  1.00  0.00     0.072 A 
HETATM    4  C   UNL     1      20.929  49.378  49.369  1.00  0.00     0.040 A 
HETATM    5  C   UNL     1      19.663  48.821  49.565  1.00  0.00     0.072 A 
HETATM    6  C   UNL     1      18.513  49.595  49.392  1.00  0.00     0.132 A 
HETATM    7  F   UNL     1      17.329  48.998  49.599  1.00  0.00    -0.205 F 
HETATM    8  C   UNL     1      18.578  50.938  49.008  1.00  0.00     0.054 A 
ENDROOT
BRANCH   4   9
HETATM    9  N   UNL     1      22.044  48.536  49.573  1.00  0.00    -0.327 N 
HETATM   10  C   UNL     1      22.752  47.831  48.611  1.00  0.00     0.228 C 
HETATM   11  O   UNL     1      22.502  47.818  47.410  1.00  0.00    -0.273 OA
HETATM   12  H   UNL     1      22.352  48.435  50.534  1.00  0.00     0.169 HD
BRANCH  10  13
HETATM   13  C   UNL     1      23.913  47.038  49.192  1.00  0.00     0.107 C 
HETATM   14  C   UNL     1      23.594  45.550  49.250  1.00  0.00     0.190 C 
HETATM   15  O   UNL     1      24.746  44.783  49.614  1.00  0.00    -0.350 OA
HETATM   16  C   UNL     1      25.392  45.240  50.733  1.00  0.00     0.075 A 
HETATM   17  C   UNL     1      26.292  44.358  51.329  1.00  0.00     0.037 A 
HETATM   18  C   UNL     1      25.209  46.526  51.257  1.00  0.00    -0.024 A 
HETATM   19  C   UNL     1      26.991  44.739  52.474  1.00  0.00     0.003 A 
HETATM   20  C   UNL     1      26.791  46.005  53.022  1.00  0.00     0.001 A 
HETATM   21  C   UNL     1      25.903  46.896  52.416  1.00  0.00     0.010 A 
HETATM   22  C   UNL     1      24.255  47.492  50.612  1.00  0.00     0.057 C 
ENDBRANCH  10  13
ENDBRANCH   4   9
BRANCH   8  23
HETATM   23  C   UNL     1      17.367  51.723  48.837  1.00  0.00     0.016 A 
HETATM   24  C   UNL     1      16.536  52.365  49.789  1.00  0.00     0.152 A 
HETATM   25  N   UNL     1      15.496  52.991  49.232  1.00  0.00    -0.187 NA
HETATM   26  N   UNL     1      15.651  52.751  47.921  1.00  0.00    -0.289 N 
HETATM   27  H   UNL     1      14.966  53.134  47.278  1.00  0.00     0.188 HD
HETATM   28  C   UNL     1      16.747  51.991  47.634  1.00  0.00     0.123 A 
ENDBRANCH   8  23
TORSDOF 3
ENDMDL
MODEL 9
REMARK VINA RESULT:      -8.1      3.548      5.620
REMARK  3 active torsions:
REMARK  status: ('A' for Active; 'I' for Inactive)
REMARK    1  A    between atoms: C_4  and  N_5 
REMARK       I    between atoms: N_5  and  C_6 
REMARK    2  A    between atoms: C_6  and  C_8 
REMARK    3  A    between atoms: C_21  and  C_22 
ROOT
HETATM    1  F   UNL     1      20.690  51.645  49.249  1.00  0.00    -0.205 F 
HETATM    2  C   UNL     1      21.004  50.392  48.879  1.00  0.00     0.132 A 
HETATM    3  C   UNL     1      22.104  49.795  49.506  1.00  0.00     0.072 A 
HETATM    4  C   UNL     1      22.481  48.493  49.180  1.00  0.00     0.040 A 
HETATM    5  C   UNL     1      21.736  47.805  48.220  1.00  0.00     0.072 A 
HETATM    6  C   UNL     1      20.634  48.411  47.610  1.00  0.00     0.132 A 
HETATM    7  F   UNL     1      19.960  47.692  46.698  1.00  0.00    -0.205 F 
HETATM    8  C   UNL     1      20.245  49.718  47.919  1.00  0.00     0.054 A 
ENDROOT
BRANCH   4   9
HETATM    9  N   UNL     1      23.573  47.812  49.761  1.00  0.00    -0.327 N 
HETATM   10  C   UNL     1      24.922  48.093  49.598  1.00  0.00     0.228 C 
HETATM   11  O   UNL     1      25.383  48.986  48.895  1.00  0.00    -0.273 OA
HETATM   12  H   UNL     1      23.337  47.027  50.358  1.00  0.00     0.169 HD
BRANCH  10  13
HETATM   13  C   UNL     1      25.822  47.159  50.394  1.00  0.00     0.107 C 
HETATM   14  C   UNL     1      25.855  45.765  49.780  1.00  0.00     0.190 C 
HETATM   15  O   UNL     1      26.843  44.942  50.409  1.00  0.00    -0.350 OA
HETATM   16  C   UNL     1      26.771  44.928  51.778  1.00  0.00     0.075 A 
HETATM   17  C   UNL     1      27.461  43.902  52.421  1.00  0.00     0.037 A 
HETATM   18  C   UNL     1      26.081  45.893  52.523  1.00  0.00    -0.024 A 
HETATM   19  C   UNL     1      27.439  43.808  53.812  1.00  0.00     0.003 A 
HETATM   20  C   UNL     1      26.729  44.745  54.561  1.00  0.00     0.001 A 
HETATM   21  C   UNL     1      26.052  45.784  53.919  1.00  0.00     0.010 A 
HETATM   22  C   UNL     1      25.349  47.015  51.841  1.00  0.00     0.057 C 
ENDBRANCH  10  13
ENDBRANCH   4   9
BRANCH   8  23
HETATM   23  C   UNL     1      19.094  50.325  47.271  1.00  0.00     0.016 A 
HETATM   24  C   UNL     1      17.849  50.747  47.800  1.00  0.00     0.152 A 
HETATM   25  N   UNL     1      17.037  51.258  46.871  1.00  0.00    -0.187 NA
HETATM   26  N   UNL     1      17.753  51.162  45.741  1.00  0.00    -0.289 N 
HETATM   27  H   UNL     1      17.337  51.495  44.877  1.00  0.00     0.188 HD
HETATM   28  C   UNL     1      18.984  50.603  45.924  1.00  0.00     0.123 A 
ENDBRANCH   8  23
TORSDOF 3
ENDMDL
MODEL 10
REMARK VINA RESULT:      -8.1      9.150     13.983
REMARK  3 active torsions:
REMARK  status: ('A' for Active; 'I' for Inactive)
REMARK    1  A    between atoms: C_4  and  N_5 
REMARK       I    between atoms: N_5  and  C_6 
REMARK    2  A    between atoms: C_6  and  C_8 
REMARK    3  A    between atoms: C_21  and  C_22 
ROOT
HETATM    1  F   UNL     1      21.283  51.834  48.272  1.00  0.00    -0.205 F 
HETATM    2  C   UNL     1      20.250  51.245  48.898  1.00  0.00     0.132 A 
HETATM    3  C   UNL     1      19.107  52.022  49.118  1.00  0.00     0.072 A 
HETATM    4  C   UNL     1      17.993  51.474  49.752  1.00  0.00     0.040 A 
HETATM    5  C   UNL     1      18.047  50.138  50.154  1.00  0.00     0.072 A 
HETATM    6  C   UNL     1      19.192  49.372  49.918  1.00  0.00     0.132 A 
HETATM    7  F   UNL     1      19.175  48.094  50.328  1.00  0.00    -0.205 F 
HETATM    8  C   UNL     1      20.320  49.906  49.291  1.00  0.00     0.054 A 
ENDROOT
BRANCH   4   9
HETATM    9  N   UNL     1      16.799  52.181  50.015  1.00  0.00    -0.327 N 
HETATM   10  C   UNL     1      15.657  52.224  49.227  1.00  0.00     0.228 C 
HETATM   11  O   UNL     1      15.513  51.655  48.150  1.00  0.00    -0.273 OA
HETATM   12  H   UNL     1      16.784  52.720  50.873  1.00  0.00     0.169 HD
BRANCH  10  13
HETATM   13  C   UNL     1      14.551  53.075  49.834  1.00  0.00     0.107 C 
HETATM   14  C   UNL     1      14.064  54.132  48.852  1.00  0.00     0.190 C 
HETATM   15  O   UNL     1      12.901  54.805  49.344  1.00  0.00    -0.350 OA
HETATM   16  C   UNL     1      13.027  55.276  50.626  1.00  0.00     0.075 A 
HETATM   17  C   UNL     1      12.085  56.220  51.031  1.00  0.00     0.037 A 
HETATM   18  C   UNL     1      14.012  54.831  51.516  1.00  0.00    -0.024 A 
HETATM   19  C   UNL     1      12.141  56.756  52.317  1.00  0.00     0.003 A 
HETATM   20  C   UNL     1      13.137  56.343  53.200  1.00  0.00     0.001 A 
HETATM   21  C   UNL     1      14.071  55.385  52.802  1.00  0.00     0.010 A 
HETATM   22  C   UNL     1      15.022  53.800  51.096  1.00  0.00     0.057 C 
ENDBRANCH  10  13
ENDBRANCH   4   9
BRANCH   8  23
HETATM   23  C   UNL     1      21.498  49.088  49.055  1.00  0.00     0.016 A 
HETATM   24  C   UNL     1      21.640  47.830  48.417  1.00  0.00     0.152 A 
HETATM   25  N   UNL     1      22.903  47.394  48.404  1.00  0.00    -0.187 NA
HETATM   26  N   UNL     1      23.577  48.366  49.038  1.00  0.00    -0.289 N 
HETATM   27  H   UNL     1      24.579  48.259  49.155  1.00  0.00     0.188 HD
HETATM   28  C   UNL     1      22.782  49.394  49.455  1.00  0.00     0.123 A 
ENDBRANCH   8  23
TORSDOF 3
ENDMDL
