MODEL 1
REMARK VINA RESULT:     -10.0      0.000      0.000
REMARK  5 active torsions:
REMARK  status: ('A' for Active; 'I' for Inactive)
REMARK    1  A    between atoms: C_7  and  C_8 
REMARK    2  A    between atoms: N_9  and  N_10 
REMARK       I    between atoms: N_10  and  C_11 
REMARK    3  A    between atoms: C_11  and  C_12 
REMARK    4  A    between atoms: C_12  and  N_13 
REMARK       I    between atoms: N_13  and  C_14 
REMARK    5  A    between atoms: C_14  and  C_15 
ROOT
HETATM    1  N   UNL     1      25.016  46.689  51.413  1.00  0.00    -0.246 N 
HETATM    2  C   UNL     1      24.939  47.490  50.283  1.00  0.00     0.255 C 
HETATM    3  O   UNL     1      25.769  48.332  49.943  1.00  0.00    -0.270 OA
HETATM    4  H   UNL     1      24.271  46.008  51.591  1.00  0.00     0.192 HD
ENDROOT
BRANCH   1   5
HETATM    5  N   UNL     1      26.062  46.817  52.277  1.00  0.00    -0.184 NA
HETATM    6  C   UNL     1      26.116  45.938  53.224  1.00  0.00     0.153 C 
BRANCH   6   7
HETATM    7  C   UNL     1      27.180  45.995  54.211  1.00  0.00     0.018 A 
HETATM    8  C   UNL     1      27.367  46.972  55.182  1.00  0.00     0.018 A 
HETATM    9  C   UNL     1      26.587  48.199  55.501  1.00  0.00     0.069 C 
HETATM   10  N   UNL     1      28.483  46.636  55.907  1.00  0.00    -0.358 N 
HETATM   11  H   UNL     1      28.852  47.168  56.681  1.00  0.00     0.166 HD
HETATM   12  C   UNL     1      29.032  45.467  55.438  1.00  0.00     0.043 A 
HETATM   13  C   UNL     1      28.239  45.040  54.373  1.00  0.00     0.004 A 
HETATM   14  C   UNL     1      30.159  44.763  55.881  1.00  0.00     0.030 A 
HETATM   15  C   UNL     1      28.597  43.842  53.717  1.00  0.00     0.014 A 
HETATM   16  C   UNL     1      29.720  43.125  54.146  1.00  0.00     0.001 A 
HETATM   17  C   UNL     1      30.488  43.581  55.214  1.00  0.00     0.002 A 
ENDBRANCH   6   7
ENDBRANCH   1   5
BRANCH   2  18
HETATM   18  C   UNL     1      23.631  47.303  49.511  1.00  0.00     0.227 C 
BRANCH  18  19
HETATM   19  N   UNL     1      22.714  48.427  49.620  1.00  0.00    -0.348 N 
HETATM   20  C   UNL     1      21.711  48.655  48.709  1.00  0.00     0.255 C 
HETATM   21  O   UNL     1      21.633  48.011  47.665  1.00  0.00    -0.268 OA
HETATM   22  H   UNL     1      22.782  49.004  50.451  1.00  0.00     0.163 HD
BRANCH  20  23
HETATM   23  C   UNL     1      20.729  49.733  49.014  1.00  0.00     0.070 A 
HETATM   24  C   UNL     1      19.650  49.553  49.883  1.00  0.00     0.132 A 
HETATM   25  F   UNL     1      19.449  48.382  50.507  1.00  0.00    -0.205 F 
HETATM   26  C   UNL     1      18.743  50.584  50.128  1.00  0.00     0.043 A 
HETATM   27  C   UNL     1      18.908  51.817  49.499  1.00  0.00     0.003 A 
HETATM   28  C   UNL     1      19.979  52.014  48.628  1.00  0.00     0.001 A 
HETATM   29  C   UNL     1      20.885  50.977  48.385  1.00  0.00     0.020 A 
ENDBRANCH  20  23
ENDBRANCH  18  19
ENDBRANCH   2  18
TORSDOF 5
ENDMDL
MODEL 2
REMARK VINA RESULT:     -10.0      3.438      4.705
REMARK  5 active torsions:
REMARK  status: ('A' for Active; 'I' for Inactive)
REMARK    1  A    between atoms: C_7  and  C_8 
REMARK    2  A    between atoms: N_9  and  N_10 
REMARK       I    between atoms: N_10  and  C_11 
REMARK    3  A    between atoms: C_11  and  C_12 
REMARK    4  A    between atoms: C_12  and  N_13 
REMARK       I    between atoms: N_13  and  C_14 
REMARK    5  A    between atoms: C_14  and  C_15 
ROOT
HETATM    1  N   UNL     1      25.638  44.191  52.992  1.00  0.00    -0.246 N 
HETATM    2  C   UNL     1      25.583  43.948  51.627  1.00  0.00     0.255 C 
HETATM    3  O   UNL     1      26.432  43.346  50.971  1.00  0.00    -0.270 OA
HETATM    4  H   UNL     1      24.865  44.693  53.439  1.00  0.00     0.192 HD
ENDROOT
BRANCH   1   5
HETATM    5  N   UNL     1      26.712  43.776  53.721  1.00  0.00    -0.184 NA
HETATM    6  C   UNL     1      27.690  44.619  53.807  1.00  0.00     0.153 C 
BRANCH   6   7
HETATM    7  C   UNL     1      28.891  44.268  54.544  1.00  0.00     0.018 A 
HETATM    8  C   UNL     1      29.858  43.340  54.174  1.00  0.00     0.018 A 
HETATM    9  C   UNL     1      29.963  42.459  52.979  1.00  0.00     0.069 C 
HETATM   10  N   UNL     1      30.824  43.328  55.149  1.00  0.00    -0.358 N 
HETATM   11  H   UNL     1      31.650  42.748  55.138  1.00  0.00     0.166 HD
HETATM   12  C   UNL     1      30.518  44.223  56.146  1.00  0.00     0.043 A 
HETATM   13  C   UNL     1      29.311  44.828  55.798  1.00  0.00     0.004 A 
HETATM   14  C   UNL     1      31.220  44.539  57.315  1.00  0.00     0.030 A 
HETATM   15  C   UNL     1      28.779  45.802  56.671  1.00  0.00     0.014 A 
HETATM   16  C   UNL     1      29.468  46.131  57.845  1.00  0.00     0.001 A 
HETATM   17  C   UNL     1      30.672  45.507  58.159  1.00  0.00     0.002 A 
ENDBRANCH   6   7
ENDBRANCH   1   5
BRANCH   2  18
HETATM   18  C   UNL     1      24.376  44.606  50.956  1.00  0.00     0.227 C 
BRANCH  18  19
HETATM   19  N   UNL     1      24.705  45.784  50.169  1.00  0.00    -0.348 N 
HETATM   20  C   UNL     1      25.056  46.983  50.742  1.00  0.00     0.255 C 
HETATM   21  O   UNL     1      24.958  47.170  51.952  1.00  0.00    -0.268 OA
HETATM   22  H   UNL     1      24.752  45.673  49.162  1.00  0.00     0.163 HD
BRANCH  20  23
HETATM   23  C   UNL     1      25.537  48.068  49.841  1.00  0.00     0.070 A 
HETATM   24  C   UNL     1      24.675  48.860  49.079  1.00  0.00     0.132 A 
HETATM   25  F   UNL     1      23.345  48.687  49.132  1.00  0.00    -0.205 F 
HETATM   26  C   UNL     1      25.168  49.854  48.234  1.00  0.00     0.043 A 
HETATM   27  C   UNL     1      26.542  50.068  48.143  1.00  0.00     0.003 A 
HETATM   28  C   UNL     1      27.417  49.286  48.895  1.00  0.00     0.001 A 
HETATM   29  C   UNL     1      26.919  48.290  49.739  1.00  0.00     0.020 A 
ENDBRANCH  20  23
ENDBRANCH  18  19
ENDBRANCH   2  18
TORSDOF 5
ENDMDL
MODEL 3
REMARK VINA RESULT:      -9.7      3.701     10.066
REMARK  5 active torsions:
REMARK  status: ('A' for Active; 'I' for Inactive)
REMARK    1  A    between atoms: C_7  and  C_8 
REMARK    2  A    between atoms: N_9  and  N_10 
REMARK       I    between atoms: N_10  and  C_11 
REMARK    3  A    between atoms: C_11  and  C_12 
REMARK    4  A    between atoms: C_12  and  N_13 
REMARK       I    between atoms: N_13  and  C_14 
REMARK    5  A    between atoms: C_14  and  C_15 
ROOT
HETATM    1  N   UNL     1      25.353  45.890  52.225  1.00  0.00    -0.246 N 
HETATM    2  C   UNL     1      25.627  45.900  53.585  1.00  0.00     0.255 C 
HETATM    3  O   UNL     1      25.702  46.902  54.294  1.00  0.00    -0.270 OA
HETATM    4  H   UNL     1      25.302  44.992  51.735  1.00  0.00     0.192 HD
ENDROOT
BRANCH   1   5
HETATM    5  N   UNL     1      25.167  47.061  51.553  1.00  0.00    -0.184 NA
HETATM    6  C   UNL     1      25.465  47.037  50.294  1.00  0.00     0.153 C 
BRANCH   6   7
HETATM    7  C   UNL     1      25.323  48.238  49.489  1.00  0.00     0.018 A 
HETATM    8  C   UNL     1      26.346  49.039  48.996  1.00  0.00     0.018 A 
HETATM    9  C   UNL     1      27.825  48.933  49.130  1.00  0.00     0.069 C 
HETATM   10  N   UNL     1      25.772  50.060  48.281  1.00  0.00    -0.358 N 
HETATM   11  H   UNL     1      26.282  50.792  47.807  1.00  0.00     0.166 HD
HETATM   12  C   UNL     1      24.403  49.950  48.291  1.00  0.00     0.043 A 
HETATM   13  C   UNL     1      24.089  48.818  49.042  1.00  0.00     0.004 A 
HETATM   14  C   UNL     1      23.432  50.761  47.690  1.00  0.00     0.030 A 
HETATM   15  C   UNL     1      22.726  48.481  49.199  1.00  0.00     0.014 A 
HETATM   16  C   UNL     1      21.742  49.280  48.605  1.00  0.00     0.001 A 
HETATM   17  C   UNL     1      22.093  50.403  47.861  1.00  0.00     0.002 A 
ENDBRANCH   6   7
ENDBRANCH   1   5
BRANCH   2  18
HETATM   18  C   UNL     1      25.943  44.508  54.136  1.00  0.00     0.227 C 
BRANCH  18  19
HETATM   19  N   UNL     1      27.049  44.482  55.080  1.00  0.00    -0.348 N 
HETATM   20  C   UNL     1      28.363  44.536  54.684  1.00  0.00     0.255 C 
HETATM   21  O   UNL     1      28.680  44.451  53.499  1.00  0.00    -0.268 OA
HETATM   22  H   UNL     1      26.818  44.507  56.069  1.00  0.00     0.163 HD
BRANCH  20  23
HETATM   23  C   UNL     1      29.402  44.675  55.742  1.00  0.00     0.070 A 
HETATM   24  C   UNL     1      30.485  43.801  55.862  1.00  0.00     0.132 A 
HETATM   25  F   UNL     1      30.651  42.781  55.005  1.00  0.00    -0.205 F 
HETATM   26  C   UNL     1      31.427  43.956  56.879  1.00  0.00     0.043 A 
HETATM   27  C   UNL     1      31.293  44.998  57.795  1.00  0.00     0.003 A 
HETATM   28  C   UNL     1      30.218  45.880  57.690  1.00  0.00     0.001 A 
HETATM   29  C   UNL     1      29.276  45.719  56.671  1.00  0.00     0.020 A 
ENDBRANCH  20  23
ENDBRANCH  18  19
ENDBRANCH   2  18
TORSDOF 5
ENDMDL
MODEL 4
REMARK VINA RESULT:      -9.4      6.145      8.476
REMARK  5 active torsions:
REMARK  status: ('A' for Active; 'I' for Inactive)
REMARK    1  A    between atoms: C_7  and  C_8 
REMARK    2  A    between atoms: N_9  and  N_10 
REMARK       I    between atoms: N_10  and  C_11 
REMARK    3  A    between atoms: C_11  and  C_12 
REMARK    4  A    between atoms: C_12  and  N_13 
REMARK       I    between atoms: N_13  and  C_14 
REMARK    5  A    between atoms: C_14  and  C_15 
ROOT
HETATM    1  N   UNL     1      26.673  42.927  52.349  1.00  0.00    -0.246 N 
HETATM    2  C   UNL     1      25.466  43.266  51.755  1.00  0.00     0.255 C 
HETATM    3  O   UNL     1      24.660  44.088  52.187  1.00  0.00    -0.270 OA
HETATM    4  H   UNL     1      27.275  42.236  51.892  1.00  0.00     0.192 HD
ENDROOT
BRANCH   1   5
HETATM    5  N   UNL     1      27.042  43.500  53.530  1.00  0.00    -0.184 NA
HETATM    6  C   UNL     1      28.036  44.326  53.464  1.00  0.00     0.153 C 
BRANCH   6   7
HETATM    7  C   UNL     1      28.523  44.976  54.668  1.00  0.00     0.018 A 
HETATM    8  C   UNL     1      28.063  46.166  55.220  1.00  0.00     0.018 A 
HETATM    9  C   UNL     1      26.991  47.101  54.779  1.00  0.00     0.069 C 
HETATM   10  N   UNL     1      28.791  46.411  56.357  1.00  0.00    -0.358 N 
HETATM   11  H   UNL     1      28.667  47.209  56.963  1.00  0.00     0.166 HD
HETATM   12  C   UNL     1      29.714  45.415  56.566  1.00  0.00     0.043 A 
HETATM   13  C   UNL     1      29.573  44.500  55.523  1.00  0.00     0.004 A 
HETATM   14  C   UNL     1      30.649  45.259  57.597  1.00  0.00     0.030 A 
HETATM   15  C   UNL     1      30.417  43.367  55.514  1.00  0.00     0.014 A 
HETATM   16  C   UNL     1      31.357  43.195  56.536  1.00  0.00     0.001 A 
HETATM   17  C   UNL     1      31.469  44.129  57.562  1.00  0.00     0.002 A 
ENDBRANCH   6   7
ENDBRANCH   1   5
BRANCH   2  18
HETATM   18  C   UNL     1      25.159  42.424  50.515  1.00  0.00     0.227 C 
BRANCH  18  19
HETATM   19  N   UNL     1      26.028  41.268  50.354  1.00  0.00    -0.348 N 
HETATM   20  C   UNL     1      27.088  41.255  49.480  1.00  0.00     0.255 C 
HETATM   21  O   UNL     1      27.265  42.163  48.671  1.00  0.00    -0.268 OA
HETATM   22  H   UNL     1      25.879  40.483  50.979  1.00  0.00     0.163 HD
BRANCH  20  23
HETATM   23  C   UNL     1      28.008  40.084  49.524  1.00  0.00     0.070 A 
HETATM   24  C   UNL     1      28.661  39.674  50.688  1.00  0.00     0.132 A 
HETATM   25  F   UNL     1      28.479  40.321  51.850  1.00  0.00    -0.205 F 
HETATM   26  C   UNL     1      29.528  38.582  50.681  1.00  0.00     0.043 A 
HETATM   27  C   UNL     1      29.753  37.882  49.497  1.00  0.00     0.003 A 
HETATM   28  C   UNL     1      29.109  38.277  48.325  1.00  0.00     0.001 A 
HETATM   29  C   UNL     1      28.242  39.373  48.336  1.00  0.00     0.020 A 
ENDBRANCH  20  23
ENDBRANCH  18  19
ENDBRANCH   2  18
TORSDOF 5
ENDMDL
MODEL 5
REMARK VINA RESULT:      -9.4      1.529      1.886
REMARK  5 active torsions:
REMARK  status: ('A' for Active; 'I' for Inactive)
REMARK    1  A    between atoms: C_7  and  C_8 
REMARK    2  A    between atoms: N_9  and  N_10 
REMARK       I    between atoms: N_10  and  C_11 
REMARK    3  A    between atoms: C_11  and  C_12 
REMARK    4  A    between atoms: C_12  and  N_13 
REMARK       I    between atoms: N_13  and  C_14 
REMARK    5  A    between atoms: C_14  and  C_15 
ROOT
HETATM    1  N   UNL     1      25.060  46.157  51.373  1.00  0.00    -0.246 N 
HETATM    2  C   UNL     1      25.073  45.478  50.164  1.00  0.00     0.255 C 
HETATM    3  O   UNL     1      26.035  44.876  49.689  1.00  0.00    -0.270 OA
HETATM    4  H   UNL     1      24.195  46.613  51.678  1.00  0.00     0.192 HD
ENDROOT
BRANCH   1   5
HETATM    5  N   UNL     1      26.188  46.222  52.136  1.00  0.00    -0.184 NA
HETATM    6  C   UNL     1      26.071  45.781  53.347  1.00  0.00     0.153 C 
BRANCH   6   7
HETATM    7  C   UNL     1      27.207  45.824  54.251  1.00  0.00     0.018 A 
HETATM    8  C   UNL     1      27.501  46.819  55.176  1.00  0.00     0.018 A 
HETATM    9  C   UNL     1      26.793  48.084  55.513  1.00  0.00     0.069 C 
HETATM   10  N   UNL     1      28.656  46.460  55.826  1.00  0.00    -0.358 N 
HETATM   11  H   UNL     1      29.101  46.998  56.554  1.00  0.00     0.166 HD
HETATM   12  C   UNL     1      29.124  45.257  55.354  1.00  0.00     0.043 A 
HETATM   13  C   UNL     1      28.239  44.833  54.363  1.00  0.00     0.004 A 
HETATM   14  C   UNL     1      30.254  44.523  55.733  1.00  0.00     0.030 A 
HETATM   15  C   UNL     1      28.502  43.604  53.719  1.00  0.00     0.014 A 
HETATM   16  C   UNL     1      29.627  42.856  54.086  1.00  0.00     0.001 A 
HETATM   17  C   UNL     1      30.488  43.311  55.080  1.00  0.00     0.002 A 
ENDBRANCH   6   7
ENDBRANCH   1   5
BRANCH   2  18
HETATM   18  C   UNL     1      23.764  45.629  49.385  1.00  0.00     0.227 C 
BRANCH  18  19
HETATM   19  N   UNL     1      23.212  46.975  49.412  1.00  0.00    -0.348 N 
HETATM   20  C   UNL     1      22.431  47.475  48.398  1.00  0.00     0.255 C 
HETATM   21  O   UNL     1      22.287  46.868  47.339  1.00  0.00    -0.268 OA
HETATM   22  H   UNL     1      23.352  47.519  50.257  1.00  0.00     0.163 HD
BRANCH  20  23
HETATM   23  C   UNL     1      21.782  48.799  48.611  1.00  0.00     0.070 A 
HETATM   24  C   UNL     1      22.353  50.001  48.188  1.00  0.00     0.132 A 
HETATM   25  F   UNL     1      23.532  50.022  47.546  1.00  0.00    -0.205 F 
HETATM   26  C   UNL     1      21.720  51.221  48.423  1.00  0.00     0.043 A 
HETATM   27  C   UNL     1      20.496  51.251  49.090  1.00  0.00     0.003 A 
HETATM   28  C   UNL     1      19.912  50.060  49.520  1.00  0.00     0.001 A 
HETATM   29  C   UNL     1      20.551  48.840  49.284  1.00  0.00     0.020 A 
ENDBRANCH  20  23
ENDBRANCH  18  19
ENDBRANCH   2  18
TORSDOF 5
ENDMDL
MODEL 6
REMARK VINA RESULT:      -9.1      2.996      3.783
REMARK  5 active torsions:
REMARK  status: ('A' for Active; 'I' for Inactive)
REMARK    1  A    between atoms: C_7  and  C_8 
REMARK    2  A    between atoms: N_9  and  N_10 
REMARK       I    between atoms: N_10  and  C_11 
REMARK    3  A    between atoms: C_11  and  C_12 
REMARK    4  A    between atoms: C_12  and  N_13 
REMARK       I    between atoms: N_13  and  C_14 
REMARK    5  A    between atoms: C_14  and  C_15 
ROOT
HETATM    1  N   UNL     1      25.252  44.720  52.802  1.00  0.00    -0.246 N 
HETATM    2  C   UNL     1      25.609  44.281  51.536  1.00  0.00     0.255 C 
HETATM    3  O   UNL     1      26.696  43.798  51.225  1.00  0.00    -0.270 OA
HETATM    4  H   UNL     1      24.309  45.094  52.952  1.00  0.00     0.192 HD
ENDROOT
BRANCH   1   5
HETATM    5  N   UNL     1      26.148  44.664  53.828  1.00  0.00    -0.184 NA
HETATM    6  C   UNL     1      26.944  45.679  53.932  1.00  0.00     0.153 C 
BRANCH   6   7
HETATM    7  C   UNL     1      27.951  45.710  54.978  1.00  0.00     0.018 A 
HETATM    8  C   UNL     1      28.050  46.630  56.015  1.00  0.00     0.018 A 
HETATM    9  C   UNL     1      27.209  47.809  56.363  1.00  0.00     0.069 C 
HETATM   10  N   UNL     1      29.138  46.288  56.778  1.00  0.00    -0.358 N 
HETATM   11  H   UNL     1      29.445  46.783  57.602  1.00  0.00     0.166 HD
HETATM   12  C   UNL     1      29.753  45.168  56.271  1.00  0.00     0.043 A 
HETATM   13  C   UNL     1      29.034  44.783  55.140  1.00  0.00     0.004 A 
HETATM   14  C   UNL     1      30.880  44.477  56.732  1.00  0.00     0.030 A 
HETATM   15  C   UNL     1      29.470  43.640  54.433  1.00  0.00     0.014 A 
HETATM   16  C   UNL     1      30.594  42.935  54.880  1.00  0.00     0.001 A 
HETATM   17  C   UNL     1      31.287  43.350  56.014  1.00  0.00     0.002 A 
ENDBRANCH   6   7
ENDBRANCH   1   5
BRANCH   2  18
HETATM   18  C   UNL     1      24.527  44.550  50.488  1.00  0.00     0.227 C 
BRANCH  18  19
HETATM   19  N   UNL     1      24.722  45.781  49.738  1.00  0.00    -0.348 N 
HETATM   20  C   UNL     1      24.836  47.008  50.345  1.00  0.00     0.255 C 
HETATM   21  O   UNL     1      24.622  47.153  51.547  1.00  0.00    -0.268 OA
HETATM   22  H   UNL     1      24.859  45.699  48.736  1.00  0.00     0.163 HD
BRANCH  20  23
HETATM   23  C   UNL     1      25.204  48.172  49.492  1.00  0.00     0.070 A 
HETATM   24  C   UNL     1      24.260  48.937  48.804  1.00  0.00     0.132 A 
HETATM   25  F   UNL     1      22.948  48.662  48.888  1.00  0.00    -0.205 F 
HETATM   26  C   UNL     1      24.648  50.010  48.001  1.00  0.00     0.043 A 
HETATM   27  C   UNL     1      25.999  50.331  47.879  1.00  0.00     0.003 A 
HETATM   28  C   UNL     1      26.955  49.578  48.559  1.00  0.00     0.001 A 
HETATM   29  C   UNL     1      26.561  48.503  49.361  1.00  0.00     0.020 A 
ENDBRANCH  20  23
ENDBRANCH  18  19
ENDBRANCH   2  18
TORSDOF 5
ENDMDL
MODEL 7
REMARK VINA RESULT:      -8.9      3.190      9.327
REMARK  5 active torsions:
REMARK  status: ('A' for Active; 'I' for Inactive)
REMARK    1  A    between atoms: C_7  and  C_8 
REMARK    2  A    between atoms: N_9  and  N_10 
REMARK       I    between atoms: N_10  and  C_11 
REMARK    3  A    between atoms: C_11  and  C_12 
REMARK    4  A    between atoms: C_12  and  N_13 
REMARK       I    between atoms: N_13  and  C_14 
REMARK    5  A    between atoms: C_14  and  C_15 
ROOT
HETATM    1  N   UNL     1      25.535  44.808  50.243  1.00  0.00    -0.246 N 
HETATM    2  C   UNL     1      24.532  43.924  50.612  1.00  0.00     0.255 C 
HETATM    3  O   UNL     1      23.349  44.004  50.284  1.00  0.00    -0.270 OA
HETATM    4  H   UNL     1      26.493  44.636  50.565  1.00  0.00     0.192 HD
ENDROOT
BRANCH   1   5
HETATM    5  N   UNL     1      25.245  45.895  49.473  1.00  0.00    -0.184 NA
HETATM    6  C   UNL     1      25.482  47.045  50.016  1.00  0.00     0.153 C 
BRANCH   6   7
HETATM    7  C   UNL     1      25.189  48.268  49.290  1.00  0.00     0.018 A 
HETATM    8  C   UNL     1      26.104  49.212  48.839  1.00  0.00     0.018 A 
HETATM    9  C   UNL     1      27.587  49.271  48.954  1.00  0.00     0.069 C 
HETATM   10  N   UNL     1      25.405  50.201  48.195  1.00  0.00    -0.358 N 
HETATM   11  H   UNL     1      25.818  51.015  47.764  1.00  0.00     0.166 HD
HETATM   12  C   UNL     1      24.058  49.931  48.209  1.00  0.00     0.043 A 
HETATM   13  C   UNL     1      23.889  48.726  48.890  1.00  0.00     0.004 A 
HETATM   14  C   UNL     1      22.990  50.659  47.669  1.00  0.00     0.030 A 
HETATM   15  C   UNL     1      22.577  48.224  49.037  1.00  0.00     0.014 A 
HETATM   16  C   UNL     1      21.497  48.938  48.503  1.00  0.00     0.001 A 
HETATM   17  C   UNL     1      21.704  50.137  47.828  1.00  0.00     0.002 A 
ENDBRANCH   6   7
ENDBRANCH   1   5
BRANCH   2  18
HETATM   18  C   UNL     1      25.018  42.849  51.587  1.00  0.00     0.227 C 
BRANCH  18  19
HETATM   19  N   UNL     1      26.257  43.186  52.270  1.00  0.00    -0.348 N 
HETATM   20  C   UNL     1      26.286  43.667  53.556  1.00  0.00     0.255 C 
HETATM   21  O   UNL     1      25.257  43.990  54.145  1.00  0.00    -0.268 OA
HETATM   22  H   UNL     1      27.126  42.972  51.791  1.00  0.00     0.163 HD
BRANCH  20  23
HETATM   23  C   UNL     1      27.616  43.816  54.212  1.00  0.00     0.070 A 
HETATM   24  C   UNL     1      28.009  44.979  54.877  1.00  0.00     0.132 A 
HETATM   25  F   UNL     1      27.187  46.036  54.971  1.00  0.00    -0.205 F 
HETATM   26  C   UNL     1      29.270  45.082  55.463  1.00  0.00     0.043 A 
HETATM   27  C   UNL     1      30.160  44.012  55.388  1.00  0.00     0.003 A 
HETATM   28  C   UNL     1      29.785  42.843  54.727  1.00  0.00     0.001 A 
HETATM   29  C   UNL     1      28.520  42.745  54.140  1.00  0.00     0.020 A 
ENDBRANCH  20  23
ENDBRANCH  18  19
ENDBRANCH   2  18
TORSDOF 5
ENDMDL
MODEL 8
REMARK VINA RESULT:      -8.8      2.056      3.081
REMARK  5 active torsions:
REMARK  status: ('A' for Active; 'I' for Inactive)
REMARK    1  A    between atoms: C_7  and  C_8 
REMARK    2  A    between atoms: N_9  and  N_10 
REMARK       I    between atoms: N_10  and  C_11 
REMARK    3  A    between atoms: C_11  and  C_12 
REMARK    4  A    between atoms: C_12  and  N_13 
REMARK       I    between atoms: N_13  and  C_14 
REMARK    5  A    between atoms: C_14  and  C_15 
ROOT
HETATM    1  N   UNL     1      25.261  43.786  51.074  1.00  0.00    -0.246 N 
HETATM    2  C   UNL     1      25.185  44.754  50.084  1.00  0.00     0.255 C 
HETATM    3  O   UNL     1      26.137  45.376  49.614  1.00  0.00    -0.270 OA
HETATM    4  H   UNL     1      24.402  43.320  51.381  1.00  0.00     0.192 HD
ENDROOT
BRANCH   1   5
HETATM    5  N   UNL     1      26.462  43.469  51.635  1.00  0.00    -0.184 NA
HETATM    6  C   UNL     1      26.568  43.707  52.902  1.00  0.00     0.153 C 
BRANCH   6   7
HETATM    7  C   UNL     1      27.813  43.425  53.595  1.00  0.00     0.018 A 
HETATM    8  C   UNL     1      28.566  42.259  53.519  1.00  0.00     0.018 A 
HETATM    9  C   UNL     1      28.349  41.001  52.754  1.00  0.00     0.069 C 
HETATM   10  N   UNL     1      29.667  42.418  54.322  1.00  0.00    -0.358 N 
HETATM   11  H   UNL     1      30.391  41.727  54.455  1.00  0.00     0.166 HD
HETATM   12  C   UNL     1      29.658  43.655  54.920  1.00  0.00     0.043 A 
HETATM   13  C   UNL     1      28.506  44.311  54.487  1.00  0.00     0.004 A 
HETATM   14  C   UNL     1      30.580  44.234  55.801  1.00  0.00     0.030 A 
HETATM   15  C   UNL     1      28.267  45.619  54.963  1.00  0.00     0.014 A 
HETATM   16  C   UNL     1      29.178  46.214  55.844  1.00  0.00     0.001 A 
HETATM   17  C   UNL     1      30.318  45.528  56.254  1.00  0.00     0.002 A 
ENDBRANCH   6   7
ENDBRANCH   1   5
BRANCH   2  18
HETATM   18  C   UNL     1      23.746  45.073  49.675  1.00  0.00     0.227 C 
BRANCH  18  19
HETATM   19  N   UNL     1      23.462  46.495  49.565  1.00  0.00    -0.348 N 
HETATM   20  C   UNL     1      22.732  47.027  48.530  1.00  0.00     0.255 C 
HETATM   21  O   UNL     1      22.411  46.350  47.555  1.00  0.00    -0.268 OA
HETATM   22  H   UNL     1      23.753  47.089  50.335  1.00  0.00     0.163 HD
BRANCH  20  23
HETATM   23  C   UNL     1      22.360  48.468  48.611  1.00  0.00     0.070 A 
HETATM   24  C   UNL     1      21.114  48.906  49.064  1.00  0.00     0.132 A 
HETATM   25  F   UNL     1      20.176  48.034  49.468  1.00  0.00    -0.205 F 
HETATM   26  C   UNL     1      20.801  50.264  49.108  1.00  0.00     0.043 A 
HETATM   27  C   UNL     1      21.740  51.207  48.695  1.00  0.00     0.003 A 
HETATM   28  C   UNL     1      22.989  50.787  48.239  1.00  0.00     0.001 A 
HETATM   29  C   UNL     1      23.299  49.425  48.195  1.00  0.00     0.020 A 
ENDBRANCH  20  23
ENDBRANCH  18  19
ENDBRANCH   2  18
TORSDOF 5
ENDMDL
MODEL 9
REMARK VINA RESULT:      -8.8      3.788      9.865
REMARK  5 active torsions:
REMARK  status: ('A' for Active; 'I' for Inactive)
REMARK    1  A    between atoms: C_7  and  C_8 
REMARK    2  A    between atoms: N_9  and  N_10 
REMARK       I    between atoms: N_10  and  C_11 
REMARK    3  A    between atoms: C_11  and  C_12 
REMARK    4  A    between atoms: C_12  and  N_13 
REMARK       I    between atoms: N_13  and  C_14 
REMARK    5  A    between atoms: C_14  and  C_15 
ROOT
HETATM    1  N   UNL     1      25.511  44.177  50.004  1.00  0.00    -0.246 N 
HETATM    2  C   UNL     1      26.878  44.393  50.098  1.00  0.00     0.255 C 
HETATM    3  O   UNL     1      27.503  45.288  49.532  1.00  0.00    -0.270 OA
HETATM    4  H   UNL     1      25.093  43.405  50.533  1.00  0.00     0.192 HD
ENDROOT
BRANCH   1   5
HETATM    5  N   UNL     1      24.742  44.974  49.210  1.00  0.00    -0.184 NA
HETATM    6  C   UNL     1      24.007  45.839  49.830  1.00  0.00     0.153 C 
BRANCH   6   7
HETATM    7  C   UNL     1      23.134  46.725  49.080  1.00  0.00     0.018 A 
HETATM    8  C   UNL     1      21.893  46.412  48.538  1.00  0.00     0.018 A 
HETATM    9  C   UNL     1      21.110  45.146  48.548  1.00  0.00     0.069 C 
HETATM   10  N   UNL     1      21.408  47.538  47.921  1.00  0.00    -0.358 N 
HETATM   11  H   UNL     1      20.521  47.600  47.445  1.00  0.00     0.166 HD
HETATM   12  C   UNL     1      22.296  48.579  48.045  1.00  0.00     0.043 A 
HETATM   13  C   UNL     1      23.390  48.101  48.765  1.00  0.00     0.004 A 
HETATM   14  C   UNL     1      22.206  49.897  47.579  1.00  0.00     0.030 A 
HETATM   15  C   UNL     1      24.452  48.994  49.032  1.00  0.00     0.014 A 
HETATM   16  C   UNL     1      24.378  50.315  48.575  1.00  0.00     0.001 A 
HETATM   17  C   UNL     1      23.270  50.758  47.859  1.00  0.00     0.002 A 
ENDBRANCH   6   7
ENDBRANCH   1   5
BRANCH   2  18
HETATM   18  C   UNL     1      27.593  43.319  50.921  1.00  0.00     0.227 C 
BRANCH  18  19
HETATM   19  N   UNL     1      28.364  43.844  52.037  1.00  0.00    -0.348 N 
HETATM   20  C   UNL     1      27.876  43.882  53.321  1.00  0.00     0.255 C 
HETATM   21  O   UNL     1      26.701  43.620  53.570  1.00  0.00    -0.268 OA
HETATM   22  H   UNL     1      29.326  44.110  51.855  1.00  0.00     0.163 HD
BRANCH  20  23
HETATM   23  C   UNL     1      28.813  44.280  54.408  1.00  0.00     0.070 A 
HETATM   24  C   UNL     1      29.971  43.560  54.715  1.00  0.00     0.132 A 
HETATM   25  F   UNL     1      30.307  42.460  54.023  1.00  0.00    -0.205 F 
HETATM   26  C   UNL     1      30.812  43.958  55.753  1.00  0.00     0.043 A 
HETATM   27  C   UNL     1      30.502  45.092  56.502  1.00  0.00     0.003 A 
HETATM   28  C   UNL     1      29.351  45.822  56.210  1.00  0.00     0.001 A 
HETATM   29  C   UNL     1      28.509  45.419  55.170  1.00  0.00     0.020 A 
ENDBRANCH  20  23
ENDBRANCH  18  19
ENDBRANCH   2  18
TORSDOF 5
ENDMDL
MODEL 10
REMARK VINA RESULT:      -8.6      2.165      3.275
REMARK  5 active torsions:
REMARK  status: ('A' for Active; 'I' for Inactive)
REMARK    1  A    between atoms: C_7  and  C_8 
REMARK    2  A    between atoms: N_9  and  N_10 
REMARK       I    between atoms: N_10  and  C_11 
REMARK    3  A    between atoms: C_11  and  C_12 
REMARK    4  A    between atoms: C_12  and  N_13 
REMARK       I    between atoms: N_13  and  C_14 
REMARK    5  A    between atoms: C_14  and  C_15 
ROOT
HETATM    1  N   UNL     1      24.863  48.469  49.678  1.00  0.00    -0.246 N 
HETATM    2  C   UNL     1      25.501  49.219  48.701  1.00  0.00     0.255 C 
HETATM    3  O   UNL     1      26.704  49.190  48.446  1.00  0.00    -0.270 OA
HETATM    4  H   UNL     1      23.850  48.564  49.794  1.00  0.00     0.192 HD
ENDROOT
BRANCH   1   5
HETATM    5  N   UNL     1      25.580  47.629  50.477  1.00  0.00    -0.184 NA
HETATM    6  C   UNL     1      24.881  46.823  51.210  1.00  0.00     0.153 C 
BRANCH   6   7
HETATM    7  C   UNL     1      25.546  45.900  52.113  1.00  0.00     0.018 A 
HETATM    8  C   UNL     1      25.516  44.511  52.059  1.00  0.00     0.018 A 
HETATM    9  C   UNL     1      24.833  43.582  51.118  1.00  0.00     0.069 C 
HETATM   10  N   UNL     1      26.284  44.034  53.091  1.00  0.00    -0.358 N 
HETATM   11  H   UNL     1      26.443  43.057  53.290  1.00  0.00     0.166 HD
HETATM   12  C   UNL     1      26.816  45.070  53.819  1.00  0.00     0.043 A 
HETATM   13  C   UNL     1      26.371  46.254  53.233  1.00  0.00     0.004 A 
HETATM   14  C   UNL     1      27.655  45.042  54.941  1.00  0.00     0.030 A 
HETATM   15  C   UNL     1      26.790  47.477  53.803  1.00  0.00     0.014 A 
HETATM   16  C   UNL     1      27.629  47.468  54.923  1.00  0.00     0.001 A 
HETATM   17  C   UNL     1      28.055  46.266  55.481  1.00  0.00     0.002 A 
ENDBRANCH   6   7
ENDBRANCH   1   5
BRANCH   2  18
HETATM   18  C   UNL     1      24.562  50.203  48.001  1.00  0.00     0.227 C 
BRANCH  18  19
HETATM   19  N   UNL     1      23.153  49.865  48.122  1.00  0.00    -0.348 N 
HETATM   20  C   UNL     1      22.356  50.357  49.127  1.00  0.00     0.255 C 
HETATM   21  O   UNL     1      22.829  50.985  50.072  1.00  0.00    -0.268 OA
HETATM   22  H   UNL     1      22.742  49.309  47.379  1.00  0.00     0.163 HD
BRANCH  20  23
HETATM   23  C   UNL     1      20.894  50.080  49.053  1.00  0.00     0.070 A 
HETATM   24  C   UNL     1      19.954  51.052  48.703  1.00  0.00     0.132 A 
HETATM   25  F   UNL     1      20.331  52.304  48.400  1.00  0.00    -0.205 F 
HETATM   26  C   UNL     1      18.592  50.755  48.662  1.00  0.00     0.043 A 
HETATM   27  C   UNL     1      18.153  49.470  48.974  1.00  0.00     0.003 A 
HETATM   28  C   UNL     1      19.077  48.487  49.326  1.00  0.00     0.001 A 
HETATM   29  C   UNL     1      20.441  48.789  49.367  1.00  0.00     0.020 A 
ENDBRANCH  20  23
ENDBRANCH  18  19
ENDBRANCH   2  18
TORSDOF 5
ENDMDL
