MODEL 1
REMARK VINA RESULT:      -9.7      0.000      0.000
REMARK  5 active torsions:
REMARK  status: ('A' for Active; 'I' for Inactive)
REMARK    1  A    between atoms: C_4  and  C_5 
REMARK    2  A    between atoms: C_17  and  C_18 
REMARK    3  A    between atoms: C_18  and  N_19 
REMARK       I    between atoms: N_19  and  C_20 
REMARK    4  A    between atoms: C_20  and  C_21 
REMARK    5  A    between atoms: C_21  and  C_22 
ROOT
HETATM    1  C   UNL     1      27.223  50.296  48.512  1.00  0.00     0.048 C 
HETATM    2  C   UNL     1      26.342  49.153  48.926  1.00  0.00    -0.060 A 
HETATM    3  C   UNL     1      24.938  49.270  48.862  1.00  0.00     0.024 A 
HETATM    4  C   UNL     1      24.082  48.221  49.257  1.00  0.00     0.034 A 
HETATM    5  C   UNL     1      24.693  47.067  49.731  1.00  0.00     0.088 A 
HETATM    6  C   UNL     1      26.075  46.945  49.810  1.00  0.00    -0.021 A 
HETATM    7  C   UNL     1      26.438  45.655  50.440  1.00  0.00     0.075 C 
HETATM    8  C   UNL     1      25.074  44.953  50.397  1.00  0.00     0.151 C 
HETATM    9  O   UNL     1      24.041  45.963  50.227  1.00  0.00    -0.342 OA
HETATM   10  C   UNL     1      26.915  47.972  49.412  1.00  0.00     0.017 A 
ENDROOT
BRANCH   8  11
HETATM   11  C   UNL     1      24.759  44.166  51.675  1.00  0.00     0.155 C 
BRANCH  11  12
HETATM   12  N   UNL     1      25.882  43.958  52.571  1.00  0.00    -0.359 N 
HETATM   13  C   UNL     1      25.775  44.119  53.934  1.00  0.00     0.219 C 
HETATM   14  O   UNL     1      24.722  44.399  54.493  1.00  0.00    -0.274 OA
HETATM   15  H   UNL     1      26.796  43.810  52.160  1.00  0.00     0.162 HD
BRANCH  13  16
HETATM   16  C   UNL     1      27.093  43.928  54.659  1.00  0.00     0.128 C 
BRANCH  16  17
HETATM   17  C   UNL     1      28.112  45.019  54.302  1.00  0.00     0.094 C 
HETATM   18  N   UNL     1      27.492  46.336  54.334  1.00  0.00    -0.362 N 
HETATM   19  C   UNL     1      27.413  47.119  55.437  1.00  0.00     0.168 C 
HETATM   20  H   UNL     1      26.920  46.612  53.540  1.00  0.00     0.162 HD
HETATM   21  S   UNL     1      26.463  48.477  55.466  1.00  0.00    -0.041 SA
HETATM   22  N   UNL     1      28.162  46.763  56.510  1.00  0.00    -0.363 N 
HETATM   23  C   UNL     1      28.902  45.517  56.623  1.00  0.00     0.081 C 
HETATM   24  H   UNL     1      28.026  47.333  57.338  1.00  0.00     0.162 HD
HETATM   25  C   UNL     1      30.112  45.696  57.534  1.00  0.00     0.032 C 
HETATM   26  C   UNL     1      29.320  45.012  55.243  1.00  0.00     0.050 C 
ENDBRANCH  16  17
ENDBRANCH  13  16
ENDBRANCH  11  12
ENDBRANCH   8  11
BRANCH   4  27
HETATM   27  C   UNL     1      22.628  48.423  49.175  1.00  0.00     0.112 A 
HETATM   28  S   UNL     1      21.616  47.344  48.295  1.00  0.00    -0.067 SA
HETATM   29  C   UNL     1      20.240  48.303  48.674  1.00  0.00     0.035 A 
HETATM   30  C   UNL     1      20.650  49.401  49.428  1.00  0.00     0.075 A 
HETATM   31  C   UNL     1      18.895  48.102  48.324  1.00  0.00     0.021 A 
HETATM   32  N   UNL     1      22.007  49.467  49.690  1.00  0.00    -0.239 NA
HETATM   33  C   UNL     1      19.681  50.334  49.850  1.00  0.00     0.033 A 
HETATM   34  C   UNL     1      18.338  50.144  49.509  1.00  0.00     0.002 A 
HETATM   35  C   UNL     1      17.951  49.041  48.756  1.00  0.00     0.002 A 
ENDBRANCH   4  27
TORSDOF 5
ENDMDL
MODEL 2
REMARK VINA RESULT:      -9.5      3.374      8.825
REMARK  5 active torsions:
REMARK  status: ('A' for Active; 'I' for Inactive)
REMARK    1  A    between atoms: C_4  and  C_5 
REMARK    2  A    between atoms: C_17  and  C_18 
REMARK    3  A    between atoms: C_18  and  N_19 
REMARK       I    between atoms: N_19  and  C_20 
REMARK    4  A    between atoms: C_20  and  C_21 
REMARK    5  A    between atoms: C_21  and  C_22 
ROOT
HETATM    1  C   UNL     1      31.442  43.714  56.334  1.00  0.00     0.048 C 
HETATM    2  C   UNL     1      30.212  44.011  55.526  1.00  0.00    -0.060 A 
HETATM    3  C   UNL     1      29.849  43.184  54.442  1.00  0.00     0.024 A 
HETATM    4  C   UNL     1      28.709  43.442  53.654  1.00  0.00     0.034 A 
HETATM    5  C   UNL     1      27.965  44.568  53.989  1.00  0.00     0.088 A 
HETATM    6  C   UNL     1      28.320  45.396  55.047  1.00  0.00    -0.021 A 
HETATM    7  C   UNL     1      27.410  46.562  55.108  1.00  0.00     0.075 C 
HETATM    8  C   UNL     1      26.317  46.089  54.142  1.00  0.00     0.151 C 
HETATM    9  O   UNL     1      26.865  45.031  53.307  1.00  0.00    -0.342 OA
HETATM   10  C   UNL     1      29.434  45.135  55.826  1.00  0.00     0.017 A 
ENDROOT
BRANCH   8  11
HETATM   11  C   UNL     1      25.804  47.201  53.217  1.00  0.00     0.155 C 
BRANCH  11  12
HETATM   12  N   UNL     1      25.302  46.756  51.929  1.00  0.00    -0.359 N 
HETATM   13  C   UNL     1      25.772  47.268  50.741  1.00  0.00     0.219 C 
HETATM   14  O   UNL     1      26.675  48.094  50.679  1.00  0.00    -0.274 OA
HETATM   15  H   UNL     1      24.497  46.141  51.920  1.00  0.00     0.162 HD
BRANCH  13  16
HETATM   16  C   UNL     1      25.047  46.715  49.529  1.00  0.00     0.128 C 
BRANCH  16  17
HETATM   17  C   UNL     1      23.764  45.966  49.915  1.00  0.00     0.094 C 
HETATM   18  N   UNL     1      22.614  46.508  49.204  1.00  0.00    -0.362 N 
HETATM   19  C   UNL     1      22.198  46.085  47.987  1.00  0.00     0.168 C 
HETATM   20  H   UNL     1      22.210  47.376  49.546  1.00  0.00     0.162 HD
HETATM   21  S   UNL     1      21.056  46.924  47.125  1.00  0.00    -0.041 SA
HETATM   22  N   UNL     1      22.732  44.934  47.510  1.00  0.00    -0.363 N 
HETATM   23  C   UNL     1      23.839  44.220  48.125  1.00  0.00     0.081 C 
HETATM   24  H   UNL     1      22.448  44.685  46.568  1.00  0.00     0.162 HD
HETATM   25  C   UNL     1      23.753  42.730  47.810  1.00  0.00     0.032 C 
HETATM   26  C   UNL     1      23.864  44.465  49.634  1.00  0.00     0.050 C 
ENDBRANCH  16  17
ENDBRANCH  13  16
ENDBRANCH  11  12
ENDBRANCH   8  11
BRANCH   4  27
HETATM   27  C   UNL     1      28.403  42.544  52.532  1.00  0.00     0.112 A 
HETATM   28  S   UNL     1      28.883  40.891  52.543  1.00  0.00    -0.067 SA
HETATM   29  C   UNL     1      28.217  40.672  50.973  1.00  0.00     0.035 A 
HETATM   30  C   UNL     1      27.694  41.887  50.532  1.00  0.00     0.075 A 
HETATM   31  C   UNL     1      28.166  39.511  50.184  1.00  0.00     0.021 A 
HETATM   32  N   UNL     1      27.821  42.943  51.416  1.00  0.00    -0.239 NA
HETATM   33  C   UNL     1      27.098  41.945  49.256  1.00  0.00     0.033 A 
HETATM   34  C   UNL     1      27.040  40.794  48.462  1.00  0.00     0.002 A 
HETATM   35  C   UNL     1      27.568  39.593  48.922  1.00  0.00     0.002 A 
ENDBRANCH   4  27
TORSDOF 5
ENDMDL
MODEL 3
REMARK VINA RESULT:      -9.5      2.609      9.746
REMARK  5 active torsions:
REMARK  status: ('A' for Active; 'I' for Inactive)
REMARK    1  A    between atoms: C_4  and  C_5 
REMARK    2  A    between atoms: C_17  and  C_18 
REMARK    3  A    between atoms: C_18  and  N_19 
REMARK       I    between atoms: N_19  and  C_20 
REMARK    4  A    between atoms: C_20  and  C_21 
REMARK    5  A    between atoms: C_21  and  C_22 
ROOT
HETATM    1  C   UNL     1      26.416  39.973  50.178  1.00  0.00     0.048 C 
HETATM    2  C   UNL     1      26.554  41.431  50.506  1.00  0.00    -0.060 A 
HETATM    3  C   UNL     1      27.343  41.850  51.598  1.00  0.00     0.024 A 
HETATM    4  C   UNL     1      27.481  43.210  51.941  1.00  0.00     0.034 A 
HETATM    5  C   UNL     1      26.783  44.122  51.158  1.00  0.00     0.088 A 
HETATM    6  C   UNL     1      25.994  43.719  50.087  1.00  0.00    -0.021 A 
HETATM    7  C   UNL     1      25.297  44.888  49.501  1.00  0.00     0.075 C 
HETATM    8  C   UNL     1      26.066  46.021  50.191  1.00  0.00     0.151 C 
HETATM    9  O   UNL     1      26.729  45.479  51.368  1.00  0.00    -0.342 OA
HETATM   10  C   UNL     1      25.867  42.384  49.745  1.00  0.00     0.017 A 
ENDROOT
BRANCH   8  11
HETATM   11  C   UNL     1      25.163  47.174  50.649  1.00  0.00     0.155 C 
BRANCH  11  12
HETATM   12  N   UNL     1      24.050  47.479  49.767  1.00  0.00    -0.359 N 
HETATM   13  C   UNL     1      23.994  48.642  49.032  1.00  0.00     0.219 C 
HETATM   14  O   UNL     1      24.891  49.475  49.028  1.00  0.00    -0.274 OA
HETATM   15  H   UNL     1      23.241  46.871  49.795  1.00  0.00     0.162 HD
BRANCH  13  16
HETATM   16  C   UNL     1      22.704  48.784  48.246  1.00  0.00     0.128 C 
BRANCH  16  17
HETATM   17  C   UNL     1      21.649  47.754  48.675  1.00  0.00     0.094 C 
HETATM   18  N   UNL     1      20.708  48.341  49.619  1.00  0.00    -0.362 N 
HETATM   19  C   UNL     1      19.572  48.987  49.264  1.00  0.00     0.168 C 
HETATM   20  H   UNL     1      21.004  48.440  50.586  1.00  0.00     0.162 HD
HETATM   21  S   UNL     1      18.693  49.859  50.368  1.00  0.00    -0.041 SA
HETATM   22  N   UNL     1      19.165  48.874  47.975  1.00  0.00    -0.363 N 
HETATM   23  C   UNL     1      19.946  48.260  46.914  1.00  0.00     0.081 C 
HETATM   24  H   UNL     1      18.349  49.426  47.732  1.00  0.00     0.162 HD
HETATM   25  C   UNL     1      19.028  47.682  45.843  1.00  0.00     0.032 C 
HETATM   26  C   UNL     1      20.876  47.188  47.482  1.00  0.00     0.050 C 
ENDBRANCH  16  17
ENDBRANCH  13  16
ENDBRANCH  11  12
ENDBRANCH   8  11
BRANCH   4  27
HETATM   27  C   UNL     1      28.308  43.569  53.102  1.00  0.00     0.112 A 
HETATM   28  S   UNL     1      29.657  42.611  53.578  1.00  0.00    -0.067 SA
HETATM   29  C   UNL     1      29.944  43.655  54.914  1.00  0.00     0.035 A 
HETATM   30  C   UNL     1      28.973  44.655  54.922  1.00  0.00     0.075 A 
HETATM   31  C   UNL     1      30.954  43.592  55.888  1.00  0.00     0.021 A 
HETATM   32  N   UNL     1      28.041  44.585  53.901  1.00  0.00    -0.239 NA
HETATM   33  C   UNL     1      29.010  45.628  55.941  1.00  0.00     0.033 A 
HETATM   34  C   UNL     1      30.012  45.577  56.916  1.00  0.00     0.002 A 
HETATM   35  C   UNL     1      30.971  44.570  56.888  1.00  0.00     0.002 A 
ENDBRANCH   4  27
TORSDOF 5
ENDMDL
MODEL 4
REMARK VINA RESULT:      -9.4      3.436      9.550
REMARK  5 active torsions:
REMARK  status: ('A' for Active; 'I' for Inactive)
REMARK    1  A    between atoms: C_4  and  C_5 
REMARK    2  A    between atoms: C_17  and  C_18 
REMARK    3  A    between atoms: C_18  and  N_19 
REMARK       I    between atoms: N_19  and  C_20 
REMARK    4  A    between atoms: C_20  and  C_21 
REMARK    5  A    between atoms: C_21  and  C_22 
ROOT
HETATM    1  C   UNL     1      29.053  45.252  55.657  1.00  0.00     0.048 C 
HETATM    2  C   UNL     1      28.170  45.110  54.452  1.00  0.00    -0.060 A 
HETATM    3  C   UNL     1      28.283  43.986  53.607  1.00  0.00     0.024 A 
HETATM    4  C   UNL     1      27.479  43.829  52.460  1.00  0.00     0.034 A 
HETATM    5  C   UNL     1      26.577  44.851  52.190  1.00  0.00     0.088 A 
HETATM    6  C   UNL     1      26.466  45.969  53.009  1.00  0.00    -0.021 A 
HETATM    7  C   UNL     1      25.502  46.931  52.427  1.00  0.00     0.075 C 
HETATM    8  C   UNL     1      24.864  46.042  51.352  1.00  0.00     0.151 C 
HETATM    9  O   UNL     1      25.757  44.923  51.090  1.00  0.00    -0.342 OA
HETATM   10  C   UNL     1      27.248  46.116  54.141  1.00  0.00     0.017 A 
ENDROOT
BRANCH   8  11
HETATM   11  C   UNL     1      24.625  46.775  50.025  1.00  0.00     0.155 C 
BRANCH  11  12
HETATM   12  N   UNL     1      23.776  47.949  50.108  1.00  0.00    -0.359 N 
HETATM   13  C   UNL     1      23.074  48.426  49.024  1.00  0.00     0.219 C 
HETATM   14  O   UNL     1      23.074  47.873  47.931  1.00  0.00    -0.274 OA
HETATM   15  H   UNL     1      23.804  48.497  50.960  1.00  0.00     0.162 HD
BRANCH  13  16
HETATM   16  C   UNL     1      22.320  49.708  49.323  1.00  0.00     0.128 C 
BRANCH  16  17
HETATM   17  C   UNL     1      21.387  50.112  48.174  1.00  0.00     0.094 C 
HETATM   18  N   UNL     1      20.511  49.009  47.806  1.00  0.00    -0.362 N 
HETATM   19  C   UNL     1      19.303  48.770  48.371  1.00  0.00     0.168 C 
HETATM   20  H   UNL     1      20.898  48.267  47.230  1.00  0.00     0.162 HD
HETATM   21  S   UNL     1      18.486  47.353  48.097  1.00  0.00    -0.041 SA
HETATM   22  N   UNL     1      18.774  49.746  49.150  1.00  0.00    -0.363 N 
HETATM   23  C   UNL     1      19.481  50.947  49.562  1.00  0.00     0.081 C 
HETATM   24  H   UNL     1      17.902  49.504  49.609  1.00  0.00     0.162 HD
HETATM   25  C   UNL     1      18.497  52.088  49.801  1.00  0.00     0.032 C 
HETATM   26  C   UNL     1      20.534  51.334  48.524  1.00  0.00     0.050 C 
ENDBRANCH  16  17
ENDBRANCH  13  16
ENDBRANCH  11  12
ENDBRANCH   8  11
BRANCH   4  27
HETATM   27  C   UNL     1      27.665  42.637  51.620  1.00  0.00     0.112 A 
HETATM   28  S   UNL     1      28.433  41.219  52.224  1.00  0.00    -0.067 SA
HETATM   29  C   UNL     1      28.269  40.460  50.690  1.00  0.00     0.035 A 
HETATM   30  C   UNL     1      27.660  41.352  49.809  1.00  0.00     0.075 A 
HETATM   31  C   UNL     1      28.656  39.170  50.292  1.00  0.00     0.021 A 
HETATM   32  N   UNL     1      27.339  42.588  50.342  1.00  0.00    -0.239 NA
HETATM   33  C   UNL     1      27.429  40.941  48.480  1.00  0.00     0.033 A 
HETATM   34  C   UNL     1      27.808  39.658  48.073  1.00  0.00     0.002 A 
HETATM   35  C   UNL     1      28.414  38.785  48.969  1.00  0.00     0.002 A 
ENDBRANCH   4  27
TORSDOF 5
ENDMDL
MODEL 5
REMARK VINA RESULT:      -9.0      4.805     10.003
REMARK  5 active torsions:
REMARK  status: ('A' for Active; 'I' for Inactive)
REMARK    1  A    between atoms: C_4  and  C_5 
REMARK    2  A    between atoms: C_17  and  C_18 
REMARK    3  A    between atoms: C_18  and  N_19 
REMARK       I    between atoms: N_19  and  C_20 
REMARK    4  A    between atoms: C_20  and  C_21 
REMARK    5  A    between atoms: C_21  and  C_22 
ROOT
HETATM    1  C   UNL     1      25.141  46.689  51.374  1.00  0.00     0.048 C 
HETATM    2  C   UNL     1      25.931  45.493  51.820  1.00  0.00    -0.060 A 
HETATM    3  C   UNL     1      26.783  45.573  52.942  1.00  0.00     0.024 A 
HETATM    4  C   UNL     1      27.550  44.474  53.378  1.00  0.00     0.034 A 
HETATM    5  C   UNL     1      27.438  43.305  52.634  1.00  0.00     0.088 A 
HETATM    6  C   UNL     1      26.611  43.219  51.520  1.00  0.00    -0.021 A 
HETATM    7  C   UNL     1      26.766  41.896  50.873  1.00  0.00     0.075 C 
HETATM    8  C   UNL     1      27.545  41.160  51.971  1.00  0.00     0.151 C 
HETATM    9  O   UNL     1      28.149  42.149  52.850  1.00  0.00    -0.342 OA
HETATM   10  C   UNL     1      25.851  44.296  51.100  1.00  0.00     0.017 A 
ENDROOT
BRANCH   8  11
HETATM   11  C   UNL     1      28.668  40.269  51.422  1.00  0.00     0.155 C 
BRANCH  11  12
HETATM   12  N   UNL     1      28.768  40.216  49.974  1.00  0.00    -0.359 N 
HETATM   13  C   UNL     1      28.512  39.065  49.263  1.00  0.00     0.219 C 
HETATM   14  O   UNL     1      28.139  38.023  49.787  1.00  0.00    -0.274 OA
HETATM   15  H   UNL     1      29.156  41.019  49.495  1.00  0.00     0.162 HD
BRANCH  13  16
HETATM   16  C   UNL     1      28.758  39.223  47.774  1.00  0.00     0.128 C 
BRANCH  16  17
HETATM   17  C   UNL     1      27.552  38.771  46.938  1.00  0.00     0.094 C 
HETATM   18  N   UNL     1      26.314  39.306  47.485  1.00  0.00    -0.362 N 
HETATM   19  C   UNL     1      25.783  40.505  47.146  1.00  0.00     0.168 C 
HETATM   20  H   UNL     1      25.918  38.849  48.302  1.00  0.00     0.162 HD
HETATM   21  S   UNL     1      24.525  41.166  48.001  1.00  0.00    -0.041 SA
HETATM   22  N   UNL     1      26.303  41.135  46.064  1.00  0.00    -0.363 N 
HETATM   23  C   UNL     1      27.495  40.704  45.352  1.00  0.00     0.081 C 
HETATM   24  H   UNL     1      25.927  42.059  45.882  1.00  0.00     0.162 HD
HETATM   25  C   UNL     1      27.430  41.138  43.892  1.00  0.00     0.032 C 
HETATM   26  C   UNL     1      27.676  39.191  45.472  1.00  0.00     0.050 C 
ENDBRANCH  16  17
ENDBRANCH  13  16
ENDBRANCH  11  12
ENDBRANCH   8  11
BRANCH   4  27
HETATM   27  C   UNL     1      28.426  44.638  54.547  1.00  0.00     0.112 A 
HETATM   28  S   UNL     1      28.282  45.993  55.599  1.00  0.00    -0.067 SA
HETATM   29  C   UNL     1      29.607  45.424  56.536  1.00  0.00     0.035 A 
HETATM   30  C   UNL     1      30.089  44.247  55.966  1.00  0.00     0.075 A 
HETATM   31  C   UNL     1      30.182  45.981  57.690  1.00  0.00     0.021 A 
HETATM   32  N   UNL     1      29.424  43.822  54.830  1.00  0.00    -0.239 NA
HETATM   33  C   UNL     1      31.188  43.602  56.570  1.00  0.00     0.033 A 
HETATM   34  C   UNL     1      31.768  44.147  57.721  1.00  0.00     0.002 A 
HETATM   35  C   UNL     1      31.270  45.322  58.272  1.00  0.00     0.002 A 
ENDBRANCH   4  27
TORSDOF 5
ENDMDL
MODEL 6
REMARK VINA RESULT:      -8.9      6.235     10.641
REMARK  5 active torsions:
REMARK  status: ('A' for Active; 'I' for Inactive)
REMARK    1  A    between atoms: C_4  and  C_5 
REMARK    2  A    between atoms: C_17  and  C_18 
REMARK    3  A    between atoms: C_18  and  N_19 
REMARK       I    between atoms: N_19  and  C_20 
REMARK    4  A    between atoms: C_20  and  C_21 
REMARK    5  A    between atoms: C_21  and  C_22 
ROOT
HETATM    1  C   UNL     1      25.020  47.152  51.098  1.00  0.00     0.048 C 
HETATM    2  C   UNL     1      25.695  45.862  51.464  1.00  0.00    -0.060 A 
HETATM    3  C   UNL     1      26.582  45.802  52.559  1.00  0.00     0.024 A 
HETATM    4  C   UNL     1      27.244  44.610  52.920  1.00  0.00     0.034 A 
HETATM    5  C   UNL     1      26.990  43.496  52.129  1.00  0.00     0.088 A 
HETATM    6  C   UNL     1      26.128  43.547  51.040  1.00  0.00    -0.021 A 
HETATM    7  C   UNL     1      26.128  42.248  50.329  1.00  0.00     0.075 C 
HETATM    8  C   UNL     1      26.858  41.385  51.367  1.00  0.00     0.151 C 
HETATM    9  O   UNL     1      27.585  42.264  52.269  1.00  0.00    -0.342 OA
HETATM   10  C   UNL     1      25.471  44.715  50.693  1.00  0.00     0.017 A 
ENDROOT
BRANCH   8  11
HETATM   11  C   UNL     1      27.867  40.413  50.742  1.00  0.00     0.155 C 
BRANCH  11  12
HETATM   12  N   UNL     1      27.327  39.123  50.351  1.00  0.00    -0.359 N 
HETATM   13  C   UNL     1      28.056  38.214  49.617  1.00  0.00     0.219 C 
HETATM   14  O   UNL     1      29.219  38.402  49.284  1.00  0.00    -0.274 OA
HETATM   15  H   UNL     1      26.344  38.947  50.522  1.00  0.00     0.162 HD
BRANCH  13  16
HETATM   16  C   UNL     1      27.263  36.972  49.256  1.00  0.00     0.128 C 
BRANCH  16  17
HETATM   17  C   UNL     1      26.573  37.103  47.892  1.00  0.00     0.094 C 
HETATM   18  N   UNL     1      27.555  37.261  46.828  1.00  0.00    -0.362 N 
HETATM   19  C   UNL     1      28.131  36.233  46.159  1.00  0.00     0.168 C 
HETATM   20  H   UNL     1      27.976  38.177  46.703  1.00  0.00     0.162 HD
HETATM   21  S   UNL     1      29.429  36.475  45.157  1.00  0.00    -0.041 SA
HETATM   22  N   UNL     1      27.588  35.001  46.321  1.00  0.00    -0.363 N 
HETATM   23  C   UNL     1      26.553  34.675  47.288  1.00  0.00     0.081 C 
HETATM   24  H   UNL     1      28.087  34.248  45.860  1.00  0.00     0.162 HD
HETATM   25  C   UNL     1      25.711  33.504  46.793  1.00  0.00     0.032 C 
HETATM   26  C   UNL     1      25.682  35.898  47.577  1.00  0.00     0.050 C 
ENDBRANCH  16  17
ENDBRANCH  13  16
ENDBRANCH  11  12
ENDBRANCH   8  11
BRANCH   4  27
HETATM   27  C   UNL     1      28.165  44.628  54.066  1.00  0.00     0.112 A 
HETATM   28  S   UNL     1      28.119  45.886  55.240  1.00  0.00    -0.067 SA
HETATM   29  C   UNL     1      29.446  45.177  56.072  1.00  0.00     0.035 A 
HETATM   30  C   UNL     1      29.853  44.037  55.382  1.00  0.00     0.075 A 
HETATM   31  C   UNL     1      30.084  45.601  57.249  1.00  0.00     0.021 A 
HETATM   32  N   UNL     1      29.132  43.747  54.237  1.00  0.00    -0.239 NA
HETATM   33  C   UNL     1      30.939  43.291  55.885  1.00  0.00     0.033 A 
HETATM   34  C   UNL     1      31.582  43.703  57.057  1.00  0.00     0.002 A 
HETATM   35  C   UNL     1      31.158  44.844  57.729  1.00  0.00     0.002 A 
ENDBRANCH   4  27
TORSDOF 5
ENDMDL
MODEL 7
REMARK VINA RESULT:      -8.8      4.782      8.424
REMARK  5 active torsions:
REMARK  status: ('A' for Active; 'I' for Inactive)
REMARK    1  A    between atoms: C_4  and  C_5 
REMARK    2  A    between atoms: C_17  and  C_18 
REMARK    3  A    between atoms: C_18  and  N_19 
REMARK       I    between atoms: N_19  and  C_20 
REMARK    4  A    between atoms: C_20  and  C_21 
REMARK    5  A    between atoms: C_21  and  C_22 
ROOT
HETATM    1  C   UNL     1      23.835  49.009  49.200  1.00  0.00     0.048 C 
HETATM    2  C   UNL     1      23.904  47.547  49.530  1.00  0.00    -0.060 A 
HETATM    3  C   UNL     1      24.859  47.062  50.449  1.00  0.00     0.024 A 
HETATM    4  C   UNL     1      24.960  45.693  50.770  1.00  0.00     0.034 A 
HETATM    5  C   UNL     1      24.079  44.837  50.120  1.00  0.00     0.088 A 
HETATM    6  C   UNL     1      23.143  45.302  49.204  1.00  0.00    -0.021 A 
HETATM    7  C   UNL     1      22.413  44.163  48.600  1.00  0.00     0.075 C 
HETATM    8  C   UNL     1      22.855  43.040  49.548  1.00  0.00     0.151 C 
HETATM    9  O   UNL     1      24.061  43.468  50.239  1.00  0.00    -0.342 OA
HETATM   10  C   UNL     1      23.038  46.647  48.898  1.00  0.00     0.017 A 
ENDROOT
BRANCH   8  11
HETATM   11  C   UNL     1      23.167  41.724  48.824  1.00  0.00     0.155 C 
BRANCH  11  12
HETATM   12  N   UNL     1      24.547  41.279  48.910  1.00  0.00    -0.359 N 
HETATM   13  C   UNL     1      25.281  40.944  47.795  1.00  0.00     0.219 C 
HETATM   14  O   UNL     1      24.846  41.040  46.654  1.00  0.00    -0.274 OA
HETATM   15  H   UNL     1      24.930  41.097  49.830  1.00  0.00     0.162 HD
BRANCH  13  16
HETATM   16  C   UNL     1      26.668  40.431  48.132  1.00  0.00     0.128 C 
BRANCH  16  17
HETATM   17  C   UNL     1      26.647  39.422  49.289  1.00  0.00     0.094 C 
HETATM   18  N   UNL     1      26.162  38.126  48.835  1.00  0.00    -0.362 N 
HETATM   19  C   UNL     1      26.950  37.149  48.327  1.00  0.00     0.168 C 
HETATM   20  H   UNL     1      25.160  38.009  48.716  1.00  0.00     0.162 HD
HETATM   21  S   UNL     1      26.303  35.814  47.586  1.00  0.00    -0.041 SA
HETATM   22  N   UNL     1      28.291  37.291  48.470  1.00  0.00    -0.363 N 
HETATM   23  C   UNL     1      28.946  38.490  48.968  1.00  0.00     0.081 C 
HETATM   24  H   UNL     1      28.850  36.575  48.018  1.00  0.00     0.162 HD
HETATM   25  C   UNL     1      30.269  38.135  49.638  1.00  0.00     0.032 C 
HETATM   26  C   UNL     1      28.027  39.245  49.927  1.00  0.00     0.050 C 
ENDBRANCH  16  17
ENDBRANCH  13  16
ENDBRANCH  11  12
ENDBRANCH   8  11
BRANCH   4  27
HETATM   27  C   UNL     1      25.990  45.262  51.726  1.00  0.00     0.112 A 
HETATM   28  S   UNL     1      26.079  45.921  53.314  1.00  0.00    -0.067 SA
HETATM   29  C   UNL     1      27.471  44.968  53.646  1.00  0.00     0.035 A 
HETATM   30  C   UNL     1      27.792  44.227  52.510  1.00  0.00     0.075 A 
HETATM   31  C   UNL     1      28.229  44.885  54.826  1.00  0.00     0.021 A 
HETATM   32  N   UNL     1      26.956  44.416  51.424  1.00  0.00    -0.239 NA
HETATM   33  C   UNL     1      28.911  43.371  52.553  1.00  0.00     0.033 A 
HETATM   34  C   UNL     1      29.673  43.279  53.723  1.00  0.00     0.002 A 
HETATM   35  C   UNL     1      29.334  44.028  54.844  1.00  0.00     0.002 A 
ENDBRANCH   4  27
TORSDOF 5
ENDMDL
MODEL 8
REMARK VINA RESULT:      -8.7     18.243     21.616
REMARK  5 active torsions:
REMARK  status: ('A' for Active; 'I' for Inactive)
REMARK    1  A    between atoms: C_4  and  C_5 
REMARK    2  A    between atoms: C_17  and  C_18 
REMARK    3  A    between atoms: C_18  and  N_19 
REMARK       I    between atoms: N_19  and  C_20 
REMARK    4  A    between atoms: C_20  and  C_21 
REMARK    5  A    between atoms: C_21  and  C_22 
ROOT
HETATM    1  C   UNL     1      38.609  51.982  66.857  1.00  0.00     0.048 C 
HETATM    2  C   UNL     1      38.596  50.546  66.421  1.00  0.00    -0.060 A 
HETATM    3  C   UNL     1      39.796  49.806  66.352  1.00  0.00     0.024 A 
HETATM    4  C   UNL     1      39.821  48.460  65.933  1.00  0.00     0.034 A 
HETATM    5  C   UNL     1      38.601  47.900  65.572  1.00  0.00     0.088 A 
HETATM    6  C   UNL     1      37.415  48.624  65.624  1.00  0.00    -0.021 A 
HETATM    7  C   UNL     1      36.299  47.809  65.092  1.00  0.00     0.075 C 
HETATM    8  C   UNL     1      36.979  46.435  65.046  1.00  0.00     0.151 C 
HETATM    9  O   UNL     1      38.420  46.632  65.073  1.00  0.00    -0.342 OA
HETATM   10  C   UNL     1      37.391  49.942  66.046  1.00  0.00     0.017 A 
ENDROOT
BRANCH   8  11
HETATM   11  C   UNL     1      36.637  45.632  63.784  1.00  0.00     0.155 C 
BRANCH  11  12
HETATM   12  N   UNL     1      36.905  44.208  63.861  1.00  0.00    -0.359 N 
HETATM   13  C   UNL     1      37.894  43.605  63.118  1.00  0.00     0.219 C 
HETATM   14  O   UNL     1      38.648  44.226  62.379  1.00  0.00    -0.274 OA
HETATM   15  H   UNL     1      36.259  43.631  64.387  1.00  0.00     0.162 HD
BRANCH  13  16
HETATM   16  C   UNL     1      37.938  42.099  63.300  1.00  0.00     0.128 C 
BRANCH  16  17
HETATM   17  C   UNL     1      39.332  41.523  63.016  1.00  0.00     0.094 C 
HETATM   18  N   UNL     1      40.362  42.307  63.684  1.00  0.00    -0.362 N 
HETATM   19  C   UNL     1      40.799  42.079  64.946  1.00  0.00     0.168 C 
HETATM   20  H   UNL     1      40.640  43.187  63.259  1.00  0.00     0.162 HD
HETATM   21  S   UNL     1      41.770  43.168  65.733  1.00  0.00    -0.041 SA
HETATM   22  N   UNL     1      40.431  40.914  65.533  1.00  0.00    -0.363 N 
HETATM   23  C   UNL     1      39.467  39.978  64.978  1.00  0.00     0.081 C 
HETATM   24  H   UNL     1      40.719  40.809  66.500  1.00  0.00     0.162 HD
HETATM   25  C   UNL     1      39.768  38.559  65.451  1.00  0.00     0.032 C 
HETATM   26  C   UNL     1      39.453  40.061  63.453  1.00  0.00     0.050 C 
ENDBRANCH  16  17
ENDBRANCH  13  16
ENDBRANCH  11  12
ENDBRANCH   8  11
BRANCH   4  27
HETATM   27  C   UNL     1      41.111  47.759  65.874  1.00  0.00     0.112 A 
HETATM   28  S   UNL     1      42.107  47.583  67.267  1.00  0.00    -0.067 SA
HETATM   29  C   UNL     1      43.299  46.772  66.329  1.00  0.00     0.035 A 
HETATM   30  C   UNL     1      42.867  46.712  65.005  1.00  0.00     0.075 A 
HETATM   31  C   UNL     1      44.530  46.232  66.735  1.00  0.00     0.021 A 
HETATM   32  N   UNL     1      41.635  47.290  64.756  1.00  0.00    -0.239 NA
HETATM   33  C   UNL     1      43.696  46.090  64.049  1.00  0.00     0.033 A 
HETATM   34  C   UNL     1      44.924  45.547  64.441  1.00  0.00     0.002 A 
HETATM   35  C   UNL     1      45.334  45.618  65.768  1.00  0.00     0.002 A 
ENDBRANCH   4  27
TORSDOF 5
ENDMDL
MODEL 9
REMARK VINA RESULT:      -8.6      4.021      9.626
REMARK  5 active torsions:
REMARK  status: ('A' for Active; 'I' for Inactive)
REMARK    1  A    between atoms: C_4  and  C_5 
REMARK    2  A    between atoms: C_17  and  C_18 
REMARK    3  A    between atoms: C_18  and  N_19 
REMARK       I    between atoms: N_19  and  C_20 
REMARK    4  A    between atoms: C_20  and  C_21 
REMARK    5  A    between atoms: C_21  and  C_22 
ROOT
HETATM    1  C   UNL     1      30.775  43.328  55.585  1.00  0.00     0.048 C 
HETATM    2  C   UNL     1      29.554  43.400  54.716  1.00  0.00    -0.060 A 
HETATM    3  C   UNL     1      29.328  42.433  53.713  1.00  0.00     0.024 A 
HETATM    4  C   UNL     1      28.199  42.480  52.870  1.00  0.00     0.034 A 
HETATM    5  C   UNL     1      27.324  43.541  53.065  1.00  0.00     0.088 A 
HETATM    6  C   UNL     1      27.542  44.506  54.041  1.00  0.00    -0.021 A 
HETATM    7  C   UNL     1      26.507  45.562  53.953  1.00  0.00     0.075 C 
HETATM    8  C   UNL     1      25.513  44.873  53.010  1.00  0.00     0.151 C 
HETATM    9  O   UNL     1      26.208  43.806  52.307  1.00  0.00    -0.342 OA
HETATM   10  C   UNL     1      28.646  44.453  54.875  1.00  0.00     0.017 A 
ENDROOT
BRANCH   8  11
HETATM   11  C   UNL     1      24.919  45.821  51.960  1.00  0.00     0.155 C 
BRANCH  11  12
HETATM   12  N   UNL     1      24.264  45.173  50.837  1.00  0.00    -0.359 N 
HETATM   13  C   UNL     1      24.195  45.756  49.592  1.00  0.00     0.219 C 
HETATM   14  O   UNL     1      24.717  46.832  49.327  1.00  0.00    -0.274 OA
HETATM   15  H   UNL     1      23.741  44.325  51.017  1.00  0.00     0.162 HD
BRANCH  13  16
HETATM   16  C   UNL     1      23.396  44.935  48.597  1.00  0.00     0.128 C 
BRANCH  16  17
HETATM   17  C   UNL     1      21.884  45.139  48.762  1.00  0.00     0.094 C 
HETATM   18  N   UNL     1      21.583  46.521  49.109  1.00  0.00    -0.362 N 
HETATM   19  C   UNL     1      21.366  47.507  48.205  1.00  0.00     0.168 C 
HETATM   20  H   UNL     1      21.727  46.812  50.072  1.00  0.00     0.162 HD
HETATM   21  S   UNL     1      21.298  49.099  48.664  1.00  0.00    -0.041 SA
HETATM   22  N   UNL     1      21.181  47.140  46.913  1.00  0.00    -0.363 N 
HETATM   23  C   UNL     1      21.371  45.792  46.403  1.00  0.00     0.081 C 
HETATM   24  H   UNL     1      21.088  47.908  46.257  1.00  0.00     0.162 HD
HETATM   25  C   UNL     1      20.476  45.550  45.191  1.00  0.00     0.032 C 
HETATM   26  C   UNL     1      21.108  44.760  47.498  1.00  0.00     0.050 C 
ENDBRANCH  16  17
ENDBRANCH  13  16
ENDBRANCH  11  12
ENDBRANCH   8  11
BRANCH   4  27
HETATM   27  C   UNL     1      28.040  41.444  51.839  1.00  0.00     0.112 A 
HETATM   28  S   UNL     1      26.588  41.297  50.926  1.00  0.00    -0.067 SA
HETATM   29  C   UNL     1      27.230  39.932  50.100  1.00  0.00     0.035 A 
HETATM   30  C   UNL     1      28.505  39.663  50.596  1.00  0.00     0.075 A 
HETATM   31  C   UNL     1      26.647  39.152  49.088  1.00  0.00     0.021 A 
HETATM   32  N   UNL     1      28.945  40.516  51.593  1.00  0.00    -0.239 NA
HETATM   33  C   UNL     1      29.224  38.574  50.063  1.00  0.00     0.033 A 
HETATM   34  C   UNL     1      28.654  37.790  49.054  1.00  0.00     0.002 A 
HETATM   35  C   UNL     1      27.380  38.077  48.574  1.00  0.00     0.002 A 
ENDBRANCH   4  27
TORSDOF 5
ENDMDL
MODEL 10
REMARK VINA RESULT:      -8.6      3.525      9.785
REMARK  5 active torsions:
REMARK  status: ('A' for Active; 'I' for Inactive)
REMARK    1  A    between atoms: C_4  and  C_5 
REMARK    2  A    between atoms: C_17  and  C_18 
REMARK    3  A    between atoms: C_18  and  N_19 
REMARK       I    between atoms: N_19  and  C_20 
REMARK    4  A    between atoms: C_20  and  C_21 
REMARK    5  A    between atoms: C_21  and  C_22 
ROOT
HETATM    1  C   UNL     1      28.559  38.569  49.566  1.00  0.00     0.048 C 
HETATM    2  C   UNL     1      27.760  39.787  49.929  1.00  0.00    -0.060 A 
HETATM    3  C   UNL     1      28.205  40.663  50.941  1.00  0.00     0.024 A 
HETATM    4  C   UNL     1      27.471  41.807  51.316  1.00  0.00     0.034 A 
HETATM    5  C   UNL     1      26.272  42.021  50.647  1.00  0.00     0.088 A 
HETATM    6  C   UNL     1      25.817  41.158  49.657  1.00  0.00    -0.021 A 
HETATM    7  C   UNL     1      24.474  41.577  49.194  1.00  0.00     0.075 C 
HETATM    8  C   UNL     1      24.402  42.969  49.835  1.00  0.00     0.151 C 
HETATM    9  O   UNL     1      25.380  43.033  50.911  1.00  0.00    -0.342 OA
HETATM   10  C   UNL     1      26.544  40.041  49.283  1.00  0.00     0.017 A 
ENDROOT
BRANCH   8  11
HETATM   11  C   UNL     1      23.025  43.289  50.431  1.00  0.00     0.155 C 
BRANCH  11  12
HETATM   12  N   UNL     1      22.406  44.510  49.946  1.00  0.00    -0.359 N 
HETATM   13  C   UNL     1      21.733  44.565  48.746  1.00  0.00     0.219 C 
HETATM   14  O   UNL     1      21.565  43.588  48.027  1.00  0.00    -0.274 OA
HETATM   15  H   UNL     1      22.586  45.368  50.453  1.00  0.00     0.162 HD
BRANCH  13  16
HETATM   16  C   UNL     1      21.241  45.960  48.407  1.00  0.00     0.128 C 
BRANCH  16  17
HETATM   17  C   UNL     1      19.714  46.076  48.514  1.00  0.00     0.094 C 
HETATM   18  N   UNL     1      19.339  47.001  49.574  1.00  0.00    -0.362 N 
HETATM   19  C   UNL     1      19.179  48.336  49.404  1.00  0.00     0.168 C 
HETATM   20  H   UNL     1      19.380  46.668  50.533  1.00  0.00     0.162 HD
HETATM   21  S   UNL     1      19.018  49.358  50.699  1.00  0.00    -0.041 SA
HETATM   22  N   UNL     1      19.130  48.801  48.131  1.00  0.00    -0.363 N 
HETATM   23  C   UNL     1      19.410  48.003  46.949  1.00  0.00     0.081 C 
HETATM   24  H   UNL     1      19.077  49.810  48.044  1.00  0.00     0.162 HD
HETATM   25  C   UNL     1      18.643  48.545  45.746  1.00  0.00     0.032 C 
HETATM   26  C   UNL     1      19.075  46.533  47.200  1.00  0.00     0.050 C 
ENDBRANCH  16  17
ENDBRANCH  13  16
ENDBRANCH  11  12
ENDBRANCH   8  11
BRANCH   4  27
HETATM   27  C   UNL     1      27.993  42.664  52.390  1.00  0.00     0.112 A 
HETATM   28  S   UNL     1      29.428  42.260  53.250  1.00  0.00    -0.067 SA
HETATM   29  C   UNL     1      29.245  43.656  54.238  1.00  0.00     0.035 A 
HETATM   30  C   UNL     1      28.083  44.326  53.860  1.00  0.00     0.075 A 
HETATM   31  C   UNL     1      30.069  44.122  55.276  1.00  0.00     0.021 A 
HETATM   32  N   UNL     1      27.373  43.745  52.825  1.00  0.00    -0.239 NA
HETATM   33  C   UNL     1      27.729  45.507  54.545  1.00  0.00     0.033 A 
HETATM   34  C   UNL     1      28.542  45.982  55.580  1.00  0.00     0.002 A 
HETATM   35  C   UNL     1      29.697  45.296  55.939  1.00  0.00     0.002 A 
ENDBRANCH   4  27
TORSDOF 5
ENDMDL
