MODEL 1
REMARK VINA RESULT:      -9.7      0.000      0.000
REMARK  8 active torsions:
REMARK  status: ('A' for Active; 'I' for Inactive)
REMARK    1  A    between atoms: C_4  and  N_5 
REMARK    2  A    between atoms: N_5  and  C_6 
REMARK    3  A    between atoms: C_8  and  N_9 
REMARK    4  A    between atoms: N_12  and  C_14 
REMARK    5  A    between atoms: C_14  and  C_15 
REMARK       I    between atoms: C_15  and  N_16 
REMARK    6  A    between atoms: N_16  and  C_17 
REMARK    7  A    between atoms: C_26  and  N_27 
REMARK    8  A    between atoms: N_27  and  C_28 
ROOT
HETATM    1  C   UNL     1      25.745  45.441  50.988  1.00  0.00     0.758 A 
HETATM    2  N   UNL     1      25.701  44.196  50.524  1.00  0.00     0.131 NA
HETATM    3  C   UNL     1      26.187  43.257  51.318  1.00  0.00     0.756 A 
HETATM    4  N   UNL     1      26.782  43.515  52.474  1.00  0.00     0.131 NA
HETATM    5  C   UNL     1      26.780  44.783  52.876  1.00  0.00     0.758 A 
HETATM    6  N   UNL     1      26.257  45.768  52.163  1.00  0.00     0.131 NA
ENDROOT
BRANCH   3   7
HETATM    7  N   UNL     1      26.029  41.920  50.956  1.00  0.00    -0.210 N 
HETATM    8  C   UNL     1      26.891  40.977  51.683  1.00  0.00     0.169 C 
HETATM    9  C   UNL     1      28.229  40.756  50.935  1.00  0.00     0.256 C 
HETATM   10  N   UNL     1      27.934  40.342  49.492  1.00  0.00    -0.060 N 
HETATM   11  H   UNL     1      27.306  39.531  49.550  1.00  0.00     0.280 HD
HETATM   12  C   UNL     1      27.140  41.442  48.777  1.00  0.00     0.256 C 
HETATM   13  C   UNL     1      25.808  41.654  49.526  1.00  0.00     0.169 C 
BRANCH  10  14
HETATM   14  C   UNL     1      29.153  39.843  48.713  1.00  0.00     0.337 C 
BRANCH  14  15
HETATM   15  C   UNL     1      29.526  38.365  48.897  1.00  0.00     0.249 C 
HETATM   16  N   UNL     1      28.769  37.395  48.306  1.00  0.00    -0.304 N 
HETATM   17  H   UNL     1      29.045  36.431  48.448  1.00  0.00     0.171 HD
HETATM   18  O   UNL     1      30.504  38.033  49.572  1.00  0.00    -0.271 OA
BRANCH  16  19
HETATM   19  C   UNL     1      27.666  37.628  47.538  1.00  0.00     0.172 A 
HETATM   20  S   UNL     1      27.929  37.578  45.858  1.00  0.00    -0.062 SA
HETATM   21  C   UNL     1      26.267  37.931  45.613  1.00  0.00     0.072 A 
HETATM   22  C   UNL     1      25.638  38.059  46.834  1.00  0.00     0.126 A 
HETATM   23  N   UNL     1      26.448  37.883  47.946  1.00  0.00    -0.236 NA
ENDBRANCH  16  19
ENDBRANCH  14  15
ENDBRANCH  10  14
ENDBRANCH   3   7
BRANCH   1  24
HETATM   24  N   UNL     1      25.165  46.486  50.274  1.00  0.00    -0.187 N 
HETATM   25  H   UNL     1      24.171  46.525  50.463  1.00  0.00     0.184 HD
BRANCH  24  26
HETATM   26  C   UNL     1      25.711  47.638  49.695  1.00  0.00     0.049 A 
HETATM   27  C   UNL     1      24.842  48.585  49.134  1.00  0.00     0.030 A 
HETATM   28  C   UNL     1      25.331  49.739  48.520  1.00  0.00     0.002 A 
HETATM   29  C   UNL     1      26.703  49.965  48.456  1.00  0.00     0.000 A 
HETATM   30  C   UNL     1      27.582  49.029  48.995  1.00  0.00     0.002 A 
HETATM   31  C   UNL     1      27.088  47.868  49.597  1.00  0.00     0.030 A 
ENDBRANCH  24  26
ENDBRANCH   1  24
BRANCH   5  32
HETATM   32  N   UNL     1      27.326  45.008  54.138  1.00  0.00    -0.187 N 
HETATM   33  H   UNL     1      26.719  45.605  54.678  1.00  0.00     0.184 HD
BRANCH  32  34
HETATM   34  C   UNL     1      28.552  44.673  54.725  1.00  0.00     0.049 A 
HETATM   35  C   UNL     1      29.115  45.560  55.657  1.00  0.00     0.030 A 
HETATM   36  C   UNL     1      30.353  45.300  56.255  1.00  0.00     0.002 A 
HETATM   37  C   UNL     1      31.051  44.142  55.929  1.00  0.00     0.000 A 
HETATM   38  C   UNL     1      30.512  43.249  55.008  1.00  0.00     0.002 A 
HETATM   39  C   UNL     1      29.275  43.517  54.410  1.00  0.00     0.030 A 
ENDBRANCH  32  34
ENDBRANCH   5  32
TORSDOF 8
ENDMDL
MODEL 2
REMARK VINA RESULT:      -9.6      1.448      2.093
REMARK  8 active torsions:
REMARK  status: ('A' for Active; 'I' for Inactive)
REMARK    1  A    between atoms: C_4  and  N_5 
REMARK    2  A    between atoms: N_5  and  C_6 
REMARK    3  A    between atoms: C_8  and  N_9 
REMARK    4  A    between atoms: N_12  and  C_14 
REMARK    5  A    between atoms: C_14  and  C_15 
REMARK       I    between atoms: C_15  and  N_16 
REMARK    6  A    between atoms: N_16  and  C_17 
REMARK    7  A    between atoms: C_26  and  N_27 
REMARK    8  A    between atoms: N_27  and  C_28 
ROOT
HETATM    1  C   UNL     1      25.510  45.739  51.270  1.00  0.00     0.758 A 
HETATM    2  N   UNL     1      25.453  44.530  50.720  1.00  0.00     0.131 NA
HETATM    3  C   UNL     1      25.977  43.540  51.423  1.00  0.00     0.756 A 
HETATM    4  N   UNL     1      26.620  43.720  52.568  1.00  0.00     0.131 NA
HETATM    5  C   UNL     1      26.628  44.955  53.060  1.00  0.00     0.758 A 
HETATM    6  N   UNL     1      26.070  45.985  52.443  1.00  0.00     0.131 NA
ENDROOT
BRANCH   3   7
HETATM    7  N   UNL     1      25.811  42.232  50.973  1.00  0.00    -0.210 N 
HETATM    8  C   UNL     1      26.878  41.301  51.369  1.00  0.00     0.169 C 
HETATM    9  C   UNL     1      28.000  41.254  50.303  1.00  0.00     0.256 C 
HETATM   10  N   UNL     1      27.382  40.945  48.939  1.00  0.00    -0.060 N 
HETATM   11  H   UNL     1      26.835  40.084  49.061  1.00  0.00     0.280 HD
HETATM   12  C   UNL     1      26.375  42.035  48.553  1.00  0.00     0.256 C 
HETATM   13  C   UNL     1      25.260  42.073  49.618  1.00  0.00     0.169 C 
BRANCH  10  14
HETATM   14  C   UNL     1      28.398  40.615  47.842  1.00  0.00     0.337 C 
BRANCH  14  15
HETATM   15  C   UNL     1      28.133  39.344  47.023  1.00  0.00     0.249 C 
HETATM   16  N   UNL     1      28.515  38.128  47.515  1.00  0.00    -0.304 N 
HETATM   17  H   UNL     1      28.323  37.311  46.948  1.00  0.00     0.171 HD
HETATM   18  O   UNL     1      27.577  39.396  45.923  1.00  0.00    -0.271 OA
BRANCH  16  19
HETATM   19  C   UNL     1      29.137  37.933  48.713  1.00  0.00     0.172 A 
HETATM   20  S   UNL     1      28.144  37.326  49.954  1.00  0.00    -0.062 SA
HETATM   21  C   UNL     1      29.494  37.356  51.013  1.00  0.00     0.072 A 
HETATM   22  C   UNL     1      30.601  37.827  50.337  1.00  0.00     0.126 A 
HETATM   23  N   UNL     1      30.392  38.160  49.007  1.00  0.00    -0.236 NA
ENDBRANCH  16  19
ENDBRANCH  14  15
ENDBRANCH  10  14
ENDBRANCH   3   7
BRANCH   1  24
HETATM   24  N   UNL     1      24.895  46.828  50.659  1.00  0.00    -0.187 N 
HETATM   25  H   UNL     1      24.007  47.020  51.106  1.00  0.00     0.184 HD
BRANCH  24  26
HETATM   26  C   UNL     1      25.402  47.861  49.862  1.00  0.00     0.049 A 
HETATM   27  C   UNL     1      24.500  48.664  49.149  1.00  0.00     0.030 A 
HETATM   28  C   UNL     1      24.950  49.693  48.319  1.00  0.00     0.002 A 
HETATM   29  C   UNL     1      26.314  49.934  48.187  1.00  0.00     0.000 A 
HETATM   30  C   UNL     1      27.225  49.137  48.876  1.00  0.00     0.002 A 
HETATM   31  C   UNL     1      26.770  48.099  49.695  1.00  0.00     0.030 A 
ENDBRANCH  24  26
ENDBRANCH   1  24
BRANCH   5  32
HETATM   32  N   UNL     1      27.227  45.094  54.310  1.00  0.00    -0.187 N 
HETATM   33  H   UNL     1      26.649  45.663  54.912  1.00  0.00     0.184 HD
BRANCH  32  34
HETATM   34  C   UNL     1      28.470  44.708  54.825  1.00  0.00     0.049 A 
HETATM   35  C   UNL     1      29.078  45.524  55.794  1.00  0.00     0.030 A 
HETATM   36  C   UNL     1      30.335  45.213  56.324  1.00  0.00     0.002 A 
HETATM   37  C   UNL     1      31.007  44.074  55.894  1.00  0.00     0.000 A 
HETATM   38  C   UNL     1      30.423  43.251  54.936  1.00  0.00     0.002 A 
HETATM   39  C   UNL     1      29.168  43.570  54.405  1.00  0.00     0.030 A 
ENDBRANCH  32  34
ENDBRANCH   5  32
TORSDOF 8
ENDMDL
MODEL 3
REMARK VINA RESULT:      -9.4      1.504      5.636
REMARK  8 active torsions:
REMARK  status: ('A' for Active; 'I' for Inactive)
REMARK    1  A    between atoms: C_4  and  N_5 
REMARK    2  A    between atoms: N_5  and  C_6 
REMARK    3  A    between atoms: C_8  and  N_9 
REMARK    4  A    between atoms: N_12  and  C_14 
REMARK    5  A    between atoms: C_14  and  C_15 
REMARK       I    between atoms: C_15  and  N_16 
REMARK    6  A    between atoms: N_16  and  C_17 
REMARK    7  A    between atoms: C_26  and  N_27 
REMARK    8  A    between atoms: N_27  and  C_28 
ROOT
HETATM    1  C   UNL     1      26.421  44.916  52.924  1.00  0.00     0.758 A 
HETATM    2  N   UNL     1      26.226  43.653  52.557  1.00  0.00     0.131 NA
HETATM    3  C   UNL     1      25.564  43.465  51.428  1.00  0.00     0.756 A 
HETATM    4  N   UNL     1      25.024  44.452  50.728  1.00  0.00     0.131 NA
HETATM    5  C   UNL     1      25.268  45.688  51.152  1.00  0.00     0.758 A 
HETATM    6  N   UNL     1      25.975  45.955  52.238  1.00  0.00     0.131 NA
ENDROOT
BRANCH   3   7
HETATM    7  N   UNL     1      25.463  42.174  50.912  1.00  0.00    -0.210 N 
HETATM    8  C   UNL     1      26.570  41.277  51.271  1.00  0.00     0.169 C 
HETATM    9  C   UNL     1      27.699  41.336  50.213  1.00  0.00     0.256 C 
HETATM   10  N   UNL     1      27.104  41.066  48.830  1.00  0.00    -0.060 N 
HETATM   11  H   UNL     1      26.598  40.175  48.905  1.00  0.00     0.280 HD
HETATM   12  C   UNL     1      26.049  42.125  48.491  1.00  0.00     0.256 C 
HETATM   13  C   UNL     1      24.927  42.058  49.547  1.00  0.00     0.169 C 
BRANCH  10  14
HETATM   14  C   UNL     1      28.140  40.839  47.726  1.00  0.00     0.337 C 
BRANCH  14  15
HETATM   15  C   UNL     1      27.909  39.631  46.807  1.00  0.00     0.249 C 
HETATM   16  N   UNL     1      28.272  38.382  47.224  1.00  0.00    -0.304 N 
HETATM   17  H   UNL     1      28.103  37.608  46.593  1.00  0.00     0.171 HD
HETATM   18  O   UNL     1      27.397  39.764  45.693  1.00  0.00    -0.271 OA
BRANCH  16  19
HETATM   19  C   UNL     1      28.846  38.099  48.429  1.00  0.00     0.172 A 
HETATM   20  S   UNL     1      27.797  37.434  49.593  1.00  0.00    -0.062 SA
HETATM   21  C   UNL     1      29.108  37.371  50.699  1.00  0.00     0.072 A 
HETATM   22  C   UNL     1      30.246  37.862  50.094  1.00  0.00     0.126 A 
HETATM   23  N   UNL     1      30.093  38.282  48.782  1.00  0.00    -0.236 NA
ENDBRANCH  16  19
ENDBRANCH  14  15
ENDBRANCH  10  14
ENDBRANCH   3   7
BRANCH   1  24
HETATM   24  N   UNL     1      27.195  45.220  54.040  1.00  0.00    -0.187 N 
HETATM   25  H   UNL     1      26.634  45.704  54.730  1.00  0.00     0.184 HD
BRANCH  24  26
HETATM   26  C   UNL     1      28.401  44.689  54.513  1.00  0.00     0.049 A 
HETATM   27  C   UNL     1      29.065  45.353  55.556  1.00  0.00     0.030 A 
HETATM   28  C   UNL     1      30.283  44.883  56.050  1.00  0.00     0.002 A 
HETATM   29  C   UNL     1      30.860  43.740  55.506  1.00  0.00     0.000 A 
HETATM   30  C   UNL     1      30.223  43.076  54.461  1.00  0.00     0.002 A 
HETATM   31  C   UNL     1      29.010  43.558  53.960  1.00  0.00     0.030 A 
ENDBRANCH  24  26
ENDBRANCH   1  24
BRANCH   5  32
HETATM   32  N   UNL     1      24.768  46.705  50.341  1.00  0.00    -0.187 N 
HETATM   33  H   UNL     1      23.786  46.558  50.162  1.00  0.00     0.184 HD
BRANCH  32  34
HETATM   34  C   UNL     1      25.369  47.775  49.667  1.00  0.00     0.049 A 
HETATM   35  C   UNL     1      26.772  47.843  49.630  1.00  0.00     0.030 A 
HETATM   36  C   UNL     1      27.434  48.904  49.002  1.00  0.00     0.002 A 
HETATM   37  C   UNL     1      26.701  49.918  48.397  1.00  0.00     0.000 A 
HETATM   38  C   UNL     1      25.311  49.871  48.421  1.00  0.00     0.002 A 
HETATM   39  C   UNL     1      24.653  48.810  49.054  1.00  0.00     0.030 A 
ENDBRANCH  32  34
ENDBRANCH   5  32
TORSDOF 8
ENDMDL
MODEL 4
REMARK VINA RESULT:      -9.3      3.413      8.466
REMARK  8 active torsions:
REMARK  status: ('A' for Active; 'I' for Inactive)
REMARK    1  A    between atoms: C_4  and  N_5 
REMARK    2  A    between atoms: N_5  and  C_6 
REMARK    3  A    between atoms: C_8  and  N_9 
REMARK    4  A    between atoms: N_12  and  C_14 
REMARK    5  A    between atoms: C_14  and  C_15 
REMARK       I    between atoms: C_15  and  N_16 
REMARK    6  A    between atoms: N_16  and  C_17 
REMARK    7  A    between atoms: C_26  and  N_27 
REMARK    8  A    between atoms: N_27  and  C_28 
ROOT
HETATM    1  C   UNL     1      28.195  41.878  52.721  1.00  0.00     0.758 A 
HETATM    2  N   UNL     1      27.225  42.611  52.183  1.00  0.00     0.131 NA
HETATM    3  C   UNL     1      26.825  42.258  50.973  1.00  0.00     0.756 A 
HETATM    4  N   UNL     1      27.402  41.297  50.266  1.00  0.00     0.131 NA
HETATM    5  C   UNL     1      28.360  40.603  50.873  1.00  0.00     0.758 A 
HETATM    6  N   UNL     1      28.770  40.858  52.106  1.00  0.00     0.131 NA
ENDROOT
BRANCH   3   7
HETATM    7  N   UNL     1      25.711  42.887  50.421  1.00  0.00    -0.210 N 
HETATM    8  C   UNL     1      26.000  43.767  49.280  1.00  0.00     0.169 C 
HETATM    9  C   UNL     1      26.268  45.218  49.750  1.00  0.00     0.256 C 
HETATM   10  N   UNL     1      25.097  45.688  50.615  1.00  0.00    -0.060 N 
HETATM   11  H   UNL     1      24.250  45.541  50.055  1.00  0.00     0.280 HD
HETATM   12  C   UNL     1      24.952  44.785  51.846  1.00  0.00     0.256 C 
HETATM   13  C   UNL     1      24.683  43.343  51.369  1.00  0.00     0.169 C 
BRANCH  10  14
HETATM   14  C   UNL     1      25.105  47.185  50.935  1.00  0.00     0.337 C 
BRANCH  14  15
HETATM   15  C   UNL     1      25.633  48.118  49.835  1.00  0.00     0.249 C 
HETATM   16  N   UNL     1      24.776  48.608  48.892  1.00  0.00    -0.304 N 
HETATM   17  H   UNL     1      25.159  49.221  48.183  1.00  0.00     0.171 HD
HETATM   18  O   UNL     1      26.824  48.437  49.786  1.00  0.00    -0.271 OA
BRANCH  16  19
HETATM   19  C   UNL     1      23.441  48.332  48.834  1.00  0.00     0.172 A 
HETATM   20  S   UNL     1      22.416  49.621  49.261  1.00  0.00    -0.062 SA
HETATM   21  C   UNL     1      21.062  48.605  48.974  1.00  0.00     0.072 A 
HETATM   22  C   UNL     1      21.498  47.359  48.573  1.00  0.00     0.126 A 
HETATM   23  N   UNL     1      22.873  47.203  48.492  1.00  0.00    -0.236 NA
ENDBRANCH  16  19
ENDBRANCH  14  15
ENDBRANCH  10  14
ENDBRANCH   3   7
BRANCH   1  24
HETATM   24  N   UNL     1      28.613  42.103  54.029  1.00  0.00    -0.187 N 
HETATM   25  H   UNL     1      28.799  41.221  54.490  1.00  0.00     0.184 HD
BRANCH  24  26
HETATM   26  C   UNL     1      29.152  43.233  54.657  1.00  0.00     0.049 A 
HETATM   27  C   UNL     1      30.410  43.126  55.267  1.00  0.00     0.030 A 
HETATM   28  C   UNL     1      30.985  44.213  55.930  1.00  0.00     0.002 A 
HETATM   29  C   UNL     1      30.306  45.426  55.994  1.00  0.00     0.000 A 
HETATM   30  C   UNL     1      29.050  45.546  55.407  1.00  0.00     0.002 A 
HETATM   31  C   UNL     1      28.472  44.451  54.756  1.00  0.00     0.030 A 
ENDBRANCH  24  26
ENDBRANCH   1  24
BRANCH   5  32
HETATM   32  N   UNL     1      28.880  39.538  50.140  1.00  0.00    -0.187 N 
HETATM   33  H   UNL     1      29.888  39.565  50.155  1.00  0.00     0.184 HD
BRANCH  32  34
HETATM   34  C   UNL     1      28.295  38.556  49.332  1.00  0.00     0.049 A 
HETATM   35  C   UNL     1      28.850  38.311  48.065  1.00  0.00     0.030 A 
HETATM   36  C   UNL     1      28.293  37.366  47.196  1.00  0.00     0.002 A 
HETATM   37  C   UNL     1      27.168  36.647  47.582  1.00  0.00     0.000 A 
HETATM   38  C   UNL     1      26.602  36.873  48.833  1.00  0.00     0.002 A 
HETATM   39  C   UNL     1      27.160  37.823  49.696  1.00  0.00     0.030 A 
ENDBRANCH  32  34
ENDBRANCH   5  32
TORSDOF 8
ENDMDL
MODEL 5
REMARK VINA RESULT:      -9.3      0.366      5.185
REMARK  8 active torsions:
REMARK  status: ('A' for Active; 'I' for Inactive)
REMARK    1  A    between atoms: C_4  and  N_5 
REMARK    2  A    between atoms: N_5  and  C_6 
REMARK    3  A    between atoms: C_8  and  N_9 
REMARK    4  A    between atoms: N_12  and  C_14 
REMARK    5  A    between atoms: C_14  and  C_15 
REMARK       I    between atoms: C_15  and  N_16 
REMARK    6  A    between atoms: N_16  and  C_17 
REMARK    7  A    between atoms: C_26  and  N_27 
REMARK    8  A    between atoms: N_27  and  C_28 
ROOT
HETATM    1  C   UNL     1      26.489  44.540  52.700  1.00  0.00     0.758 A 
HETATM    2  N   UNL     1      26.304  43.278  52.325  1.00  0.00     0.131 NA
HETATM    3  C   UNL     1      25.759  43.093  51.134  1.00  0.00     0.756 A 
HETATM    4  N   UNL     1      25.318  44.085  50.373  1.00  0.00     0.131 NA
HETATM    5  C   UNL     1      25.545  45.319  50.810  1.00  0.00     0.758 A 
HETATM    6  N   UNL     1      26.141  45.582  51.963  1.00  0.00     0.131 NA
ENDROOT
BRANCH   3   7
HETATM    7  N   UNL     1      25.682  41.800  50.621  1.00  0.00    -0.210 N 
HETATM    8  C   UNL     1      26.399  40.782  51.401  1.00  0.00     0.169 C 
HETATM    9  C   UNL     1      27.855  40.620  50.898  1.00  0.00     0.256 C 
HETATM   10  N   UNL     1      27.837  40.351  49.392  1.00  0.00    -0.060 N 
HETATM   11  H   UNL     1      27.216  39.545  49.253  1.00  0.00     0.280 HD
HETATM   12  C   UNL     1      27.183  41.522  48.652  1.00  0.00     0.256 C 
HETATM   13  C   UNL     1      25.733  41.675  49.156  1.00  0.00     0.169 C 
BRANCH  10  14
HETATM   14  C   UNL     1      29.185  39.916  48.809  1.00  0.00     0.337 C 
BRANCH  14  15
HETATM   15  C   UNL     1      29.542  38.429  48.944  1.00  0.00     0.249 C 
HETATM   16  N   UNL     1      28.780  37.488  48.312  1.00  0.00    -0.304 N 
HETATM   17  H   UNL     1      29.046  36.517  48.422  1.00  0.00     0.171 HD
HETATM   18  O   UNL     1      30.511  38.063  49.614  1.00  0.00    -0.271 OA
BRANCH  16  19
HETATM   19  C   UNL     1      27.686  37.759  47.544  1.00  0.00     0.172 A 
HETATM   20  S   UNL     1      27.984  37.872  45.873  1.00  0.00    -0.062 SA
HETATM   21  C   UNL     1      26.317  38.198  45.624  1.00  0.00     0.072 A 
HETATM   22  C   UNL     1      25.661  38.195  46.837  1.00  0.00     0.126 A 
HETATM   23  N   UNL     1      26.453  37.941  47.946  1.00  0.00    -0.236 NA
ENDBRANCH  16  19
ENDBRANCH  14  15
ENDBRANCH  10  14
ENDBRANCH   3   7
BRANCH   1  24
HETATM   24  N   UNL     1      27.149  44.839  53.888  1.00  0.00    -0.187 N 
HETATM   25  H   UNL     1      26.488  45.174  54.577  1.00  0.00     0.184 HD
BRANCH  24  26
HETATM   26  C   UNL     1      28.390  44.434  54.394  1.00  0.00     0.049 A 
HETATM   27  C   UNL     1      28.964  45.174  55.438  1.00  0.00     0.030 A 
HETATM   28  C   UNL     1      30.211  44.832  55.964  1.00  0.00     0.002 A 
HETATM   29  C   UNL     1      30.907  43.741  55.452  1.00  0.00     0.000 A 
HETATM   30  C   UNL     1      30.359  43.003  54.406  1.00  0.00     0.002 A 
HETATM   31  C   UNL     1      29.116  43.358  53.873  1.00  0.00     0.030 A 
ENDBRANCH  24  26
ENDBRANCH   1  24
BRANCH   5  32
HETATM   32  N   UNL     1      25.157  46.339  49.943  1.00  0.00    -0.187 N 
HETATM   33  H   UNL     1      24.294  46.094  49.482  1.00  0.00     0.184 HD
BRANCH  32  34
HETATM   34  C   UNL     1      25.769  47.527  49.528  1.00  0.00     0.049 A 
HETATM   35  C   UNL     1      24.956  48.578  49.071  1.00  0.00     0.030 A 
HETATM   36  C   UNL     1      25.508  49.779  48.610  1.00  0.00     0.002 A 
HETATM   37  C   UNL     1      26.887  49.950  48.600  1.00  0.00     0.000 A 
HETATM   38  C   UNL     1      27.712  48.922  49.049  1.00  0.00     0.002 A 
HETATM   39  C   UNL     1      27.156  47.721  49.504  1.00  0.00     0.030 A 
ENDBRANCH  32  34
ENDBRANCH   5  32
TORSDOF 8
ENDMDL
MODEL 6
REMARK VINA RESULT:      -9.2      3.418      8.061
REMARK  8 active torsions:
REMARK  status: ('A' for Active; 'I' for Inactive)
REMARK    1  A    between atoms: C_4  and  N_5 
REMARK    2  A    between atoms: N_5  and  C_6 
REMARK    3  A    between atoms: C_8  and  N_9 
REMARK    4  A    between atoms: N_12  and  C_14 
REMARK    5  A    between atoms: C_14  and  C_15 
REMARK       I    between atoms: C_15  and  N_16 
REMARK    6  A    between atoms: N_16  and  C_17 
REMARK    7  A    between atoms: C_26  and  N_27 
REMARK    8  A    between atoms: N_27  and  C_28 
ROOT
HETATM    1  C   UNL     1      29.482  42.865  53.178  1.00  0.00     0.758 A 
HETATM    2  N   UNL     1      28.879  43.950  52.702  1.00  0.00     0.131 NA
HETATM    3  C   UNL     1      27.927  43.747  51.807  1.00  0.00     0.756 A 
HETATM    4  N   UNL     1      27.632  42.553  51.315  1.00  0.00     0.131 NA
HETATM    5  C   UNL     1      28.270  41.515  51.845  1.00  0.00     0.758 A 
HETATM    6  N   UNL     1      29.191  41.634  52.789  1.00  0.00     0.131 NA
ENDROOT
BRANCH   3   7
HETATM    7  N   UNL     1      27.155  44.829  51.387  1.00  0.00    -0.210 N 
HETATM    8  C   UNL     1      26.039  45.175  52.278  1.00  0.00     0.169 C 
HETATM    9  C   UNL     1      24.748  44.424  51.870  1.00  0.00     0.256 C 
HETATM   10  N   UNL     1      24.464  44.685  50.389  1.00  0.00    -0.060 N 
HETATM   11  H   UNL     1      24.451  45.705  50.275  1.00  0.00     0.280 HD
HETATM   12  C   UNL     1      25.628  44.178  49.529  1.00  0.00     0.256 C 
HETATM   13  C   UNL     1      26.909  44.932  49.941  1.00  0.00     0.169 C 
BRANCH  10  14
HETATM   14  C   UNL     1      23.086  44.217  49.915  1.00  0.00     0.337 C 
BRANCH  14  15
HETATM   15  C   UNL     1      22.864  44.168  48.396  1.00  0.00     0.249 C 
HETATM   16  N   UNL     1      22.589  45.317  47.712  1.00  0.00    -0.304 N 
HETATM   17  H   UNL     1      22.450  45.247  46.712  1.00  0.00     0.171 HD
HETATM   18  O   UNL     1      22.932  43.104  47.775  1.00  0.00    -0.271 OA
BRANCH  16  19
HETATM   19  C   UNL     1      22.486  46.554  48.278  1.00  0.00     0.172 A 
HETATM   20  S   UNL     1      20.917  47.213  48.298  1.00  0.00    -0.062 SA
HETATM   21  C   UNL     1      21.542  48.612  49.071  1.00  0.00     0.072 A 
HETATM   22  C   UNL     1      22.901  48.468  49.256  1.00  0.00     0.126 A 
HETATM   23  N   UNL     1      23.445  47.278  48.797  1.00  0.00    -0.236 NA
ENDBRANCH  16  19
ENDBRANCH  14  15
ENDBRANCH  10  14
ENDBRANCH   3   7
BRANCH   1  24
HETATM   24  N   UNL     1      30.423  42.965  54.198  1.00  0.00    -0.187 N 
HETATM   25  H   UNL     1      31.318  42.613  53.880  1.00  0.00     0.184 HD
BRANCH  24  26
HETATM   26  C   UNL     1      30.465  43.748  55.358  1.00  0.00     0.049 A 
HETATM   27  C   UNL     1      31.269  43.326  56.426  1.00  0.00     0.030 A 
HETATM   28  C   UNL     1      31.329  44.053  57.616  1.00  0.00     0.002 A 
HETATM   29  C   UNL     1      30.581  45.218  57.757  1.00  0.00     0.000 A 
HETATM   30  C   UNL     1      29.765  45.645  56.713  1.00  0.00     0.002 A 
HETATM   31  C   UNL     1      29.698  44.906  55.528  1.00  0.00     0.030 A 
ENDBRANCH  24  26
ENDBRANCH   1  24
BRANCH   5  32
HETATM   32  N   UNL     1      27.869  40.266  51.376  1.00  0.00    -0.187 N 
HETATM   33  H   UNL     1      27.231  39.836  52.029  1.00  0.00     0.184 HD
BRANCH  32  34
HETATM   34  C   UNL     1      28.254  39.485  50.280  1.00  0.00     0.049 A 
HETATM   35  C   UNL     1      29.398  38.677  50.399  1.00  0.00     0.030 A 
HETATM   36  C   UNL     1      29.855  37.899  49.330  1.00  0.00     0.002 A 
HETATM   37  C   UNL     1      29.173  37.915  48.119  1.00  0.00     0.000 A 
HETATM   38  C   UNL     1      28.038  38.707  47.978  1.00  0.00     0.002 A 
HETATM   39  C   UNL     1      27.587  39.487  49.049  1.00  0.00     0.030 A 
ENDBRANCH  32  34
ENDBRANCH   5  32
TORSDOF 8
ENDMDL
MODEL 7
REMARK VINA RESULT:      -9.2      3.732      8.163
REMARK  8 active torsions:
REMARK  status: ('A' for Active; 'I' for Inactive)
REMARK    1  A    between atoms: C_4  and  N_5 
REMARK    2  A    between atoms: N_5  and  C_6 
REMARK    3  A    between atoms: C_8  and  N_9 
REMARK    4  A    between atoms: N_12  and  C_14 
REMARK    5  A    between atoms: C_14  and  C_15 
REMARK       I    between atoms: C_15  and  N_16 
REMARK    6  A    between atoms: N_16  and  C_17 
REMARK    7  A    between atoms: C_26  and  N_27 
REMARK    8  A    between atoms: N_27  and  C_28 
ROOT
HETATM    1  C   UNL     1      27.250  41.753  51.607  1.00  0.00     0.758 A 
HETATM    2  N   UNL     1      26.831  42.437  50.547  1.00  0.00     0.131 NA
HETATM    3  C   UNL     1      26.729  43.747  50.697  1.00  0.00     0.756 A 
HETATM    4  N   UNL     1      26.928  44.366  51.851  1.00  0.00     0.131 NA
HETATM    5  C   UNL     1      27.353  43.618  52.864  1.00  0.00     0.758 A 
HETATM    6  N   UNL     1      27.539  42.310  52.772  1.00  0.00     0.131 NA
ENDROOT
BRANCH   3   7
HETATM    7  N   UNL     1      26.445  44.533  49.581  1.00  0.00    -0.210 N 
HETATM    8  C   UNL     1      27.089  45.854  49.575  1.00  0.00     0.169 C 
HETATM    9  C   UNL     1      26.179  46.918  50.238  1.00  0.00     0.256 C 
HETATM   10  N   UNL     1      24.806  46.893  49.564  1.00  0.00    -0.060 N 
HETATM   11  H   UNL     1      24.979  47.006  48.558  1.00  0.00     0.280 HD
HETATM   12  C   UNL     1      24.159  45.514  49.730  1.00  0.00     0.256 C 
HETATM   13  C   UNL     1      25.070  44.460  49.065  1.00  0.00     0.169 C 
BRANCH  10  14
HETATM   14  C   UNL     1      23.892  48.062  49.941  1.00  0.00     0.337 C 
BRANCH  14  15
HETATM   15  C   UNL     1      23.765  49.193  48.910  1.00  0.00     0.249 C 
HETATM   16  N   UNL     1      22.544  49.491  48.377  1.00  0.00    -0.304 N 
HETATM   17  H   UNL     1      22.497  50.243  47.700  1.00  0.00     0.171 HD
HETATM   18  O   UNL     1      24.750  49.843  48.551  1.00  0.00    -0.271 OA
BRANCH  16  19
HETATM   19  C   UNL     1      21.381  48.850  48.687  1.00  0.00     0.172 A 
HETATM   20  S   UNL     1      21.073  47.435  47.792  1.00  0.00    -0.062 SA
HETATM   21  C   UNL     1      19.605  47.238  48.659  1.00  0.00     0.072 A 
HETATM   22  C   UNL     1      19.463  48.268  49.566  1.00  0.00     0.126 A 
HETATM   23  N   UNL     1      20.490  49.198  49.581  1.00  0.00    -0.236 NA
ENDBRANCH  16  19
ENDBRANCH  14  15
ENDBRANCH  10  14
ENDBRANCH   3   7
BRANCH   1  24
HETATM   24  N   UNL     1      27.490  40.385  51.521  1.00  0.00    -0.187 N 
HETATM   25  H   UNL     1      26.720  39.871  51.931  1.00  0.00     0.184 HD
BRANCH  24  26
HETATM   26  C   UNL     1      28.340  39.636  50.699  1.00  0.00     0.049 A 
HETATM   27  C   UNL     1      29.360  38.881  51.296  1.00  0.00     0.030 A 
HETATM   28  C   UNL     1      30.254  38.136  50.525  1.00  0.00     0.002 A 
HETATM   29  C   UNL     1      30.141  38.135  49.138  1.00  0.00     0.000 A 
HETATM   30  C   UNL     1      29.144  38.889  48.526  1.00  0.00     0.002 A 
HETATM   31  C   UNL     1      28.260  39.645  49.302  1.00  0.00     0.030 A 
ENDBRANCH  24  26
ENDBRANCH   1  24
BRANCH   5  32
HETATM   32  N   UNL     1      27.647  44.313  54.036  1.00  0.00    -0.187 N 
HETATM   33  H   UNL     1      26.872  44.907  54.292  1.00  0.00     0.184 HD
BRANCH  32  34
HETATM   34  C   UNL     1      28.800  44.422  54.821  1.00  0.00     0.049 A 
HETATM   35  C   UNL     1      29.705  43.348  54.839  1.00  0.00     0.030 A 
HETATM   36  C   UNL     1      30.860  43.381  55.629  1.00  0.00     0.002 A 
HETATM   37  C   UNL     1      31.131  44.495  56.415  1.00  0.00     0.000 A 
HETATM   38  C   UNL     1      30.249  45.571  56.412  1.00  0.00     0.002 A 
HETATM   39  C   UNL     1      29.093  45.531  55.625  1.00  0.00     0.030 A 
ENDBRANCH  32  34
ENDBRANCH   5  32
TORSDOF 8
ENDMDL
MODEL 8
REMARK VINA RESULT:      -9.2      3.721      8.113
REMARK  8 active torsions:
REMARK  status: ('A' for Active; 'I' for Inactive)
REMARK    1  A    between atoms: C_4  and  N_5 
REMARK    2  A    between atoms: N_5  and  C_6 
REMARK    3  A    between atoms: C_8  and  N_9 
REMARK    4  A    between atoms: N_12  and  C_14 
REMARK    5  A    between atoms: C_14  and  C_15 
REMARK       I    between atoms: C_15  and  N_16 
REMARK    6  A    between atoms: N_16  and  C_17 
REMARK    7  A    between atoms: C_26  and  N_27 
REMARK    8  A    between atoms: N_27  and  C_28 
ROOT
HETATM    1  C   UNL     1      28.972  43.440  53.431  1.00  0.00     0.758 A 
HETATM    2  N   UNL     1      27.930  44.264  53.379  1.00  0.00     0.131 NA
HETATM    3  C   UNL     1      26.830  43.786  52.823  1.00  0.00     0.756 A 
HETATM    4  N   UNL     1      26.763  42.593  52.250  1.00  0.00     0.131 NA
HETATM    5  C   UNL     1      27.841  41.822  52.349  1.00  0.00     0.758 A 
HETATM    6  N   UNL     1      28.957  42.209  52.946  1.00  0.00     0.131 NA
ENDROOT
BRANCH   3   7
HETATM    7  N   UNL     1      25.662  44.544  52.877  1.00  0.00    -0.210 N 
HETATM    8  C   UNL     1      24.513  43.963  52.169  1.00  0.00     0.169 C 
HETATM    9  C   UNL     1      24.459  44.453  50.701  1.00  0.00     0.256 C 
HETATM   10  N   UNL     1      24.491  45.983  50.682  1.00  0.00    -0.060 N 
HETATM   11  H   UNL     1      23.726  46.292  51.293  1.00  0.00     0.280 HD
HETATM   12  C   UNL     1      25.783  46.494  51.330  1.00  0.00     0.256 C 
HETATM   13  C   UNL     1      25.828  46.004  52.792  1.00  0.00     0.169 C 
BRANCH  10  14
HETATM   14  C   UNL     1      24.185  46.607  49.319  1.00  0.00     0.337 C 
BRANCH  14  15
HETATM   15  C   UNL     1      23.334  47.885  49.326  1.00  0.00     0.249 C 
HETATM   16  N   UNL     1      22.178  47.936  48.600  1.00  0.00    -0.304 N 
HETATM   17  H   UNL     1      21.642  48.794  48.630  1.00  0.00     0.171 HD
HETATM   18  O   UNL     1      23.673  48.874  49.981  1.00  0.00    -0.271 OA
BRANCH  16  19
HETATM   19  C   UNL     1      21.694  46.915  47.836  1.00  0.00     0.172 A 
HETATM   20  S   UNL     1      20.524  45.937  48.591  1.00  0.00    -0.062 SA
HETATM   21  C   UNL     1      20.426  44.994  47.160  1.00  0.00     0.072 A 
HETATM   22  C   UNL     1      21.294  45.500  46.215  1.00  0.00     0.126 A 
HETATM   23  N   UNL     1      22.026  46.610  46.607  1.00  0.00    -0.236 NA
ENDBRANCH  16  19
ENDBRANCH  14  15
ENDBRANCH  10  14
ENDBRANCH   3   7
BRANCH   1  24
HETATM   24  N   UNL     1      30.140  43.812  54.089  1.00  0.00    -0.187 N 
HETATM   25  H   UNL     1      30.818  44.159  53.422  1.00  0.00     0.184 HD
BRANCH  24  26
HETATM   26  C   UNL     1      30.397  44.132  55.428  1.00  0.00     0.049 A 
HETATM   27  C   UNL     1      29.889  45.335  55.940  1.00  0.00     0.030 A 
HETATM   28  C   UNL     1      30.135  45.719  57.260  1.00  0.00     0.002 A 
HETATM   29  C   UNL     1      30.899  44.903  58.090  1.00  0.00     0.000 A 
HETATM   30  C   UNL     1      31.424  43.713  57.594  1.00  0.00     0.002 A 
HETATM   31  C   UNL     1      31.186  43.340  56.268  1.00  0.00     0.030 A 
ENDBRANCH  24  26
ENDBRANCH   1  24
BRANCH   5  32
HETATM   32  N   UNL     1      27.706  40.539  51.822  1.00  0.00    -0.187 N 
HETATM   33  H   UNL     1      27.002  40.025  52.331  1.00  0.00     0.184 HD
BRANCH  32  34
HETATM   34  C   UNL     1      28.410  39.826  50.844  1.00  0.00     0.049 A 
HETATM   35  C   UNL     1      29.253  38.779  51.252  1.00  0.00     0.030 A 
HETATM   36  C   UNL     1      30.009  38.050  50.327  1.00  0.00     0.002 A 
HETATM   37  C   UNL     1      29.932  38.357  48.973  1.00  0.00     0.000 A 
HETATM   38  C   UNL     1      29.103  39.389  48.547  1.00  0.00     0.002 A 
HETATM   39  C   UNL     1      28.353  40.119  49.476  1.00  0.00     0.030 A 
ENDBRANCH  32  34
ENDBRANCH   5  32
TORSDOF 8
ENDMDL
MODEL 9
REMARK VINA RESULT:      -8.9      3.623      8.614
REMARK  8 active torsions:
REMARK  status: ('A' for Active; 'I' for Inactive)
REMARK    1  A    between atoms: C_4  and  N_5 
REMARK    2  A    between atoms: N_5  and  C_6 
REMARK    3  A    between atoms: C_8  and  N_9 
REMARK    4  A    between atoms: N_12  and  C_14 
REMARK    5  A    between atoms: C_14  and  C_15 
REMARK       I    between atoms: C_15  and  N_16 
REMARK    6  A    between atoms: N_16  and  C_17 
REMARK    7  A    between atoms: C_26  and  N_27 
REMARK    8  A    between atoms: N_27  and  C_28 
ROOT
HETATM    1  C   UNL     1      28.987  43.465  53.351  1.00  0.00     0.758 A 
HETATM    2  N   UNL     1      27.817  44.091  53.271  1.00  0.00     0.131 NA
HETATM    3  C   UNL     1      26.824  43.412  52.722  1.00  0.00     0.756 A 
HETATM    4  N   UNL     1      26.974  42.211  52.182  1.00  0.00     0.131 NA
HETATM    5  C   UNL     1      28.170  41.645  52.308  1.00  0.00     0.758 A 
HETATM    6  N   UNL     1      29.194  42.239  52.900  1.00  0.00     0.131 NA
ENDROOT
BRANCH   3   7
HETATM    7  N   UNL     1      25.540  43.954  52.750  1.00  0.00    -0.210 N 
HETATM    8  C   UNL     1      24.649  43.488  51.678  1.00  0.00     0.169 C 
HETATM    9  C   UNL     1      24.737  44.414  50.440  1.00  0.00     0.256 C 
HETATM   10  N   UNL     1      24.482  45.858  50.876  1.00  0.00    -0.060 N 
HETATM   11  H   UNL     1      23.585  45.852  51.376  1.00  0.00     0.280 HD
HETATM   12  C   UNL     1      25.534  46.296  51.900  1.00  0.00     0.256 C 
HETATM   13  C   UNL     1      25.438  45.371  53.131  1.00  0.00     0.169 C 
BRANCH  10  14
HETATM   14  C   UNL     1      24.283  46.844  49.722  1.00  0.00     0.337 C 
BRANCH  14  15
HETATM   15  C   UNL     1      23.154  46.522  48.732  1.00  0.00     0.249 C 
HETATM   16  N   UNL     1      22.305  47.511  48.326  1.00  0.00    -0.304 N 
HETATM   17  H   UNL     1      21.572  47.263  47.672  1.00  0.00     0.171 HD
HETATM   18  O   UNL     1      22.998  45.381  48.291  1.00  0.00    -0.271 OA
BRANCH  16  19
HETATM   19  C   UNL     1      22.368  48.810  48.738  1.00  0.00     0.172 A 
HETATM   20  S   UNL     1      23.542  49.762  47.955  1.00  0.00    -0.062 SA
HETATM   21  C   UNL     1      23.059  51.101  48.914  1.00  0.00     0.072 A 
HETATM   22  C   UNL     1      22.037  50.718  49.759  1.00  0.00     0.126 A 
HETATM   23  N   UNL     1      21.640  49.394  49.656  1.00  0.00    -0.236 NA
ENDBRANCH  16  19
ENDBRANCH  14  15
ENDBRANCH  10  14
ENDBRANCH   3   7
BRANCH   1  24
HETATM   24  N   UNL     1      30.065  44.055  54.005  1.00  0.00    -0.187 N 
HETATM   25  H   UNL     1      30.558  44.673  53.372  1.00  0.00     0.184 HD
BRANCH  24  26
HETATM   26  C   UNL     1      30.346  44.238  55.363  1.00  0.00     0.049 A 
HETATM   27  C   UNL     1      29.861  45.389  56.001  1.00  0.00     0.030 A 
HETATM   28  C   UNL     1      30.132  45.638  57.347  1.00  0.00     0.002 A 
HETATM   29  C   UNL     1      30.898  44.737  58.080  1.00  0.00     0.000 A 
HETATM   30  C   UNL     1      31.402  43.596  57.460  1.00  0.00     0.002 A 
HETATM   31  C   UNL     1      31.139  43.358  56.108  1.00  0.00     0.030 A 
ENDBRANCH  24  26
ENDBRANCH   1  24
BRANCH   5  32
HETATM   32  N   UNL     1      28.268  40.345  51.816  1.00  0.00    -0.187 N 
HETATM   33  H   UNL     1      28.239  39.682  52.576  1.00  0.00     0.184 HD
BRANCH  32  34
HETATM   34  C   UNL     1      28.505  39.819  50.540  1.00  0.00     0.049 A 
HETATM   35  C   UNL     1      28.057  40.542  49.422  1.00  0.00     0.030 A 
HETATM   36  C   UNL     1      28.232  40.055  48.122  1.00  0.00     0.002 A 
HETATM   37  C   UNL     1      28.864  38.833  47.918  1.00  0.00     0.000 A 
HETATM   38  C   UNL     1      29.317  38.101  49.011  1.00  0.00     0.002 A 
HETATM   39  C   UNL     1      29.134  38.590  50.310  1.00  0.00     0.030 A 
ENDBRANCH  32  34
ENDBRANCH   5  32
TORSDOF 8
ENDMDL
MODEL 10
REMARK VINA RESULT:      -8.6      2.450      3.571
REMARK  8 active torsions:
REMARK  status: ('A' for Active; 'I' for Inactive)
REMARK    1  A    between atoms: C_4  and  N_5 
REMARK    2  A    between atoms: N_5  and  C_6 
REMARK    3  A    between atoms: C_8  and  N_9 
REMARK    4  A    between atoms: N_12  and  C_14 
REMARK    5  A    between atoms: C_14  and  C_15 
REMARK       I    between atoms: C_15  and  N_16 
REMARK    6  A    between atoms: N_16  and  C_17 
REMARK    7  A    between atoms: C_26  and  N_27 
REMARK    8  A    between atoms: N_27  and  C_28 
ROOT
HETATM    1  C   UNL     1      24.462  47.258  49.976  1.00  0.00     0.758 A 
HETATM    2  N   UNL     1      24.067  46.014  49.723  1.00  0.00     0.131 NA
HETATM    3  C   UNL     1      24.282  45.125  50.678  1.00  0.00     0.756 A 
HETATM    4  N   UNL     1      24.939  45.400  51.796  1.00  0.00     0.131 NA
HETATM    5  C   UNL     1      25.295  46.667  51.982  1.00  0.00     0.758 A 
HETATM    6  N   UNL     1      25.058  47.624  51.099  1.00  0.00     0.131 NA
ENDROOT
BRANCH   3   7
HETATM    7  N   UNL     1      23.754  43.843  50.536  1.00  0.00    -0.210 N 
HETATM    8  C   UNL     1      24.609  42.762  51.048  1.00  0.00     0.169 C 
HETATM    9  C   UNL     1      25.545  42.222  49.939  1.00  0.00     0.256 C 
HETATM   10  N   UNL     1      24.706  41.827  48.723  1.00  0.00    -0.060 N 
HETATM   11  H   UNL     1      23.989  41.178  49.068  1.00  0.00     0.280 HD
HETATM   12  C   UNL     1      23.948  43.046  48.183  1.00  0.00     0.256 C 
HETATM   13  C   UNL     1      23.016  43.575  49.292  1.00  0.00     0.169 C 
BRANCH  10  14
HETATM   14  C   UNL     1      25.468  41.041  47.653  1.00  0.00     0.337 C 
BRANCH  14  15
HETATM   15  C   UNL     1      24.911  39.656  47.293  1.00  0.00     0.249 C 
HETATM   16  N   UNL     1      25.607  38.533  47.639  1.00  0.00    -0.304 N 
HETATM   17  H   UNL     1      25.209  37.637  47.387  1.00  0.00     0.171 HD
HETATM   18  O   UNL     1      23.839  39.535  46.696  1.00  0.00    -0.271 OA
BRANCH  16  19
HETATM   19  C   UNL     1      26.801  38.530  48.299  1.00  0.00     0.172 A 
HETATM   20  S   UNL     1      28.162  38.200  47.331  1.00  0.00    -0.062 SA
HETATM   21  C   UNL     1      29.156  38.352  48.722  1.00  0.00     0.072 A 
HETATM   22  C   UNL     1      28.371  38.644  49.820  1.00  0.00     0.126 A 
HETATM   23  N   UNL     1      27.011  38.747  49.573  1.00  0.00    -0.236 NA
ENDBRANCH  16  19
ENDBRANCH  14  15
ENDBRANCH  10  14
ENDBRANCH   3   7
BRANCH   1  24
HETATM   24  N   UNL     1      24.187  48.287  49.080  1.00  0.00    -0.187 N 
HETATM   25  H   UNL     1      24.818  48.235  48.289  1.00  0.00     0.184 HD
BRANCH  24  26
HETATM   26  C   UNL     1      23.051  49.082  48.889  1.00  0.00     0.049 A 
HETATM   27  C   UNL     1      23.193  50.477  48.918  1.00  0.00     0.030 A 
HETATM   28  C   UNL     1      22.091  51.318  48.760  1.00  0.00     0.002 A 
HETATM   29  C   UNL     1      20.823  50.776  48.571  1.00  0.00     0.000 A 
HETATM   30  C   UNL     1      20.660  49.393  48.554  1.00  0.00     0.002 A 
HETATM   31  C   UNL     1      21.765  48.554  48.727  1.00  0.00     0.030 A 
ENDBRANCH  24  26
ENDBRANCH   1  24
BRANCH   5  32
HETATM   32  N   UNL     1      25.897  46.942  53.208  1.00  0.00    -0.187 N 
HETATM   33  H   UNL     1      25.556  47.818  53.575  1.00  0.00     0.184 HD
BRANCH  32  34
HETATM   34  C   UNL     1      26.919  46.319  53.934  1.00  0.00     0.049 A 
HETATM   35  C   UNL     1      27.616  47.072  54.894  1.00  0.00     0.030 A 
HETATM   36  C   UNL     1      28.670  46.519  55.630  1.00  0.00     0.002 A 
HETATM   37  C   UNL     1      29.045  45.197  55.417  1.00  0.00     0.000 A 
HETATM   38  C   UNL     1      28.368  44.433  54.472  1.00  0.00     0.002 A 
HETATM   39  C   UNL     1      27.318  44.992  53.736  1.00  0.00     0.030 A 
ENDBRANCH  32  34
ENDBRANCH   5  32
TORSDOF 8
ENDMDL
