MODEL 1
REMARK VINA RESULT:      -8.1      0.000      0.000
REMARK  6 active torsions:
REMARK  status: ('A' for Active; 'I' for Inactive)
REMARK    1  A    between atoms: C_2  and  C_3 
REMARK    2  A    between atoms: C_3  and  N_4 
REMARK       I    between atoms: N_4  and  C_5 
REMARK    3  A    between atoms: C_5  and  C_6 
REMARK    4  A    between atoms: C_11  and  C_12 
REMARK    5  A    between atoms: C_15  and  O_16 
REMARK    6  A    between atoms: C_21  and  C_22 
ROOT
HETATM    1  C   UNL     1      24.373  42.949  49.736  1.00  0.00     0.170 A 
HETATM    2  N   UNL     1      24.255  44.256  50.081  1.00  0.00    -0.163 NA
HETATM    3  N   UNL     1      25.145  44.409  51.075  1.00  0.00    -0.238 N 
HETATM    4  C   UNL     1      25.746  43.241  51.463  1.00  0.00     0.145 A 
HETATM    5  N   UNL     1      26.613  43.214  52.507  1.00  0.00    -0.365 N 
HETATM    6  C   UNL     1      26.670  44.338  53.436  1.00  0.00     0.118 C 
HETATM    7  C   UNL     1      26.575  45.650  52.647  1.00  0.00     0.066 C 
HETATM    8  C   UNL     1      25.304  45.673  51.778  1.00  0.00     0.221 C 
HETATM    9  C   UNL     1      25.287  42.278  50.595  1.00  0.00     0.115 A 
HETATM   10 CL   UNL     1      25.725  40.638  50.577  1.00  0.00    -0.077 Cl
HETATM   11  H   UNL     1      26.895  42.313  52.897  1.00  0.00     0.162 HD
ENDROOT
BRANCH   6  12
HETATM   12  C   UNL     1      27.951  44.293  54.246  1.00  0.00    -0.035 A 
HETATM   13  C   UNL     1      28.850  43.222  54.140  1.00  0.00     0.012 A 
HETATM   14  C   UNL     1      30.045  43.222  54.865  1.00  0.00     0.037 A 
HETATM   15  C   UNL     1      30.375  44.292  55.697  1.00  0.00     0.068 A 
HETATM   16  C   UNL     1      29.488  45.362  55.810  1.00  0.00     0.037 A 
HETATM   17  C   UNL     1      28.287  45.363  55.089  1.00  0.00     0.012 A 
BRANCH  15  18
HETATM   18  O   UNL     1      31.577  44.170  56.336  1.00  0.00    -0.356 OA
HETATM   19  C   UNL     1      31.720  43.076  57.233  1.00  0.00     0.210 C 
ENDBRANCH  15  18
ENDBRANCH   6  12
BRANCH   8  20
HETATM   20  C   UNL     1      25.357  46.851  50.829  1.00  0.00     0.409 C 
HETATM   21  F   UNL     1      25.868  46.522  49.623  1.00  0.00    -0.169 F 
HETATM   22  F   UNL     1      24.153  47.433  50.634  1.00  0.00    -0.169 F 
HETATM   23  F   UNL     1      26.162  47.818  51.346  1.00  0.00    -0.169 F 
ENDBRANCH   8  20
BRANCH   1  24
HETATM   24  C   UNL     1      23.604  42.399  48.608  1.00  0.00     0.273 C 
HETATM   25  N   UNL     1      24.063  42.833  47.382  1.00  0.00    -0.356 N 
HETATM   26  H   UNL     1      24.838  43.492  47.407  1.00  0.00     0.162 HD
HETATM   27  O   UNL     1      22.659  41.628  48.735  1.00  0.00    -0.266 OA
BRANCH  25  28
HETATM   28  C   UNL     1      23.484  42.420  46.127  1.00  0.00     0.122 C 
BRANCH  28  29
HETATM   29  C   UNL     1      22.771  43.570  45.423  1.00  0.00     0.015 C 
HETATM   30  C   UNL     1      23.567  44.069  44.229  1.00  0.00     0.006 C 
ENDBRANCH  28  29
ENDBRANCH  25  28
ENDBRANCH   1  24
TORSDOF 6
ENDMDL
MODEL 2
REMARK VINA RESULT:      -8.1      3.710      8.891
REMARK  6 active torsions:
REMARK  status: ('A' for Active; 'I' for Inactive)
REMARK    1  A    between atoms: C_2  and  C_3 
REMARK    2  A    between atoms: C_3  and  N_4 
REMARK       I    between atoms: N_4  and  C_5 
REMARK    3  A    between atoms: C_5  and  C_6 
REMARK    4  A    between atoms: C_11  and  C_12 
REMARK    5  A    between atoms: C_15  and  O_16 
REMARK    6  A    between atoms: C_21  and  C_22 
ROOT
HETATM    1  C   UNL     1      27.872  45.724  55.370  1.00  0.00     0.170 A 
HETATM    2  N   UNL     1      27.933  44.559  54.676  1.00  0.00    -0.163 NA
HETATM    3  N   UNL     1      27.124  44.768  53.624  1.00  0.00    -0.238 N 
HETATM    4  C   UNL     1      26.459  45.964  53.668  1.00  0.00     0.145 A 
HETATM    5  N   UNL     1      25.546  46.292  52.719  1.00  0.00    -0.365 N 
HETATM    6  C   UNL     1      25.014  45.261  51.833  1.00  0.00     0.118 C 
HETATM    7  C   UNL     1      26.153  44.326  51.407  1.00  0.00     0.066 C 
HETATM    8  C   UNL     1      26.860  43.732  52.639  1.00  0.00     0.221 C 
HETATM    9  C   UNL     1      26.942  46.621  54.776  1.00  0.00     0.115 A 
HETATM   10 CL   UNL     1      26.500  48.171  55.308  1.00  0.00    -0.077 Cl
HETATM   11  H   UNL     1      24.929  47.091  52.876  1.00  0.00     0.162 HD
ENDROOT
BRANCH   6  12
HETATM   12  C   UNL     1      24.357  45.891  50.620  1.00  0.00    -0.035 A 
HETATM   13  C   UNL     1      23.603  45.130  49.715  1.00  0.00     0.012 A 
HETATM   14  C   UNL     1      22.971  45.738  48.627  1.00  0.00     0.037 A 
HETATM   15  C   UNL     1      23.065  47.115  48.426  1.00  0.00     0.068 A 
HETATM   16  C   UNL     1      23.812  47.881  49.319  1.00  0.00     0.037 A 
HETATM   17  C   UNL     1      24.452  47.274  50.408  1.00  0.00     0.012 A 
BRANCH  15  18
HETATM   18  O   UNL     1      22.389  47.581  47.333  1.00  0.00    -0.356 OA
HETATM   19  C   UNL     1      20.969  47.531  47.386  1.00  0.00     0.210 C 
ENDBRANCH  15  18
ENDBRANCH   6  12
BRANCH   8  20
HETATM   20  C   UNL     1      28.123  43.019  52.207  1.00  0.00     0.409 C 
HETATM   21  F   UNL     1      29.188  43.848  52.137  1.00  0.00    -0.169 F 
HETATM   22  F   UNL     1      28.449  41.979  53.005  1.00  0.00    -0.169 F 
HETATM   23  F   UNL     1      27.951  42.498  50.962  1.00  0.00    -0.169 F 
ENDBRANCH   8  20
BRANCH   1  24
HETATM   24  C   UNL     1      28.698  45.924  56.572  1.00  0.00     0.273 C 
HETATM   25  N   UNL     1      29.989  45.464  56.420  1.00  0.00    -0.356 N 
HETATM   26  H   UNL     1      30.199  45.022  55.528  1.00  0.00     0.162 HD
HETATM   27  O   UNL     1      28.291  46.452  57.602  1.00  0.00    -0.266 OA
BRANCH  25  28
HETATM   28  C   UNL     1      30.993  45.563  57.451  1.00  0.00     0.122 C 
BRANCH  28  29
HETATM   29  C   UNL     1      31.509  44.192  57.876  1.00  0.00     0.015 C 
HETATM   30  C   UNL     1      31.354  43.172  56.761  1.00  0.00     0.006 C 
ENDBRANCH  28  29
ENDBRANCH  25  28
ENDBRANCH   1  24
TORSDOF 6
ENDMDL
MODEL 3
REMARK VINA RESULT:      -7.9      2.824      3.474
REMARK  6 active torsions:
REMARK  status: ('A' for Active; 'I' for Inactive)
REMARK    1  A    between atoms: C_2  and  C_3 
REMARK    2  A    between atoms: C_3  and  N_4 
REMARK       I    between atoms: N_4  and  C_5 
REMARK    3  A    between atoms: C_5  and  C_6 
REMARK    4  A    between atoms: C_11  and  C_12 
REMARK    5  A    between atoms: C_15  and  O_16 
REMARK    6  A    between atoms: C_21  and  C_22 
ROOT
HETATM    1  C   UNL     1      26.919  41.165  49.154  1.00  0.00     0.170 A 
HETATM    2  N   UNL     1      26.281  42.351  49.322  1.00  0.00    -0.163 NA
HETATM    3  N   UNL     1      26.797  42.835  50.463  1.00  0.00    -0.238 N 
HETATM    4  C   UNL     1      27.650  41.970  51.095  1.00  0.00     0.145 A 
HETATM    5  N   UNL     1      28.195  42.279  52.299  1.00  0.00    -0.365 N 
HETATM    6  C   UNL     1      27.638  43.371  53.092  1.00  0.00     0.118 C 
HETATM    7  C   UNL     1      27.292  44.542  52.165  1.00  0.00     0.066 C 
HETATM    8  C   UNL     1      26.339  44.088  51.045  1.00  0.00     0.221 C 
HETATM    9  C   UNL     1      27.772  40.886  50.257  1.00  0.00     0.115 A 
HETATM   10 CL   UNL     1      28.737  39.513  50.511  1.00  0.00    -0.077 Cl
HETATM   11  H   UNL     1      28.667  41.549  52.835  1.00  0.00     0.162 HD
ENDROOT
BRANCH   6  12
HETATM   12  C   UNL     1      28.622  43.806  54.161  1.00  0.00    -0.035 A 
HETATM   13  C   UNL     1      28.445  44.997  54.881  1.00  0.00     0.012 A 
HETATM   14  C   UNL     1      29.341  45.358  55.890  1.00  0.00     0.037 A 
HETATM   15  C   UNL     1      30.421  44.536  56.213  1.00  0.00     0.068 A 
HETATM   16  C   UNL     1      30.606  43.350  55.505  1.00  0.00     0.037 A 
HETATM   17  C   UNL     1      29.713  42.987  54.488  1.00  0.00     0.012 A 
BRANCH  15  18
HETATM   18  O   UNL     1      31.210  45.001  57.228  1.00  0.00    -0.356 OA
HETATM   19  C   UNL     1      30.573  45.780  58.232  1.00  0.00     0.210 C 
ENDBRANCH  15  18
ENDBRANCH   6  12
BRANCH   8  20
HETATM   20  C   UNL     1      26.211  45.184  50.009  1.00  0.00     0.409 C 
HETATM   21  F   UNL     1      27.363  45.398  49.336  1.00  0.00    -0.169 F 
HETATM   22  F   UNL     1      25.231  44.956  49.108  1.00  0.00    -0.169 F 
HETATM   23  F   UNL     1      25.893  46.356  50.621  1.00  0.00    -0.169 F 
ENDBRANCH   8  20
BRANCH   1  24
HETATM   24  C   UNL     1      26.681  40.350  47.951  1.00  0.00     0.273 C 
HETATM   25  N   UNL     1      25.939  39.216  48.209  1.00  0.00    -0.356 N 
HETATM   26  H   UNL     1      25.682  39.067  49.182  1.00  0.00     0.162 HD
HETATM   27  O   UNL     1      27.088  40.645  46.833  1.00  0.00    -0.266 OA
BRANCH  25  28
HETATM   28  C   UNL     1      25.561  38.267  47.191  1.00  0.00     0.122 C 
BRANCH  28  29
HETATM   29  C   UNL     1      25.992  36.848  47.548  1.00  0.00     0.015 C 
HETATM   30  C   UNL     1      26.672  36.800  48.906  1.00  0.00     0.006 C 
ENDBRANCH  28  29
ENDBRANCH  25  28
ENDBRANCH   1  24
TORSDOF 6
ENDMDL
MODEL 4
REMARK VINA RESULT:      -7.9      4.290      8.256
REMARK  6 active torsions:
REMARK  status: ('A' for Active; 'I' for Inactive)
REMARK    1  A    between atoms: C_2  and  C_3 
REMARK    2  A    between atoms: C_3  and  N_4 
REMARK       I    between atoms: N_4  and  C_5 
REMARK    3  A    between atoms: C_5  and  C_6 
REMARK    4  A    between atoms: C_11  and  C_12 
REMARK    5  A    between atoms: C_15  and  O_16 
REMARK    6  A    between atoms: C_21  and  C_22 
ROOT
HETATM    1  C   UNL     1      25.932  44.527  49.783  1.00  0.00     0.170 A 
HETATM    2  N   UNL     1      26.531  45.672  49.371  1.00  0.00    -0.163 NA
HETATM    3  N   UNL     1      25.527  46.562  49.324  1.00  0.00    -0.238 N 
HETATM    4  C   UNL     1      24.295  46.018  49.573  1.00  0.00     0.145 A 
HETATM    5  N   UNL     1      23.168  46.769  49.487  1.00  0.00    -0.365 N 
HETATM    6  C   UNL     1      23.205  48.065  48.815  1.00  0.00     0.118 C 
HETATM    7  C   UNL     1      24.499  48.794  49.197  1.00  0.00     0.066 C 
HETATM    8  C   UNL     1      25.730  47.930  48.871  1.00  0.00     0.221 C 
HETATM    9  C   UNL     1      24.526  44.702  49.902  1.00  0.00     0.115 A 
HETATM   10 CL   UNL     1      23.362  43.549  50.343  1.00  0.00    -0.077 Cl
HETATM   11  H   UNL     1      22.258  46.306  49.486  1.00  0.00     0.162 HD
ENDROOT
BRANCH   6  12
HETATM   12  C   UNL     1      21.992  48.894  49.190  1.00  0.00    -0.035 A 
HETATM   13  C   UNL     1      22.104  50.253  49.518  1.00  0.00     0.012 A 
HETATM   14  C   UNL     1      20.968  51.008  49.819  1.00  0.00     0.037 A 
HETATM   15  C   UNL     1      19.698  50.430  49.787  1.00  0.00     0.068 A 
HETATM   16  C   UNL     1      19.575  49.080  49.463  1.00  0.00     0.037 A 
HETATM   17  C   UNL     1      20.713  48.318  49.166  1.00  0.00     0.012 A 
BRANCH  15  18
HETATM   18  O   UNL     1      18.674  51.284  50.090  1.00  0.00    -0.356 OA
HETATM   19  C   UNL     1      18.452  52.365  49.194  1.00  0.00     0.210 C 
ENDBRANCH  15  18
ENDBRANCH   6  12
BRANCH   8  20
HETATM   20  C   UNL     1      26.967  48.554  49.479  1.00  0.00     0.409 C 
HETATM   21  F   UNL     1      28.109  48.070  48.942  1.00  0.00    -0.169 F 
HETATM   22  F   UNL     1      26.990  49.901  49.377  1.00  0.00    -0.169 F 
HETATM   23  F   UNL     1      27.012  48.277  50.809  1.00  0.00    -0.169 F 
ENDBRANCH   8  20
BRANCH   1  24
HETATM   24  C   UNL     1      26.728  43.314  50.037  1.00  0.00     0.273 C 
HETATM   25  N   UNL     1      26.864  43.032  51.380  1.00  0.00    -0.356 N 
HETATM   26  H   UNL     1      26.437  43.700  52.018  1.00  0.00     0.162 HD
HETATM   27  O   UNL     1      27.214  42.617  49.153  1.00  0.00    -0.266 OA
BRANCH  25  28
HETATM   28  C   UNL     1      27.585  41.887  51.881  1.00  0.00     0.122 C 
BRANCH  28  29
HETATM   29  C   UNL     1      28.445  42.242  53.090  1.00  0.00     0.015 C 
HETATM   30  C   UNL     1      29.606  43.140  52.701  1.00  0.00     0.006 C 
ENDBRANCH  28  29
ENDBRANCH  25  28
ENDBRANCH   1  24
TORSDOF 6
ENDMDL
MODEL 5
REMARK VINA RESULT:      -7.8      3.072      3.725
REMARK  6 active torsions:
REMARK  status: ('A' for Active; 'I' for Inactive)
REMARK    1  A    between atoms: C_2  and  C_3 
REMARK    2  A    between atoms: C_3  and  N_4 
REMARK       I    between atoms: N_4  and  C_5 
REMARK    3  A    between atoms: C_5  and  C_6 
REMARK    4  A    between atoms: C_11  and  C_12 
REMARK    5  A    between atoms: C_15  and  O_16 
REMARK    6  A    between atoms: C_21  and  C_22 
ROOT
HETATM    1  C   UNL     1      24.968  43.097  49.752  1.00  0.00     0.170 A 
HETATM    2  N   UNL     1      25.974  42.206  49.565  1.00  0.00    -0.163 NA
HETATM    3  N   UNL     1      26.834  42.478  50.559  1.00  0.00    -0.238 N 
HETATM    4  C   UNL     1      26.487  43.572  51.306  1.00  0.00     0.145 A 
HETATM    5  N   UNL     1      27.292  44.025  52.300  1.00  0.00    -0.365 N 
HETATM    6  C   UNL     1      28.678  43.571  52.378  1.00  0.00     0.118 C 
HETATM    7  C   UNL     1      28.736  42.071  52.066  1.00  0.00     0.066 C 
HETATM    8  C   UNL     1      28.100  41.773  50.697  1.00  0.00     0.221 C 
HETATM    9  C   UNL     1      25.265  43.982  50.824  1.00  0.00     0.115 A 
HETATM   10 CL   UNL     1      24.332  45.278  51.400  1.00  0.00    -0.077 Cl
HETATM   11  H   UNL     1      27.112  44.943  52.709  1.00  0.00     0.162 HD
ENDROOT
BRANCH   6  12
HETATM   12  C   UNL     1      29.253  43.855  53.753  1.00  0.00    -0.035 A 
HETATM   13  C   UNL     1      30.278  43.067  54.297  1.00  0.00     0.012 A 
HETATM   14  C   UNL     1      30.822  43.372  55.547  1.00  0.00     0.037 A 
HETATM   15  C   UNL     1      30.368  44.474  56.273  1.00  0.00     0.068 A 
HETATM   16  C   UNL     1      29.350  45.264  55.742  1.00  0.00     0.037 A 
HETATM   17  C   UNL     1      28.798  44.957  54.491  1.00  0.00     0.012 A 
BRANCH  15  18
HETATM   18  O   UNL     1      30.995  44.665  57.473  1.00  0.00    -0.356 OA
HETATM   19  C   UNL     1      30.288  45.412  58.456  1.00  0.00     0.210 C 
ENDBRANCH  15  18
ENDBRANCH   6  12
BRANCH   8  20
HETATM   20  C   UNL     1      27.942  40.278  50.522  1.00  0.00     0.409 C 
HETATM   21  F   UNL     1      26.739  39.831  50.942  1.00  0.00    -0.169 F 
HETATM   22  F   UNL     1      28.124  39.868  49.247  1.00  0.00    -0.169 F 
HETATM   23  F   UNL     1      28.881  39.631  51.262  1.00  0.00    -0.169 F 
ENDBRANCH   8  20
BRANCH   1  24
HETATM   24  C   UNL     1      23.771  43.068  48.894  1.00  0.00     0.273 C 
HETATM   25  N   UNL     1      23.841  43.959  47.844  1.00  0.00    -0.356 N 
HETATM   26  H   UNL     1      24.677  44.538  47.810  1.00  0.00     0.162 HD
HETATM   27  O   UNL     1      22.813  42.326  49.082  1.00  0.00    -0.266 OA
BRANCH  25  28
HETATM   28  C   UNL     1      22.799  44.104  46.856  1.00  0.00     0.122 C 
BRANCH  28  29
HETATM   29  C   UNL     1      21.800  45.191  47.240  1.00  0.00     0.015 C 
HETATM   30  C   UNL     1      22.494  46.380  47.883  1.00  0.00     0.006 C 
ENDBRANCH  28  29
ENDBRANCH  25  28
ENDBRANCH   1  24
TORSDOF 6
ENDMDL
MODEL 6
REMARK VINA RESULT:      -7.8      3.269      8.855
REMARK  6 active torsions:
REMARK  status: ('A' for Active; 'I' for Inactive)
REMARK    1  A    between atoms: C_2  and  C_3 
REMARK    2  A    between atoms: C_3  and  N_4 
REMARK       I    between atoms: N_4  and  C_5 
REMARK    3  A    between atoms: C_5  and  C_6 
REMARK    4  A    between atoms: C_11  and  C_12 
REMARK    5  A    between atoms: C_15  and  O_16 
REMARK    6  A    between atoms: C_21  and  C_22 
ROOT
HETATM    1  C   UNL     1      27.781  45.210  54.835  1.00  0.00     0.170 A 
HETATM    2  N   UNL     1      28.090  43.960  54.409  1.00  0.00    -0.163 NA
HETATM    3  N   UNL     1      27.314  43.787  53.327  1.00  0.00    -0.238 N 
HETATM    4  C   UNL     1      26.440  44.818  53.104  1.00  0.00     0.145 A 
HETATM    5  N   UNL     1      25.534  44.761  52.095  1.00  0.00    -0.365 N 
HETATM    6  C   UNL     1      25.247  43.485  51.444  1.00  0.00     0.118 C 
HETATM    7  C   UNL     1      26.558  42.715  51.245  1.00  0.00     0.066 C 
HETATM    8  C   UNL     1      27.295  42.536  52.585  1.00  0.00     0.221 C 
HETATM    9  C   UNL     1      26.736  45.771  54.050  1.00  0.00     0.115 A 
HETATM   10 CL   UNL     1      25.992  47.286  54.229  1.00  0.00    -0.077 Cl
HETATM   11  H   UNL     1      24.774  45.443  52.067  1.00  0.00     0.162 HD
ENDROOT
BRANCH   6  12
HETATM   12  C   UNL     1      24.552  43.711  50.116  1.00  0.00    -0.035 A 
HETATM   13  C   UNL     1      23.977  44.948  49.788  1.00  0.00     0.012 A 
HETATM   14  C   UNL     1      23.379  45.146  48.541  1.00  0.00     0.037 A 
HETATM   15  C   UNL     1      23.353  44.124  47.592  1.00  0.00     0.068 A 
HETATM   16  C   UNL     1      23.920  42.890  47.907  1.00  0.00     0.037 A 
HETATM   17  C   UNL     1      24.516  42.686  49.158  1.00  0.00     0.012 A 
BRANCH  15  18
HETATM   18  O   UNL     1      22.749  44.455  46.411  1.00  0.00    -0.356 OA
HETATM   19  C   UNL     1      21.873  45.575  46.429  1.00  0.00     0.210 C 
ENDBRANCH  15  18
ENDBRANCH   6  12
BRANCH   8  20
HETATM   20  C   UNL     1      28.688  42.001  52.332  1.00  0.00     0.409 C 
HETATM   21  F   UNL     1      29.596  42.985  52.151  1.00  0.00    -0.169 F 
HETATM   22  F   UNL     1      29.134  41.190  53.316  1.00  0.00    -0.169 F 
HETATM   23  F   UNL     1      28.691  41.252  51.198  1.00  0.00    -0.169 F 
ENDBRANCH   8  20
BRANCH   1  24
HETATM   24  C   UNL     1      28.492  45.811  55.976  1.00  0.00     0.273 C 
HETATM   25  N   UNL     1      29.678  45.171  56.267  1.00  0.00    -0.356 N 
HETATM   26  H   UNL     1      29.896  44.360  55.693  1.00  0.00     0.162 HD
HETATM   27  O   UNL     1      28.083  46.784  56.601  1.00  0.00    -0.266 OA
BRANCH  25  28
HETATM   28  C   UNL     1      30.561  45.583  57.331  1.00  0.00     0.122 C 
BRANCH  28  29
HETATM   29  C   UNL     1      31.331  44.406  57.920  1.00  0.00     0.015 C 
HETATM   30  C   UNL     1      31.442  43.263  56.925  1.00  0.00     0.006 C 
ENDBRANCH  28  29
ENDBRANCH  25  28
ENDBRANCH   1  24
TORSDOF 6
ENDMDL
MODEL 7
REMARK VINA RESULT:      -7.6      3.239      4.171
REMARK  6 active torsions:
REMARK  status: ('A' for Active; 'I' for Inactive)
REMARK    1  A    between atoms: C_2  and  C_3 
REMARK    2  A    between atoms: C_3  and  N_4 
REMARK       I    between atoms: N_4  and  C_5 
REMARK    3  A    between atoms: C_5  and  C_6 
REMARK    4  A    between atoms: C_11  and  C_12 
REMARK    5  A    between atoms: C_15  and  O_16 
REMARK    6  A    between atoms: C_21  and  C_22 
ROOT
HETATM    1  C   UNL     1      24.254  45.555  49.457  1.00  0.00     0.170 A 
HETATM    2  N   UNL     1      24.573  44.264  49.186  1.00  0.00    -0.163 NA
HETATM    3  N   UNL     1      25.564  43.989  50.048  1.00  0.00    -0.238 N 
HETATM    4  C   UNL     1      25.976  45.071  50.781  1.00  0.00     0.145 A 
HETATM    5  N   UNL     1      27.021  44.977  51.641  1.00  0.00    -0.365 N 
HETATM    6  C   UNL     1      27.928  43.835  51.564  1.00  0.00     0.118 C 
HETATM    7  C   UNL     1      27.113  42.559  51.319  1.00  0.00     0.066 C 
HETATM    8  C   UNL     1      26.243  42.702  50.057  1.00  0.00     0.221 C 
HETATM    9  C   UNL     1      25.126  46.098  50.440  1.00  0.00     0.115 A 
HETATM   10 CL   UNL     1      25.142  47.675  51.066  1.00  0.00    -0.077 Cl
HETATM   11  H   UNL     1      27.429  45.830  52.026  1.00  0.00     0.162 HD
ENDROOT
BRANCH   6  12
HETATM   12  C   UNL     1      28.740  43.715  52.839  1.00  0.00    -0.035 A 
HETATM   13  C   UNL     1      29.840  42.849  52.930  1.00  0.00     0.012 A 
HETATM   14  C   UNL     1      30.600  42.785  54.101  1.00  0.00     0.037 A 
HETATM   15  C   UNL     1      30.290  43.591  55.197  1.00  0.00     0.068 A 
HETATM   16  C   UNL     1      29.199  44.455  55.117  1.00  0.00     0.037 A 
HETATM   17  C   UNL     1      28.431  44.517  53.947  1.00  0.00     0.012 A 
BRANCH  15  18
HETATM   18  O   UNL     1      31.122  43.439  56.272  1.00  0.00    -0.356 OA
HETATM   19  C   UNL     1      31.026  44.414  57.302  1.00  0.00     0.210 C 
ENDBRANCH  15  18
ENDBRANCH   6  12
BRANCH   8  20
HETATM   20  C   UNL     1      25.271  41.544  49.975  1.00  0.00     0.409 C 
HETATM   21  F   UNL     1      24.950  41.227  48.702  1.00  0.00    -0.169 F 
HETATM   22  F   UNL     1      25.718  40.427  50.590  1.00  0.00    -0.169 F 
HETATM   23  F   UNL     1      24.110  41.877  50.600  1.00  0.00    -0.169 F 
ENDBRANCH   8  20
BRANCH   1  24
HETATM   24  C   UNL     1      23.136  46.213  48.761  1.00  0.00     0.273 C 
HETATM   25  N   UNL     1      22.878  47.481  49.238  1.00  0.00    -0.356 N 
HETATM   26  H   UNL     1      23.456  47.787  50.018  1.00  0.00     0.162 HD
HETATM   27  O   UNL     1      22.502  45.699  47.846  1.00  0.00    -0.266 OA
BRANCH  25  28
HETATM   28  C   UNL     1      21.842  48.333  48.707  1.00  0.00     0.122 C 
BRANCH  28  29
HETATM   29  C   UNL     1      22.419  49.517  47.937  1.00  0.00     0.015 C 
HETATM   30  C   UNL     1      21.957  50.839  48.525  1.00  0.00     0.006 C 
ENDBRANCH  28  29
ENDBRANCH  25  28
ENDBRANCH   1  24
TORSDOF 6
ENDMDL
MODEL 8
REMARK VINA RESULT:      -7.5      1.605      2.110
REMARK  6 active torsions:
REMARK  status: ('A' for Active; 'I' for Inactive)
REMARK    1  A    between atoms: C_2  and  C_3 
REMARK    2  A    between atoms: C_3  and  N_4 
REMARK       I    between atoms: N_4  and  C_5 
REMARK    3  A    between atoms: C_5  and  C_6 
REMARK    4  A    between atoms: C_11  and  C_12 
REMARK    5  A    between atoms: C_15  and  O_16 
REMARK    6  A    between atoms: C_21  and  C_22 
ROOT
HETATM    1  C   UNL     1      24.793  42.230  49.022  1.00  0.00     0.170 A 
HETATM    2  N   UNL     1      24.359  43.431  49.479  1.00  0.00    -0.163 NA
HETATM    3  N   UNL     1      25.156  43.683  50.530  1.00  0.00    -0.238 N 
HETATM    4  C   UNL     1      26.003  42.653  50.840  1.00  0.00     0.145 A 
HETATM    5  N   UNL     1      26.819  42.720  51.923  1.00  0.00    -0.365 N 
HETATM    6  C   UNL     1      26.581  43.725  52.954  1.00  0.00     0.118 C 
HETATM    7  C   UNL     1      26.204  45.053  52.285  1.00  0.00     0.066 C 
HETATM    8  C   UNL     1      24.991  44.870  51.354  1.00  0.00     0.221 C 
HETATM    9  C   UNL     1      25.812  41.703  49.863  1.00  0.00     0.115 A 
HETATM   10 CL   UNL     1      26.624  40.221  49.718  1.00  0.00    -0.077 Cl
HETATM   11  H   UNL     1      27.294  41.874  52.242  1.00  0.00     0.162 HD
ENDROOT
BRANCH   6  12
HETATM   12  C   UNL     1      27.810  43.895  53.825  1.00  0.00    -0.035 A 
HETATM   13  C   UNL     1      28.034  45.069  54.560  1.00  0.00     0.012 A 
HETATM   14  C   UNL     1      29.152  45.187  55.389  1.00  0.00     0.037 A 
HETATM   15  C   UNL     1      30.061  44.136  55.515  1.00  0.00     0.068 A 
HETATM   16  C   UNL     1      29.849  42.965  54.789  1.00  0.00     0.037 A 
HETATM   17  C   UNL     1      28.732  42.845  53.952  1.00  0.00     0.012 A 
BRANCH  15  18
HETATM   18  O   UNL     1      31.102  44.379  56.368  1.00  0.00    -0.356 OA
HETATM   19  C   UNL     1      31.633  43.262  57.068  1.00  0.00     0.210 C 
ENDBRANCH  15  18
ENDBRANCH   6  12
BRANCH   8  20
HETATM   20  C   UNL     1      24.794  46.120  50.523  1.00  0.00     0.409 C 
HETATM   21  F   UNL     1      25.740  46.262  49.569  1.00  0.00    -0.169 F 
HETATM   22  F   UNL     1      23.582  46.180  49.929  1.00  0.00    -0.169 F 
HETATM   23  F   UNL     1      24.876  47.217  51.321  1.00  0.00    -0.169 F 
ENDBRANCH   8  20
BRANCH   1  24
HETATM   24  C   UNL     1      24.211  41.635  47.808  1.00  0.00     0.273 C 
HETATM   25  N   UNL     1      23.566  40.440  48.050  1.00  0.00    -0.356 N 
HETATM   26  H   UNL     1      23.599  40.106  49.011  1.00  0.00     0.162 HD
HETATM   27  O   UNL     1      24.280  42.145  46.695  1.00  0.00    -0.266 OA
BRANCH  25  28
HETATM   28  C   UNL     1      22.902  39.674  47.024  1.00  0.00     0.122 C 
BRANCH  28  29
HETATM   29  C   UNL     1      21.436  40.071  46.876  1.00  0.00     0.015 C 
HETATM   30  C   UNL     1      20.511  38.932  47.269  1.00  0.00     0.006 C 
ENDBRANCH  28  29
ENDBRANCH  25  28
ENDBRANCH   1  24
TORSDOF 6
ENDMDL
MODEL 9
REMARK VINA RESULT:      -7.5      4.050      7.106
REMARK  6 active torsions:
REMARK  status: ('A' for Active; 'I' for Inactive)
REMARK    1  A    between atoms: C_2  and  C_3 
REMARK    2  A    between atoms: C_3  and  N_4 
REMARK       I    between atoms: N_4  and  C_5 
REMARK    3  A    between atoms: C_5  and  C_6 
REMARK    4  A    between atoms: C_11  and  C_12 
REMARK    5  A    between atoms: C_15  and  O_16 
REMARK    6  A    between atoms: C_21  and  C_22 
ROOT
HETATM    1  C   UNL     1      27.437  40.970  50.116  1.00  0.00     0.170 A 
HETATM    2  N   UNL     1      27.815  41.660  51.222  1.00  0.00    -0.163 NA
HETATM    3  N   UNL     1      27.379  42.908  50.988  1.00  0.00    -0.238 N 
HETATM    4  C   UNL     1      26.843  43.081  49.739  1.00  0.00     0.145 A 
HETATM    5  N   UNL     1      26.427  44.303  49.319  1.00  0.00    -0.365 N 
HETATM    6  C   UNL     1      26.840  45.501  50.043  1.00  0.00     0.118 C 
HETATM    7  C   UNL     1      26.776  45.227  51.551  1.00  0.00     0.066 C 
HETATM    8  C   UNL     1      27.629  43.999  51.918  1.00  0.00     0.221 C 
HETATM    9  C   UNL     1      26.841  41.834  49.157  1.00  0.00     0.115 A 
HETATM   10 CL   UNL     1      26.253  41.437  47.615  1.00  0.00    -0.077 Cl
HETATM   11  H   UNL     1      26.214  44.444  48.330  1.00  0.00     0.162 HD
ENDROOT
BRANCH   6  12
HETATM   12  C   UNL     1      25.954  46.676  49.675  1.00  0.00    -0.035 A 
HETATM   13  C   UNL     1      24.555  46.576  49.697  1.00  0.00     0.012 A 
HETATM   14  C   UNL     1      23.758  47.683  49.396  1.00  0.00     0.037 A 
HETATM   15  C   UNL     1      24.335  48.913  49.081  1.00  0.00     0.068 A 
HETATM   16  C   UNL     1      25.725  49.024  49.056  1.00  0.00     0.037 A 
HETATM   17  C   UNL     1      26.527  47.915  49.353  1.00  0.00     0.012 A 
BRANCH  15  18
HETATM   18  O   UNL     1      23.442  49.915  48.820  1.00  0.00    -0.356 OA
HETATM   19  C   UNL     1      22.244  49.923  49.586  1.00  0.00     0.210 C 
ENDBRANCH  15  18
ENDBRANCH   6  12
BRANCH   8  20
HETATM   20  C   UNL     1      27.356  43.599  53.352  1.00  0.00     0.409 C 
HETATM   21  F   UNL     1      26.043  43.383  53.588  1.00  0.00    -0.169 F 
HETATM   22  F   UNL     1      28.042  42.502  53.740  1.00  0.00    -0.169 F 
HETATM   23  F   UNL     1      27.744  44.600  54.187  1.00  0.00    -0.169 F 
ENDBRANCH   8  20
BRANCH   1  24
HETATM   24  C   UNL     1      27.669  39.519  50.022  1.00  0.00     0.273 C 
HETATM   25  N   UNL     1      28.984  39.169  50.250  1.00  0.00    -0.356 N 
HETATM   26  H   UNL     1      29.624  39.941  50.418  1.00  0.00     0.162 HD
HETATM   27  O   UNL     1      26.790  38.701  49.776  1.00  0.00    -0.266 OA
BRANCH  25  28
HETATM   28  C   UNL     1      29.456  37.806  50.230  1.00  0.00     0.122 C 
BRANCH  28  29
HETATM   29  C   UNL     1      30.011  37.376  51.584  1.00  0.00     0.015 C 
HETATM   30  C   UNL     1      29.896  35.874  51.779  1.00  0.00     0.006 C 
ENDBRANCH  28  29
ENDBRANCH  25  28
ENDBRANCH   1  24
TORSDOF 6
ENDMDL
MODEL 10
REMARK VINA RESULT:      -7.5      7.061     10.482
REMARK  6 active torsions:
REMARK  status: ('A' for Active; 'I' for Inactive)
REMARK    1  A    between atoms: C_2  and  C_3 
REMARK    2  A    between atoms: C_3  and  N_4 
REMARK       I    between atoms: N_4  and  C_5 
REMARK    3  A    between atoms: C_5  and  C_6 
REMARK    4  A    between atoms: C_11  and  C_12 
REMARK    5  A    between atoms: C_15  and  O_16 
REMARK    6  A    between atoms: C_21  and  C_22 
ROOT
HETATM    1  C   UNL     1      22.178  46.551  48.170  1.00  0.00     0.170 A 
HETATM    2  N   UNL     1      22.731  47.751  47.857  1.00  0.00    -0.163 NA
HETATM    3  N   UNL     1      21.714  48.618  47.989  1.00  0.00    -0.238 N 
HETATM    4  C   UNL     1      20.511  48.021  48.259  1.00  0.00     0.145 A 
HETATM    5  N   UNL     1      19.371  48.753  48.346  1.00  0.00    -0.365 N 
HETATM    6  C   UNL     1      19.342  50.120  47.833  1.00  0.00     0.118 C 
HETATM    7  C   UNL     1      20.651  50.827  48.206  1.00  0.00     0.066 C 
HETATM    8  C   UNL     1      21.865  50.034  47.690  1.00  0.00     0.221 C 
HETATM    9  C   UNL     1      20.783  46.681  48.410  1.00  0.00     0.115 A 
HETATM   10 CL   UNL     1      19.670  45.459  48.793  1.00  0.00    -0.077 Cl
HETATM   11  H   UNL     1      18.470  48.273  48.354  1.00  0.00     0.162 HD
ENDROOT
BRANCH   6  12
HETATM   12  C   UNL     1      18.150  50.872  48.391  1.00  0.00    -0.035 A 
HETATM   13  C   UNL     1      16.834  50.482  48.102  1.00  0.00     0.012 A 
HETATM   14  C   UNL     1      15.750  51.164  48.662  1.00  0.00     0.037 A 
HETATM   15  C   UNL     1      15.954  52.236  49.531  1.00  0.00     0.068 A 
HETATM   16  C   UNL     1      17.258  52.633  49.825  1.00  0.00     0.037 A 
HETATM   17  C   UNL     1      18.346  51.955  49.261  1.00  0.00     0.012 A 
BRANCH  15  18
HETATM   18  O   UNL     1      14.809  52.804  50.017  1.00  0.00    -0.356 OA
HETATM   19  C   UNL     1      14.964  53.907  50.900  1.00  0.00     0.210 C 
ENDBRANCH  15  18
ENDBRANCH   6  12
BRANCH   8  20
HETATM   20  C   UNL     1      23.136  50.608  48.278  1.00  0.00     0.409 C 
HETATM   21  F   UNL     1      24.235  50.269  47.568  1.00  0.00    -0.169 F 
HETATM   22  F   UNL     1      23.108  51.953  48.398  1.00  0.00    -0.169 F 
HETATM   23  F   UNL     1      23.317  50.123  49.535  1.00  0.00    -0.169 F 
ENDBRANCH   8  20
BRANCH   1  24
HETATM   24  C   UNL     1      23.006  45.335  48.219  1.00  0.00     0.273 C 
HETATM   25  N   UNL     1      24.170  45.505  48.939  1.00  0.00    -0.356 N 
HETATM   26  H   UNL     1      24.327  46.438  49.312  1.00  0.00     0.162 HD
HETATM   27  O   UNL     1      22.697  44.275  47.685  1.00  0.00    -0.266 OA
BRANCH  25  28
HETATM   28  C   UNL     1      25.136  44.454  49.144  1.00  0.00     0.122 C 
BRANCH  28  29
HETATM   29  C   UNL     1      26.446  44.989  49.714  1.00  0.00     0.015 C 
HETATM   30  C   UNL     1      26.470  46.508  49.716  1.00  0.00     0.006 C 
ENDBRANCH  28  29
ENDBRANCH  25  28
ENDBRANCH   1  24
TORSDOF 6
ENDMDL
