MODEL 1
REMARK VINA RESULT:      -9.9      0.000      0.000
REMARK  5 active torsions:
REMARK  status: ('A' for Active; 'I' for Inactive)
REMARK    1  A    between atoms: O_2  and  C_3 
REMARK    2  A    between atoms: C_6  and  C_7 
REMARK    3  A    between atoms: C_12  and  C_13 
REMARK    4  A    between atoms: N_14  and  N_15 
REMARK       I    between atoms: N_15  and  C_16 
REMARK    5  A    between atoms: C_16  and  C_17 
ROOT
HETATM    1  C   UNL     1      27.673  43.701  51.209  1.00  0.00     0.154 C 
HETATM    2  N   UNL     1      26.423  44.039  51.149  1.00  0.00    -0.183 NA
ENDROOT
BRANCH   1   3
HETATM    3  C   UNL     1      28.025  42.470  51.883  1.00  0.00     0.031 A 
HETATM    4  C   UNL     1      28.644  42.280  53.160  1.00  0.00     0.100 A 
HETATM    5  N   UNL     1      28.848  40.973  53.401  1.00  0.00    -0.174 NA
HETATM    6  N   UNL     1      28.345  40.347  52.331  1.00  0.00    -0.288 N 
HETATM    7  H   UNL     1      28.385  39.334  52.304  1.00  0.00     0.188 HD
HETATM    8  C   UNL     1      27.839  41.192  51.395  1.00  0.00     0.124 A 
BRANCH   4   9
HETATM    9  C   UNL     1      29.055  43.282  54.147  1.00  0.00    -0.005 A 
HETATM   10  C   UNL     1      28.201  44.349  54.456  1.00  0.00     0.016 A 
HETATM   11  C   UNL     1      28.570  45.317  55.399  1.00  0.00     0.037 A 
HETATM   12  C   UNL     1      29.803  45.231  56.043  1.00  0.00     0.068 A 
HETATM   13  C   UNL     1      30.664  44.177  55.727  1.00  0.00     0.037 A 
HETATM   14  C   UNL     1      30.299  43.213  54.781  1.00  0.00     0.016 A 
BRANCH  12  15
HETATM   15  O   UNL     1      30.285  46.101  56.981  1.00  0.00    -0.356 OA
HETATM   16  C   UNL     1      30.584  45.561  58.262  1.00  0.00     0.210 C 
ENDBRANCH  12  15
ENDBRANCH   4   9
ENDBRANCH   1   3
BRANCH   2  17
HETATM   17  N   UNL     1      26.070  45.198  50.502  1.00  0.00    -0.243 N 
HETATM   18  C   UNL     1      26.013  46.469  51.060  1.00  0.00     0.271 C 
HETATM   19  O   UNL     1      26.260  46.752  52.227  1.00  0.00    -0.266 OA
HETATM   20  H   UNL     1      26.119  45.114  49.492  1.00  0.00     0.192 HD
BRANCH  18  21
HETATM   21  C   UNL     1      25.656  47.570  50.116  1.00  0.00     0.036 A 
HETATM   22  C   UNL     1      24.323  47.876  49.804  1.00  0.00     0.057 A 
HETATM   23  C   UNL     1      24.096  48.920  48.929  1.00  0.00     0.106 A 
HETATM   24  C   UNL     1      25.124  49.652  48.381  1.00  0.00     0.105 A 
HETATM   25  O   UNL     1      22.874  49.352  48.515  1.00  0.00    -0.323 OA
HETATM   26  O   UNL     1      24.677  50.634  47.553  1.00  0.00    -0.323 OA
HETATM   27  C   UNL     1      26.441  49.388  48.679  1.00  0.00     0.041 A 
HETATM   28  C   UNL     1      23.250  50.441  47.644  1.00  0.00     0.352 A 
HETATM   29  C   UNL     1      26.707  48.335  49.560  1.00  0.00     0.020 A 
ENDBRANCH  18  21
ENDBRANCH   2  17
TORSDOF 5
ENDMDL
MODEL 2
REMARK VINA RESULT:      -8.8      1.407      2.137
REMARK  5 active torsions:
REMARK  status: ('A' for Active; 'I' for Inactive)
REMARK    1  A    between atoms: O_2  and  C_3 
REMARK    2  A    between atoms: C_6  and  C_7 
REMARK    3  A    between atoms: C_12  and  C_13 
REMARK    4  A    between atoms: N_14  and  N_15 
REMARK       I    between atoms: N_15  and  C_16 
REMARK    5  A    between atoms: C_16  and  C_17 
ROOT
HETATM    1  C   UNL     1      26.684  43.480  51.716  1.00  0.00     0.154 C 
HETATM    2  N   UNL     1      25.916  43.387  50.677  1.00  0.00    -0.183 NA
ENDROOT
BRANCH   1   3
HETATM    3  C   UNL     1      27.581  42.384  52.013  1.00  0.00     0.031 A 
HETATM    4  C   UNL     1      28.603  42.293  53.012  1.00  0.00     0.100 A 
HETATM    5  N   UNL     1      29.251  41.118  52.925  1.00  0.00    -0.174 NA
HETATM    6  N   UNL     1      28.641  40.466  51.929  1.00  0.00    -0.288 N 
HETATM    7  H   UNL     1      28.968  39.535  51.693  1.00  0.00     0.188 HD
HETATM    8  C   UNL     1      27.637  41.174  51.350  1.00  0.00     0.124 A 
BRANCH   4   9
HETATM    9  C   UNL     1      28.992  43.273  54.029  1.00  0.00    -0.005 A 
HETATM   10  C   UNL     1      30.209  43.128  54.709  1.00  0.00     0.016 A 
HETATM   11  C   UNL     1      30.605  44.054  55.683  1.00  0.00     0.037 A 
HETATM   12  C   UNL     1      29.784  45.136  55.992  1.00  0.00     0.068 A 
HETATM   13  C   UNL     1      28.563  45.277  55.328  1.00  0.00     0.037 A 
HETATM   14  C   UNL     1      28.164  44.350  54.359  1.00  0.00     0.016 A 
BRANCH  12  15
HETATM   15  O   UNL     1      30.048  46.111  56.914  1.00  0.00    -0.356 OA
HETATM   16  C   UNL     1      30.494  45.680  58.193  1.00  0.00     0.210 C 
ENDBRANCH  12  15
ENDBRANCH   4   9
ENDBRANCH   1   3
BRANCH   2  17
HETATM   17  N   UNL     1      25.067  44.424  50.373  1.00  0.00    -0.243 N 
HETATM   18  C   UNL     1      25.406  45.601  49.716  1.00  0.00     0.271 C 
HETATM   19  O   UNL     1      26.526  45.903  49.316  1.00  0.00    -0.266 OA
HETATM   20  H   UNL     1      24.090  44.154  50.411  1.00  0.00     0.192 HD
BRANCH  18  21
HETATM   21  C   UNL     1      24.274  46.540  49.456  1.00  0.00     0.036 A 
HETATM   22  C   UNL     1      24.350  47.902  49.785  1.00  0.00     0.057 A 
HETATM   23  C   UNL     1      23.254  48.689  49.494  1.00  0.00     0.106 A 
HETATM   24  C   UNL     1      22.125  48.181  48.893  1.00  0.00     0.105 A 
HETATM   25  O   UNL     1      23.152  50.023  49.743  1.00  0.00    -0.323 OA
HETATM   26  O   UNL     1      21.172  49.130  48.692  1.00  0.00    -0.323 OA
HETATM   27  C   UNL     1      22.026  46.854  48.544  1.00  0.00     0.041 A 
HETATM   28  C   UNL     1      21.829  50.296  49.231  1.00  0.00     0.352 A 
HETATM   29  C   UNL     1      23.117  46.027  48.827  1.00  0.00     0.020 A 
ENDBRANCH  18  21
ENDBRANCH   2  17
TORSDOF 5
ENDMDL
MODEL 3
REMARK VINA RESULT:      -8.5      3.806      6.810
REMARK  5 active torsions:
REMARK  status: ('A' for Active; 'I' for Inactive)
REMARK    1  A    between atoms: O_2  and  C_3 
REMARK    2  A    between atoms: C_6  and  C_7 
REMARK    3  A    between atoms: C_12  and  C_13 
REMARK    4  A    between atoms: N_14  and  N_15 
REMARK       I    between atoms: N_15  and  C_16 
REMARK    5  A    between atoms: C_16  and  C_17 
ROOT
HETATM    1  C   UNL     1      26.895  44.857  53.465  1.00  0.00     0.154 C 
HETATM    2  N   UNL     1      26.811  44.829  52.173  1.00  0.00    -0.183 NA
ENDROOT
BRANCH   1   3
HETATM    3  C   UNL     1      26.766  46.132  54.139  1.00  0.00     0.031 A 
HETATM    4  C   UNL     1      27.494  46.642  55.261  1.00  0.00     0.100 A 
HETATM    5  N   UNL     1      27.032  47.854  55.617  1.00  0.00    -0.174 NA
HETATM    6  N   UNL     1      26.066  48.124  54.732  1.00  0.00    -0.288 N 
HETATM    7  H   UNL     1      25.577  49.009  54.810  1.00  0.00     0.188 HD
HETATM    8  C   UNL     1      25.865  47.131  53.827  1.00  0.00     0.124 A 
BRANCH   4   9
HETATM    9  C   UNL     1      28.595  46.027  56.007  1.00  0.00    -0.005 A 
HETATM   10  C   UNL     1      28.739  46.286  57.377  1.00  0.00     0.016 A 
HETATM   11  C   UNL     1      29.781  45.706  58.112  1.00  0.00     0.037 A 
HETATM   12  C   UNL     1      30.696  44.863  57.484  1.00  0.00     0.068 A 
HETATM   13  C   UNL     1      30.564  44.614  56.116  1.00  0.00     0.037 A 
HETATM   14  C   UNL     1      29.528  45.197  55.379  1.00  0.00     0.016 A 
BRANCH  12  15
HETATM   15  O   UNL     1      31.752  44.232  58.081  1.00  0.00    -0.356 OA
HETATM   16  C   UNL     1      32.309  43.121  57.389  1.00  0.00     0.210 C 
ENDBRANCH  12  15
ENDBRANCH   4   9
ENDBRANCH   1   3
BRANCH   2  17
HETATM   17  N   UNL     1      26.919  43.627  51.517  1.00  0.00    -0.243 N 
HETATM   18  C   UNL     1      26.977  43.440  50.141  1.00  0.00     0.271 C 
HETATM   19  O   UNL     1      26.929  44.326  49.294  1.00  0.00    -0.266 OA
HETATM   20  H   UNL     1      27.240  42.878  52.122  1.00  0.00     0.192 HD
BRANCH  18  21
HETATM   21  C   UNL     1      27.155  42.027  49.692  1.00  0.00     0.036 A 
HETATM   22  C   UNL     1      27.982  41.127  50.381  1.00  0.00     0.057 A 
HETATM   23  C   UNL     1      28.070  39.840  49.892  1.00  0.00     0.106 A 
HETATM   24  C   UNL     1      27.373  39.429  48.779  1.00  0.00     0.105 A 
HETATM   25  O   UNL     1      28.822  38.841  50.430  1.00  0.00    -0.323 OA
HETATM   26  O   UNL     1      27.600  38.123  48.477  1.00  0.00    -0.323 OA
HETATM   27  C   UNL     1      26.541  40.282  48.090  1.00  0.00     0.041 A 
HETATM   28  C   UNL     1      28.517  37.754  49.527  1.00  0.00     0.352 A 
HETATM   29  C   UNL     1      26.430  41.596  48.557  1.00  0.00     0.020 A 
ENDBRANCH  18  21
ENDBRANCH   2  17
TORSDOF 5
ENDMDL
MODEL 4
REMARK VINA RESULT:      -8.4      3.805      8.402
REMARK  5 active torsions:
REMARK  status: ('A' for Active; 'I' for Inactive)
REMARK    1  A    between atoms: O_2  and  C_3 
REMARK    2  A    between atoms: C_6  and  C_7 
REMARK    3  A    between atoms: C_12  and  C_13 
REMARK    4  A    between atoms: N_14  and  N_15 
REMARK       I    between atoms: N_15  and  C_16 
REMARK    5  A    between atoms: C_16  and  C_17 
ROOT
HETATM    1  C   UNL     1      26.570  44.625  51.493  1.00  0.00     0.154 C 
HETATM    2  N   UNL     1      26.573  43.741  52.440  1.00  0.00    -0.183 NA
ENDROOT
BRANCH   1   3
HETATM    3  C   UNL     1      25.631  44.468  50.403  1.00  0.00     0.031 A 
HETATM    4  C   UNL     1      25.451  43.362  49.513  1.00  0.00     0.100 A 
HETATM    5  N   UNL     1      24.501  43.634  48.600  1.00  0.00    -0.174 NA
HETATM    6  N   UNL     1      24.066  44.859  48.917  1.00  0.00    -0.288 N 
HETATM    7  H   UNL     1      23.328  45.267  48.353  1.00  0.00     0.188 HD
HETATM    8  C   UNL     1      24.704  45.403  49.985  1.00  0.00     0.124 A 
BRANCH   4   9
HETATM    9  C   UNL     1      26.144  42.071  49.489  1.00  0.00    -0.005 A 
HETATM   10  C   UNL     1      27.240  41.883  48.636  1.00  0.00     0.016 A 
HETATM   11  C   UNL     1      27.921  40.659  48.599  1.00  0.00     0.037 A 
HETATM   12  C   UNL     1      27.510  39.605  49.412  1.00  0.00     0.068 A 
HETATM   13  C   UNL     1      26.409  39.783  50.253  1.00  0.00     0.037 A 
HETATM   14  C   UNL     1      25.724  41.003  50.287  1.00  0.00     0.016 A 
BRANCH  12  15
HETATM   15  O   UNL     1      28.084  38.366  49.478  1.00  0.00    -0.356 OA
HETATM   16  C   UNL     1      29.482  38.293  49.231  1.00  0.00     0.210 C 
ENDBRANCH  12  15
ENDBRANCH   4   9
ENDBRANCH   1   3
BRANCH   2  17
HETATM   17  N   UNL     1      27.449  43.881  53.489  1.00  0.00    -0.243 N 
HETATM   18  C   UNL     1      28.816  43.632  53.460  1.00  0.00     0.271 C 
HETATM   19  O   UNL     1      29.452  43.234  52.490  1.00  0.00    -0.266 OA
HETATM   20  H   UNL     1      27.077  44.458  54.236  1.00  0.00     0.192 HD
BRANCH  18  21
HETATM   21  C   UNL     1      29.548  43.923  54.728  1.00  0.00     0.036 A 
HETATM   22  C   UNL     1      29.260  45.052  55.509  1.00  0.00     0.057 A 
HETATM   23  C   UNL     1      29.986  45.225  56.671  1.00  0.00     0.106 A 
HETATM   24  C   UNL     1      30.951  44.331  57.072  1.00  0.00     0.105 A 
HETATM   25  O   UNL     1      29.842  46.259  57.544  1.00  0.00    -0.323 OA
HETATM   26  O   UNL     1      31.537  44.691  58.246  1.00  0.00    -0.323 OA
HETATM   27  C   UNL     1      31.247  43.206  56.337  1.00  0.00     0.041 A 
HETATM   28  C   UNL     1      30.828  45.912  58.542  1.00  0.00     0.352 A 
HETATM   29  C   UNL     1      30.532  43.000  55.153  1.00  0.00     0.020 A 
ENDBRANCH  18  21
ENDBRANCH   2  17
TORSDOF 5
ENDMDL
MODEL 5
REMARK VINA RESULT:      -8.4      2.011      8.098
REMARK  5 active torsions:
REMARK  status: ('A' for Active; 'I' for Inactive)
REMARK    1  A    between atoms: O_2  and  C_3 
REMARK    2  A    between atoms: C_6  and  C_7 
REMARK    3  A    between atoms: C_12  and  C_13 
REMARK    4  A    between atoms: N_14  and  N_15 
REMARK       I    between atoms: N_15  and  C_16 
REMARK    5  A    between atoms: C_16  and  C_17 
ROOT
HETATM    1  C   UNL     1      27.644  42.393  51.058  1.00  0.00     0.154 C 
HETATM    2  N   UNL     1      27.177  42.555  52.255  1.00  0.00    -0.183 NA
ENDROOT
BRANCH   1   3
HETATM    3  C   UNL     1      26.720  42.056  49.996  1.00  0.00     0.031 A 
HETATM    4  C   UNL     1      25.787  42.894  49.305  1.00  0.00     0.100 A 
HETATM    5  N   UNL     1      25.073  42.181  48.416  1.00  0.00    -0.174 NA
HETATM    6  N   UNL     1      25.558  40.937  48.510  1.00  0.00    -0.288 N 
HETATM    7  H   UNL     1      25.162  40.221  47.910  1.00  0.00     0.188 HD
HETATM    8  C   UNL     1      26.543  40.806  49.436  1.00  0.00     0.124 A 
BRANCH   4   9
HETATM    9  C   UNL     1      25.542  44.330  49.461  1.00  0.00    -0.005 A 
HETATM   10  C   UNL     1      24.232  44.824  49.403  1.00  0.00     0.016 A 
HETATM   11  C   UNL     1      23.972  46.193  49.553  1.00  0.00     0.037 A 
HETATM   12  C   UNL     1      25.022  47.085  49.760  1.00  0.00     0.068 A 
HETATM   13  C   UNL     1      26.330  46.599  49.804  1.00  0.00     0.037 A 
HETATM   14  C   UNL     1      26.592  45.233  49.647  1.00  0.00     0.016 A 
BRANCH  12  15
HETATM   15  O   UNL     1      24.910  48.438  49.925  1.00  0.00    -0.356 OA
HETATM   16  C   UNL     1      25.251  49.251  48.809  1.00  0.00     0.210 C 
ENDBRANCH  12  15
ENDBRANCH   4   9
ENDBRANCH   1   3
BRANCH   2  17
HETATM   17  N   UNL     1      28.037  42.888  53.274  1.00  0.00    -0.243 N 
HETATM   18  C   UNL     1      28.312  44.170  53.735  1.00  0.00     0.271 C 
HETATM   19  O   UNL     1      27.836  45.209  53.292  1.00  0.00    -0.266 OA
HETATM   20  H   UNL     1      28.259  42.099  53.873  1.00  0.00     0.192 HD
BRANCH  18  21
HETATM   21  C   UNL     1      29.244  44.247  54.899  1.00  0.00     0.036 A 
HETATM   22  C   UNL     1      29.160  45.275  55.850  1.00  0.00     0.057 A 
HETATM   23  C   UNL     1      30.060  45.251  56.897  1.00  0.00     0.106 A 
HETATM   24  C   UNL     1      31.004  44.258  57.028  1.00  0.00     0.105 A 
HETATM   25  O   UNL     1      30.125  46.164  57.903  1.00  0.00    -0.323 OA
HETATM   26  O   UNL     1      31.781  44.424  58.132  1.00  0.00    -0.323 OA
HETATM   27  C   UNL     1      31.102  43.227  56.123  1.00  0.00     0.041 A 
HETATM   28  C   UNL     1      31.218  45.632  58.684  1.00  0.00     0.352 A 
HETATM   29  C   UNL     1      30.207  43.222  55.048  1.00  0.00     0.020 A 
ENDBRANCH  18  21
ENDBRANCH   2  17
TORSDOF 5
ENDMDL
MODEL 6
REMARK VINA RESULT:      -8.2      2.220      8.383
REMARK  5 active torsions:
REMARK  status: ('A' for Active; 'I' for Inactive)
REMARK    1  A    between atoms: O_2  and  C_3 
REMARK    2  A    between atoms: C_6  and  C_7 
REMARK    3  A    between atoms: C_12  and  C_13 
REMARK    4  A    between atoms: N_14  and  N_15 
REMARK       I    between atoms: N_15  and  C_16 
REMARK    5  A    between atoms: C_16  and  C_17 
ROOT
HETATM    1  C   UNL     1      25.692  43.584  51.035  1.00  0.00     0.154 C 
HETATM    2  N   UNL     1      26.974  43.769  51.028  1.00  0.00    -0.183 NA
ENDROOT
BRANCH   1   3
HETATM    3  C   UNL     1      25.023  43.333  49.776  1.00  0.00     0.031 A 
HETATM    4  C   UNL     1      24.278  44.233  48.949  1.00  0.00     0.100 A 
HETATM    5  N   UNL     1      23.770  43.590  47.882  1.00  0.00    -0.174 NA
HETATM    6  N   UNL     1      24.204  42.331  48.006  1.00  0.00    -0.288 N 
HETATM    7  H   UNL     1      23.941  41.661  47.291  1.00  0.00     0.188 HD
HETATM    8  C   UNL     1      24.956  42.121  49.117  1.00  0.00     0.124 A 
BRANCH   4   9
HETATM    9  C   UNL     1      24.024  45.664  49.133  1.00  0.00    -0.005 A 
HETATM   10  C   UNL     1      24.984  46.467  49.764  1.00  0.00     0.016 A 
HETATM   11  C   UNL     1      24.766  47.839  49.949  1.00  0.00     0.037 A 
HETATM   12  C   UNL     1      23.581  48.424  49.507  1.00  0.00     0.068 A 
HETATM   13  C   UNL     1      22.615  47.624  48.891  1.00  0.00     0.037 A 
HETATM   14  C   UNL     1      22.829  46.253  48.712  1.00  0.00     0.016 A 
BRANCH  12  15
HETATM   15  O   UNL     1      23.242  49.744  49.619  1.00  0.00    -0.356 OA
HETATM   16  C   UNL     1      23.566  50.585  48.520  1.00  0.00     0.210 C 
ENDBRANCH  12  15
ENDBRANCH   4   9
ENDBRANCH   1   3
BRANCH   2  17
HETATM   17  N   UNL     1      27.627  43.997  52.215  1.00  0.00    -0.243 N 
HETATM   18  C   UNL     1      28.691  43.262  52.725  1.00  0.00     0.271 C 
HETATM   19  O   UNL     1      29.205  42.282  52.196  1.00  0.00    -0.266 OA
HETATM   20  H   UNL     1      27.464  44.930  52.580  1.00  0.00     0.192 HD
BRANCH  18  21
HETATM   21  C   UNL     1      29.259  43.762  54.012  1.00  0.00     0.036 A 
HETATM   22  C   UNL     1      28.671  44.820  54.721  1.00  0.00     0.057 A 
HETATM   23  C   UNL     1      29.265  45.200  55.908  1.00  0.00     0.106 A 
HETATM   24  C   UNL     1      30.385  44.571  56.401  1.00  0.00     0.105 A 
HETATM   25  O   UNL     1      28.833  46.203  56.720  1.00  0.00    -0.323 OA
HETATM   26  O   UNL     1      30.799  45.100  57.583  1.00  0.00    -0.323 OA
HETATM   27  C   UNL     1      30.976  43.520  55.738  1.00  0.00     0.041 A 
HETATM   28  C   UNL     1      29.810  46.132  57.783  1.00  0.00     0.352 A 
HETATM   29  C   UNL     1      30.401  43.110  54.531  1.00  0.00     0.020 A 
ENDBRANCH  18  21
ENDBRANCH   2  17
TORSDOF 5
ENDMDL
MODEL 7
REMARK VINA RESULT:      -8.1      3.746      9.722
REMARK  5 active torsions:
REMARK  status: ('A' for Active; 'I' for Inactive)
REMARK    1  A    between atoms: O_2  and  C_3 
REMARK    2  A    between atoms: C_6  and  C_7 
REMARK    3  A    between atoms: C_12  and  C_13 
REMARK    4  A    between atoms: N_14  and  N_15 
REMARK       I    between atoms: N_15  and  C_16 
REMARK    5  A    between atoms: C_16  and  C_17 
ROOT
HETATM    1  C   UNL     1      24.739  48.017  49.399  1.00  0.00     0.154 C 
HETATM    2  N   UNL     1      24.556  47.812  50.665  1.00  0.00    -0.183 NA
ENDROOT
BRANCH   1   3
HETATM    3  C   UNL     1      23.965  49.051  48.746  1.00  0.00     0.031 A 
HETATM    4  C   UNL     1      22.648  48.982  48.187  1.00  0.00     0.100 A 
HETATM    5  N   UNL     1      22.308  50.155  47.623  1.00  0.00    -0.174 NA
HETATM    6  N   UNL     1      23.357  50.956  47.844  1.00  0.00    -0.288 N 
HETATM    7  H   UNL     1      23.311  51.910  47.505  1.00  0.00     0.188 HD
HETATM    8  C   UNL     1      24.373  50.349  48.511  1.00  0.00     0.124 A 
BRANCH   4   9
HETATM    9  C   UNL     1      21.713  47.855  48.160  1.00  0.00    -0.005 A 
HETATM   10  C   UNL     1      20.489  47.947  48.837  1.00  0.00     0.016 A 
HETATM   11  C   UNL     1      19.577  46.884  48.822  1.00  0.00     0.037 A 
HETATM   12  C   UNL     1      19.880  45.712  48.132  1.00  0.00     0.068 A 
HETATM   13  C   UNL     1      21.104  45.610  47.468  1.00  0.00     0.037 A 
HETATM   14  C   UNL     1      22.019  46.669  47.487  1.00  0.00     0.016 A 
BRANCH  12  15
HETATM   15  O   UNL     1      19.083  44.605  48.033  1.00  0.00    -0.356 OA
HETATM   16  C   UNL     1      18.415  44.404  46.794  1.00  0.00     0.210 C 
ENDBRANCH  12  15
ENDBRANCH   4   9
ENDBRANCH   1   3
BRANCH   2  17
HETATM   17  N   UNL     1      25.291  46.844  51.303  1.00  0.00    -0.243 N 
HETATM   18  C   UNL     1      25.703  46.862  52.631  1.00  0.00     0.271 C 
HETATM   19  O   UNL     1      25.483  47.759  53.438  1.00  0.00    -0.266 OA
HETATM   20  H   UNL     1      25.282  45.956  50.811  1.00  0.00     0.192 HD
BRANCH  18  21
HETATM   21  C   UNL     1      26.443  45.650  53.090  1.00  0.00     0.036 A 
HETATM   22  C   UNL     1      26.430  44.451  52.360  1.00  0.00     0.057 A 
HETATM   23  C   UNL     1      27.156  43.390  52.864  1.00  0.00     0.106 A 
HETATM   24  C   UNL     1      27.880  43.486  54.030  1.00  0.00     0.105 A 
HETATM   25  O   UNL     1      27.255  42.160  52.292  1.00  0.00    -0.323 OA
HETATM   26  O   UNL     1      28.523  42.328  54.338  1.00  0.00    -0.323 OA
HETATM   27  C   UNL     1      27.926  44.651  54.761  1.00  0.00     0.041 A 
HETATM   28  C   UNL     1      28.125  41.491  53.232  1.00  0.00     0.352 A 
HETATM   29  C   UNL     1      27.200  45.746  54.280  1.00  0.00     0.020 A 
ENDBRANCH  18  21
ENDBRANCH   2  17
TORSDOF 5
ENDMDL
MODEL 8
REMARK VINA RESULT:      -8.0      2.692      3.824
REMARK  5 active torsions:
REMARK  status: ('A' for Active; 'I' for Inactive)
REMARK    1  A    between atoms: O_2  and  C_3 
REMARK    2  A    between atoms: C_6  and  C_7 
REMARK    3  A    between atoms: C_12  and  C_13 
REMARK    4  A    between atoms: N_14  and  N_15 
REMARK       I    between atoms: N_15  and  C_16 
REMARK    5  A    between atoms: C_16  and  C_17 
ROOT
HETATM    1  C   UNL     1      24.084  44.762  50.763  1.00  0.00     0.154 C 
HETATM    2  N   UNL     1      24.261  45.405  49.652  1.00  0.00    -0.183 NA
ENDROOT
BRANCH   1   3
HETATM    3  C   UNL     1      25.011  43.704  51.105  1.00  0.00     0.031 A 
HETATM    4  C   UNL     1      26.049  43.692  52.091  1.00  0.00     0.100 A 
HETATM    5  N   UNL     1      26.724  42.529  52.058  1.00  0.00    -0.174 NA
HETATM    6  N   UNL     1      26.115  41.809  51.109  1.00  0.00    -0.288 N 
HETATM    7  H   UNL     1      26.462  40.875  50.918  1.00  0.00     0.188 HD
HETATM    8  C   UNL     1      25.086  42.462  50.508  1.00  0.00     0.124 A 
BRANCH   4   9
HETATM    9  C   UNL     1      26.429  44.735  53.047  1.00  0.00    -0.005 A 
HETATM   10  C   UNL     1      27.506  44.524  53.919  1.00  0.00     0.016 A 
HETATM   11  C   UNL     1      27.890  45.508  54.840  1.00  0.00     0.037 A 
HETATM   12  C   UNL     1      27.198  46.715  54.902  1.00  0.00     0.068 A 
HETATM   13  C   UNL     1      26.115  46.924  54.045  1.00  0.00     0.037 A 
HETATM   14  C   UNL     1      25.726  45.941  53.129  1.00  0.00     0.016 A 
BRANCH  12  15
HETATM   15  O   UNL     1      27.468  47.757  55.746  1.00  0.00    -0.356 OA
HETATM   16  C   UNL     1      26.428  48.706  55.946  1.00  0.00     0.210 C 
ENDBRANCH  12  15
ENDBRANCH   4   9
ENDBRANCH   1   3
BRANCH   2  17
HETATM   17  N   UNL     1      23.398  46.420  49.317  1.00  0.00    -0.243 N 
HETATM   18  C   UNL     1      23.573  47.772  49.585  1.00  0.00     0.271 C 
HETATM   19  O   UNL     1      24.524  48.270  50.178  1.00  0.00    -0.266 OA
HETATM   20  H   UNL     1      22.736  46.150  48.597  1.00  0.00     0.192 HD
BRANCH  18  21
HETATM   21  C   UNL     1      22.507  48.674  49.056  1.00  0.00     0.036 A 
HETATM   22  C   UNL     1      21.229  48.199  48.724  1.00  0.00     0.057 A 
HETATM   23  C   UNL     1      20.311  49.116  48.253  1.00  0.00     0.106 A 
HETATM   24  C   UNL     1      20.612  50.451  48.118  1.00  0.00     0.105 A 
HETATM   25  O   UNL     1      19.032  48.833  47.884  1.00  0.00    -0.323 OA
HETATM   26  O   UNL     1      19.561  51.175  47.645  1.00  0.00    -0.323 OA
HETATM   27  C   UNL     1      21.849  50.952  48.450  1.00  0.00     0.041 A 
HETATM   28  C   UNL     1      18.562  50.144  47.501  1.00  0.00     0.352 A 
HETATM   29  C   UNL     1      22.806  50.050  48.927  1.00  0.00     0.020 A 
ENDBRANCH  18  21
ENDBRANCH   2  17
TORSDOF 5
ENDMDL
MODEL 9
REMARK VINA RESULT:      -7.9      3.497      5.248
REMARK  5 active torsions:
REMARK  status: ('A' for Active; 'I' for Inactive)
REMARK    1  A    between atoms: O_2  and  C_3 
REMARK    2  A    between atoms: C_6  and  C_7 
REMARK    3  A    between atoms: C_12  and  C_13 
REMARK    4  A    between atoms: N_14  and  N_15 
REMARK       I    between atoms: N_15  and  C_16 
REMARK    5  A    between atoms: C_16  and  C_17 
ROOT
HETATM    1  C   UNL     1      23.591  45.593  49.802  1.00  0.00     0.154 C 
HETATM    2  N   UNL     1      23.706  46.838  49.460  1.00  0.00    -0.183 NA
ENDROOT
BRANCH   1   3
HETATM    3  C   UNL     1      24.746  44.731  49.671  1.00  0.00     0.031 A 
HETATM    4  C   UNL     1      25.889  44.608  50.525  1.00  0.00     0.100 A 
HETATM    5  N   UNL     1      26.769  43.726  50.020  1.00  0.00    -0.174 NA
HETATM    6  N   UNL     1      26.194  43.275  48.900  1.00  0.00    -0.288 N 
HETATM    7  H   UNL     1      26.689  42.580  48.352  1.00  0.00     0.188 HD
HETATM    8  C   UNL     1      24.985  43.840  48.643  1.00  0.00     0.124 A 
BRANCH   4   9
HETATM    9  C   UNL     1      26.179  45.296  51.786  1.00  0.00    -0.005 A 
HETATM   10  C   UNL     1      26.047  46.688  51.868  1.00  0.00     0.016 A 
HETATM   11  C   UNL     1      26.315  47.368  53.063  1.00  0.00     0.037 A 
HETATM   12  C   UNL     1      26.724  46.661  54.193  1.00  0.00     0.068 A 
HETATM   13  C   UNL     1      26.871  45.274  54.111  1.00  0.00     0.037 A 
HETATM   14  C   UNL     1      26.610  44.595  52.916  1.00  0.00     0.016 A 
BRANCH  12  15
HETATM   15  O   UNL     1      27.014  47.195  55.418  1.00  0.00    -0.356 OA
HETATM   16  C   UNL     1      26.438  48.460  55.718  1.00  0.00     0.210 C 
ENDBRANCH  12  15
ENDBRANCH   4   9
ENDBRANCH   1   3
BRANCH   2  17
HETATM   17  N   UNL     1      22.623  47.674  49.590  1.00  0.00    -0.243 N 
HETATM   18  C   UNL     1      21.841  48.176  48.557  1.00  0.00     0.271 C 
HETATM   19  O   UNL     1      22.005  47.958  47.361  1.00  0.00    -0.266 OA
HETATM   20  H   UNL     1      22.247  47.684  50.533  1.00  0.00     0.192 HD
BRANCH  18  21
HETATM   21  C   UNL     1      20.683  49.018  48.980  1.00  0.00     0.036 A 
HETATM   22  C   UNL     1      20.602  50.383  48.663  1.00  0.00     0.057 A 
HETATM   23  C   UNL     1      19.485  51.072  49.090  1.00  0.00     0.106 A 
HETATM   24  C   UNL     1      18.471  50.461  49.791  1.00  0.00     0.105 A 
HETATM   25  O   UNL     1      19.243  52.393  48.874  1.00  0.00    -0.323 OA
HETATM   26  O   UNL     1      17.466  51.321  50.105  1.00  0.00    -0.323 OA
HETATM   27  C   UNL     1      18.511  49.121  50.104  1.00  0.00     0.041 A 
HETATM   28  C   UNL     1      17.959  52.544  49.520  1.00  0.00     0.352 A 
HETATM   29  C   UNL     1      19.631  48.393  49.689  1.00  0.00     0.020 A 
ENDBRANCH  18  21
ENDBRANCH   2  17
TORSDOF 5
ENDMDL
MODEL 10
REMARK VINA RESULT:      -7.8      3.329      8.974
REMARK  5 active torsions:
REMARK  status: ('A' for Active; 'I' for Inactive)
REMARK    1  A    between atoms: O_2  and  C_3 
REMARK    2  A    between atoms: C_6  and  C_7 
REMARK    3  A    between atoms: C_12  and  C_13 
REMARK    4  A    between atoms: N_14  and  N_15 
REMARK       I    between atoms: N_15  and  C_16 
REMARK    5  A    between atoms: C_16  and  C_17 
ROOT
HETATM    1  C   UNL     1      25.370  47.537  50.329  1.00  0.00     0.154 C 
HETATM    2  N   UNL     1      25.074  47.406  51.583  1.00  0.00    -0.183 NA
ENDROOT
BRANCH   1   3
HETATM    3  C   UNL     1      24.353  48.030  49.426  1.00  0.00     0.031 A 
HETATM    4  C   UNL     1      23.385  47.301  48.664  1.00  0.00     0.100 A 
HETATM    5  N   UNL     1      22.651  48.133  47.904  1.00  0.00    -0.174 NA
HETATM    6  N   UNL     1      23.110  49.355  48.196  1.00  0.00    -0.288 N 
HETATM    7  H   UNL     1      22.684  50.151  47.734  1.00  0.00     0.188 HD
HETATM    8  C   UNL     1      24.125  49.352  49.099  1.00  0.00     0.124 A 
BRANCH   4   9
HETATM    9  C   UNL     1      23.137  45.857  48.621  1.00  0.00    -0.005 A 
HETATM   10  C   UNL     1      24.207  44.962  48.758  1.00  0.00     0.016 A 
HETATM   11  C   UNL     1      23.995  43.577  48.725  1.00  0.00     0.037 A 
HETATM   12  C   UNL     1      22.708  43.071  48.550  1.00  0.00     0.068 A 
HETATM   13  C   UNL     1      21.641  43.960  48.399  1.00  0.00     0.037 A 
HETATM   14  C   UNL     1      21.852  45.343  48.425  1.00  0.00     0.016 A 
BRANCH  12  15
HETATM   15  O   UNL     1      22.361  41.749  48.503  1.00  0.00    -0.356 OA
HETATM   16  C   UNL     1      23.265  40.872  47.843  1.00  0.00     0.210 C 
ENDBRANCH  12  15
ENDBRANCH   4   9
ENDBRANCH   1   3
BRANCH   2  17
HETATM   17  N   UNL     1      26.032  46.951  52.457  1.00  0.00    -0.243 N 
HETATM   18  C   UNL     1      26.032  45.727  53.115  1.00  0.00     0.271 C 
HETATM   19  O   UNL     1      25.164  44.864  53.027  1.00  0.00    -0.266 OA
HETATM   20  H   UNL     1      26.906  47.460  52.380  1.00  0.00     0.192 HD
BRANCH  18  21
HETATM   21  C   UNL     1      27.228  45.456  53.966  1.00  0.00     0.036 A 
HETATM   22  C   UNL     1      27.938  44.248  53.886  1.00  0.00     0.057 A 
HETATM   23  C   UNL     1      29.038  44.099  54.707  1.00  0.00     0.106 A 
HETATM   24  C   UNL     1      29.447  45.089  55.570  1.00  0.00     0.105 A 
HETATM   25  O   UNL     1      29.838  43.000  54.763  1.00  0.00    -0.323 OA
HETATM   26  O   UNL     1      30.553  44.736  56.278  1.00  0.00    -0.323 OA
HETATM   27  C   UNL     1      28.783  46.291  55.661  1.00  0.00     0.041 A 
HETATM   28  C   UNL     1      30.798  43.411  55.760  1.00  0.00     0.352 A 
HETATM   29  C   UNL     1      27.662  46.474  54.845  1.00  0.00     0.020 A 
ENDBRANCH  18  21
ENDBRANCH   2  17
TORSDOF 5
ENDMDL
