MODEL 1
REMARK VINA RESULT:      -9.0      0.000      0.000
REMARK  6 active torsions:
REMARK  status: ('A' for Active; 'I' for Inactive)
REMARK    1  A    between atoms: C_5  and  C_6 
REMARK    2  A    between atoms: C_12  and  C_13 
REMARK       I    between atoms: C_13  and  N_14 
REMARK    3  A    between atoms: N_14  and  C_15 
REMARK    4  A    between atoms: C_18  and  C_19 
REMARK    5  A    between atoms: C_19  and  O_20 
REMARK    6  A    between atoms: C_25  and  C_26 
ROOT
HETATM    1  C   UNL     1      24.073  44.976  51.380  1.00  0.00     0.118 C 
HETATM    2  N   UNL     1      25.073  44.075  51.981  1.00  0.00    -0.365 N 
HETATM    3  C   UNL     1      25.566  43.028  51.259  1.00  0.00     0.138 A 
HETATM    4  N   UNL     1      24.985  42.638  50.074  1.00  0.00    -0.240 N 
HETATM    5  N   UNL     1      25.503  41.511  49.564  1.00  0.00    -0.181 NA
HETATM    6  C   UNL     1      26.518  41.240  50.391  1.00  0.00     0.160 A 
HETATM    7  C   UNL     1      26.615  42.151  51.471  1.00  0.00     0.096 A 
HETATM    8  C   UNL     1      23.797  43.236  49.497  1.00  0.00     0.221 C 
HETATM    9  C   UNL     1      23.099  44.143  50.527  1.00  0.00     0.066 C 
HETATM   10  H   UNL     1      24.889  43.911  52.974  1.00  0.00     0.161 HD
ENDROOT
BRANCH   7  11
HETATM   11  C   UNL     1      27.610  42.112  52.535  1.00  0.00     0.261 C 
HETATM   12  N   UNL     1      28.113  43.354  52.872  1.00  0.00    -0.323 N 
HETATM   13  H   UNL     1      27.781  44.124  52.302  1.00  0.00     0.169 HD
HETATM   14  O   UNL     1      27.921  41.045  53.052  1.00  0.00    -0.267 OA
BRANCH  12  15
HETATM   15  C   UNL     1      28.988  43.677  53.925  1.00  0.00     0.035 A 
HETATM   16  C   UNL     1      30.134  42.949  54.239  1.00  0.00     0.030 A 
HETATM   17  C   UNL     1      30.933  43.307  55.335  1.00  0.00     0.012 A 
HETATM   18  C   UNL     1      30.608  44.404  56.144  1.00  0.00    -0.030 A 
HETATM   19  C   UNL     1      29.452  45.131  55.817  1.00  0.00     0.012 A 
HETATM   20  C   UNL     1      28.662  44.783  54.714  1.00  0.00     0.030 A 
BRANCH  18  21
HETATM   21  C   UNL     1      31.403  44.765  57.387  1.00  0.00     0.147 C 
HETATM   22  C   UNL     1      30.602  45.377  58.535  1.00  0.00     0.044 C 
BRANCH  21  23
HETATM   23  O   UNL     1      32.053  43.593  57.889  1.00  0.00    -0.391 OA
HETATM   24  H   UNL     1      32.903  43.516  57.424  1.00  0.00     0.210 HD
ENDBRANCH  21  23
ENDBRANCH  18  21
ENDBRANCH  12  15
ENDBRANCH   7  11
BRANCH   1  25
HETATM   25  C   UNL     1      24.706  46.165  50.671  1.00  0.00    -0.035 A 
HETATM   26  C   UNL     1      26.089  46.415  50.702  1.00  0.00     0.010 A 
HETATM   27  C   UNL     1      26.647  47.499  50.018  1.00  0.00     0.007 A 
HETATM   28  C   UNL     1      25.837  48.368  49.286  1.00  0.00    -0.062 A 
HETATM   29  C   UNL     1      26.433  49.530  48.548  1.00  0.00     0.048 C 
HETATM   30  C   UNL     1      24.454  48.165  49.290  1.00  0.00     0.007 A 
HETATM   31  C   UNL     1      23.897  47.082  49.978  1.00  0.00     0.010 A 
ENDBRANCH   1  25
BRANCH   8  32
HETATM   32  C   UNL     1      24.134  43.915  48.188  1.00  0.00     0.409 C 
HETATM   33  F   UNL     1      24.173  43.085  47.131  1.00  0.00    -0.169 F 
HETATM   34  F   UNL     1      23.259  44.906  47.894  1.00  0.00    -0.169 F 
HETATM   35  F   UNL     1      25.354  44.510  48.277  1.00  0.00    -0.169 F 
ENDBRANCH   8  32
TORSDOF 6
ENDMDL
MODEL 2
REMARK VINA RESULT:      -8.6      5.046      9.483
REMARK  6 active torsions:
REMARK  status: ('A' for Active; 'I' for Inactive)
REMARK    1  A    between atoms: C_5  and  C_6 
REMARK    2  A    between atoms: C_12  and  C_13 
REMARK       I    between atoms: C_13  and  N_14 
REMARK    3  A    between atoms: N_14  and  C_15 
REMARK    4  A    between atoms: C_18  and  C_19 
REMARK    5  A    between atoms: C_19  and  O_20 
REMARK    6  A    between atoms: C_25  and  C_26 
ROOT
HETATM    1  C   UNL     1      23.866  43.688  50.802  1.00  0.00     0.118 C 
HETATM    2  N   UNL     1      23.351  44.994  50.352  1.00  0.00    -0.365 N 
HETATM    3  C   UNL     1      24.217  46.026  50.132  1.00  0.00     0.138 A 
HETATM    4  N   UNL     1      25.526  45.964  50.547  1.00  0.00    -0.240 N 
HETATM    5  N   UNL     1      26.201  47.110  50.380  1.00  0.00    -0.181 NA
HETATM    6  C   UNL     1      25.326  47.888  49.735  1.00  0.00     0.160 A 
HETATM    7  C   UNL     1      24.066  47.270  49.545  1.00  0.00     0.096 A 
HETATM    8  C   UNL     1      26.111  44.860  51.285  1.00  0.00     0.221 C 
HETATM    9  C   UNL     1      25.008  43.921  51.807  1.00  0.00     0.066 C 
HETATM   10  H   UNL     1      22.456  45.222  50.789  1.00  0.00     0.161 HD
ENDROOT
BRANCH   7  11
HETATM   11  C   UNL     1      22.913  47.866  48.883  1.00  0.00     0.261 C 
HETATM   12  N   UNL     1      22.201  48.738  49.683  1.00  0.00    -0.323 N 
HETATM   13  H   UNL     1      22.524  48.808  50.641  1.00  0.00     0.169 HD
HETATM   14  O   UNL     1      22.659  47.588  47.717  1.00  0.00    -0.267 OA
BRANCH  12  15
HETATM   15  C   UNL     1      21.119  49.561  49.319  1.00  0.00     0.035 A 
HETATM   16  C   UNL     1      21.250  50.888  48.914  1.00  0.00     0.030 A 
HETATM   17  C   UNL     1      20.119  51.660  48.610  1.00  0.00     0.012 A 
HETATM   18  C   UNL     1      18.827  51.124  48.701  1.00  0.00    -0.030 A 
HETATM   19  C   UNL     1      18.709  49.786  49.108  1.00  0.00     0.012 A 
HETATM   20  C   UNL     1      19.838  49.010  49.397  1.00  0.00     0.030 A 
BRANCH  18  21
HETATM   21  C   UNL     1      17.580  51.958  48.463  1.00  0.00     0.147 C 
HETATM   22  C   UNL     1      17.149  52.854  49.622  1.00  0.00     0.044 C 
BRANCH  21  23
HETATM   23  O   UNL     1      17.782  52.794  47.319  1.00  0.00    -0.391 OA
HETATM   24  H   UNL     1      18.357  52.306  46.706  1.00  0.00     0.210 HD
ENDBRANCH  21  23
ENDBRANCH  18  21
ENDBRANCH  12  15
ENDBRANCH   7  11
BRANCH   1  25
HETATM   25  C   UNL     1      24.196  42.757  49.644  1.00  0.00    -0.035 A 
HETATM   26  C   UNL     1      24.918  41.564  49.816  1.00  0.00     0.010 A 
HETATM   27  C   UNL     1      25.183  40.713  48.738  1.00  0.00     0.007 A 
HETATM   28  C   UNL     1      24.736  41.035  47.456  1.00  0.00    -0.062 A 
HETATM   29  C   UNL     1      25.016  40.122  46.298  1.00  0.00     0.048 C 
HETATM   30  C   UNL     1      24.064  42.244  47.259  1.00  0.00     0.007 A 
HETATM   31  C   UNL     1      23.803  43.096  48.338  1.00  0.00     0.010 A 
ENDBRANCH   1  25
BRANCH   8  32
HETATM   32  C   UNL     1      27.175  44.178  50.453  1.00  0.00     0.409 C 
HETATM   33  F   UNL     1      27.428  42.909  50.817  1.00  0.00    -0.169 F 
HETATM   34  F   UNL     1      26.859  44.168  49.137  1.00  0.00    -0.169 F 
HETATM   35  F   UNL     1      28.345  44.865  50.550  1.00  0.00    -0.169 F 
ENDBRANCH   8  32
TORSDOF 6
ENDMDL
MODEL 3
REMARK VINA RESULT:      -8.5     12.670     13.897
REMARK  6 active torsions:
REMARK  status: ('A' for Active; 'I' for Inactive)
REMARK    1  A    between atoms: C_5  and  C_6 
REMARK    2  A    between atoms: C_12  and  C_13 
REMARK       I    between atoms: C_13  and  N_14 
REMARK    3  A    between atoms: N_14  and  C_15 
REMARK    4  A    between atoms: C_18  and  C_19 
REMARK    5  A    between atoms: C_19  and  O_20 
REMARK    6  A    between atoms: C_25  and  C_26 
ROOT
HETATM    1  C   UNL     1      30.044  50.349  38.719  1.00  0.00     0.118 C 
HETATM    2  N   UNL     1      31.249  50.580  39.538  1.00  0.00    -0.365 N 
HETATM    3  C   UNL     1      31.153  51.281  40.705  1.00  0.00     0.138 A 
HETATM    4  N   UNL     1      30.017  51.987  41.026  1.00  0.00    -0.240 N 
HETATM    5  N   UNL     1      30.138  52.729  42.136  1.00  0.00    -0.181 NA
HETATM    6  C   UNL     1      31.349  52.397  42.595  1.00  0.00     0.160 A 
HETATM    7  C   UNL     1      32.036  51.493  41.749  1.00  0.00     0.096 A 
HETATM    8  C   UNL     1      28.850  52.110  40.175  1.00  0.00     0.221 C 
HETATM    9  C   UNL     1      29.168  51.614  38.753  1.00  0.00     0.066 C 
HETATM   10  H   UNL     1      32.075  50.749  38.959  1.00  0.00     0.161 HD
ENDROOT
BRANCH   7  11
HETATM   11  C   UNL     1      33.370  50.954  41.978  1.00  0.00     0.261 C 
HETATM   12  N   UNL     1      34.281  51.892  42.425  1.00  0.00    -0.323 N 
HETATM   13  H   UNL     1      33.932  52.842  42.477  1.00  0.00     0.169 HD
HETATM   14  O   UNL     1      33.597  49.765  41.787  1.00  0.00    -0.267 OA
BRANCH  12  15
HETATM   15  C   UNL     1      35.605  51.680  42.850  1.00  0.00     0.035 A 
HETATM   16  C   UNL     1      36.477  50.765  42.261  1.00  0.00     0.030 A 
HETATM   17  C   UNL     1      37.769  50.577  42.772  1.00  0.00     0.012 A 
HETATM   18  C   UNL     1      38.226  51.299  43.883  1.00  0.00    -0.030 A 
HETATM   19  C   UNL     1      37.339  52.219  44.465  1.00  0.00     0.012 A 
HETATM   20  C   UNL     1      36.054  52.419  43.947  1.00  0.00     0.030 A 
BRANCH  18  21
HETATM   21  C   UNL     1      39.587  51.056  44.511  1.00  0.00     0.147 C 
HETATM   22  C   UNL     1      40.011  52.055  45.586  1.00  0.00     0.044 C 
BRANCH  21  23
HETATM   23  O   UNL     1      39.609  49.751  45.098  1.00  0.00    -0.391 OA
HETATM   24  H   UNL     1      38.742  49.346  44.929  1.00  0.00     0.210 HD
ENDBRANCH  21  23
ENDBRANCH  18  21
ENDBRANCH  12  15
ENDBRANCH   7  11
BRANCH   1  25
HETATM   25  C   UNL     1      29.332  49.052  39.079  1.00  0.00    -0.035 A 
HETATM   26  C   UNL     1      29.787  48.197  40.097  1.00  0.00     0.010 A 
HETATM   27  C   UNL     1      29.097  47.027  40.424  1.00  0.00     0.007 A 
HETATM   28  C   UNL     1      27.933  46.675  39.739  1.00  0.00    -0.062 A 
HETATM   29  C   UNL     1      27.188  45.420  40.090  1.00  0.00     0.048 C 
HETATM   30  C   UNL     1      27.498  47.486  38.687  1.00  0.00     0.007 A 
HETATM   31  C   UNL     1      28.192  48.655  38.358  1.00  0.00     0.010 A 
ENDBRANCH   1  25
BRANCH   8  32
HETATM   32  C   UNL     1      27.656  51.441  40.821  1.00  0.00     0.409 C 
HETATM   33  F   UNL     1      26.801  50.879  39.949  1.00  0.00    -0.169 F 
HETATM   34  F   UNL     1      28.029  50.481  41.700  1.00  0.00    -0.169 F 
HETATM   35  F   UNL     1      26.952  52.353  41.544  1.00  0.00    -0.169 F 
ENDBRANCH   8  32
TORSDOF 6
ENDMDL
MODEL 4
REMARK VINA RESULT:      -8.4     10.791     13.438
REMARK  6 active torsions:
REMARK  status: ('A' for Active; 'I' for Inactive)
REMARK    1  A    between atoms: C_5  and  C_6 
REMARK    2  A    between atoms: C_12  and  C_13 
REMARK       I    between atoms: C_13  and  N_14 
REMARK    3  A    between atoms: N_14  and  C_15 
REMARK    4  A    between atoms: C_18  and  C_19 
REMARK    5  A    between atoms: C_19  and  O_20 
REMARK    6  A    between atoms: C_25  and  C_26 
ROOT
HETATM    1  C   UNL     1      28.659  51.454  41.648  1.00  0.00     0.118 C 
HETATM    2  N   UNL     1      27.687  50.373  41.404  1.00  0.00    -0.365 N 
HETATM    3  C   UNL     1      27.292  50.089  40.129  1.00  0.00     0.138 A 
HETATM    4  N   UNL     1      27.584  50.934  39.084  1.00  0.00    -0.240 N 
HETATM    5  N   UNL     1      27.006  50.581  37.926  1.00  0.00    -0.181 NA
HETATM    6  C   UNL     1      26.422  49.415  38.219  1.00  0.00     0.160 A 
HETATM    7  C   UNL     1      26.565  49.047  39.580  1.00  0.00     0.096 A 
HETATM    8  C   UNL     1      28.274  52.202  39.211  1.00  0.00     0.221 C 
HETATM    9  C   UNL     1      28.359  52.621  40.690  1.00  0.00     0.066 C 
HETATM   10  H   UNL     1      26.972  50.333  42.133  1.00  0.00     0.161 HD
ENDROOT
BRANCH   7  11
HETATM   11  C   UNL     1      26.036  47.839  40.199  1.00  0.00     0.261 C 
HETATM   12  N   UNL     1      26.975  46.839  40.361  1.00  0.00    -0.323 N 
HETATM   13  H   UNL     1      27.891  47.039  39.976  1.00  0.00     0.169 HD
HETATM   14  O   UNL     1      24.859  47.782  40.535  1.00  0.00    -0.267 OA
BRANCH  12  15
HETATM   15  C   UNL     1      26.824  45.608  41.025  1.00  0.00     0.035 A 
HETATM   16  C   UNL     1      26.025  45.422  42.152  1.00  0.00     0.030 A 
HETATM   17  C   UNL     1      25.961  44.173  42.787  1.00  0.00     0.012 A 
HETATM   18  C   UNL     1      26.692  43.076  42.310  1.00  0.00    -0.030 A 
HETATM   19  C   UNL     1      27.491  43.276  41.174  1.00  0.00     0.012 A 
HETATM   20  C   UNL     1      27.544  44.518  40.530  1.00  0.00     0.030 A 
BRANCH  18  21
HETATM   21  C   UNL     1      26.711  41.736  43.026  1.00  0.00     0.147 C 
HETATM   22  C   UNL     1      28.081  41.074  43.159  1.00  0.00     0.044 C 
BRANCH  21  23
HETATM   23  O   UNL     1      26.176  41.897  44.343  1.00  0.00    -0.391 OA
HETATM   24  H   UNL     1      25.304  42.316  44.249  1.00  0.00     0.210 HD
ENDBRANCH  21  23
ENDBRANCH  18  21
ENDBRANCH  12  15
ENDBRANCH   7  11
BRANCH   1  25
HETATM   25  C   UNL     1      30.099  50.960  41.642  1.00  0.00    -0.035 A 
HETATM   26  C   UNL     1      30.440  49.627  41.353  1.00  0.00     0.010 A 
HETATM   27  C   UNL     1      31.773  49.208  41.327  1.00  0.00     0.007 A 
HETATM   28  C   UNL     1      32.805  50.109  41.594  1.00  0.00    -0.062 A 
HETATM   29  C   UNL     1      34.237  49.662  41.563  1.00  0.00     0.048 C 
HETATM   30  C   UNL     1      32.480  51.424  41.936  1.00  0.00     0.007 A 
HETATM   31  C   UNL     1      31.145  51.842  41.965  1.00  0.00     0.010 A 
ENDBRANCH   1  25
BRANCH   8  32
HETATM   32  C   UNL     1      29.607  52.149  38.496  1.00  0.00     0.409 C 
HETATM   33  F   UNL     1      30.585  52.846  39.102  1.00  0.00    -0.169 F 
HETATM   34  F   UNL     1      30.049  50.879  38.344  1.00  0.00    -0.169 F 
HETATM   35  F   UNL     1      29.476  52.651  37.239  1.00  0.00    -0.169 F 
ENDBRANCH   8  32
TORSDOF 6
ENDMDL
MODEL 5
REMARK VINA RESULT:      -8.3      4.381      7.894
REMARK  6 active torsions:
REMARK  status: ('A' for Active; 'I' for Inactive)
REMARK    1  A    between atoms: C_5  and  C_6 
REMARK    2  A    between atoms: C_12  and  C_13 
REMARK       I    between atoms: C_13  and  N_14 
REMARK    3  A    between atoms: N_14  and  C_15 
REMARK    4  A    between atoms: C_18  and  C_19 
REMARK    5  A    between atoms: C_19  and  O_20 
REMARK    6  A    between atoms: C_25  and  C_26 
ROOT
HETATM    1  C   UNL     1      26.307  38.815  48.068  1.00  0.00     0.118 C 
HETATM    2  N   UNL     1      25.864  39.932  48.922  1.00  0.00    -0.365 N 
HETATM    3  C   UNL     1      26.676  40.387  49.921  1.00  0.00     0.138 A 
HETATM    4  N   UNL     1      27.790  39.684  50.315  1.00  0.00    -0.240 N 
HETATM    5  N   UNL     1      28.396  40.194  51.397  1.00  0.00    -0.181 NA
HETATM    6  C   UNL     1      27.712  41.319  51.628  1.00  0.00     0.160 A 
HETATM    7  C   UNL     1      26.625  41.502  50.739  1.00  0.00     0.096 A 
HETATM    8  C   UNL     1      28.194  38.400  49.775  1.00  0.00     0.221 C 
HETATM    9  C   UNL     1      27.057  37.789  48.936  1.00  0.00     0.066 C 
HETATM   10  H   UNL     1      24.862  39.885  49.121  1.00  0.00     0.161 HD
ENDROOT
BRANCH   7  11
HETATM   11  C   UNL     1      25.696  42.625  50.745  1.00  0.00     0.261 C 
HETATM   12  N   UNL     1      26.271  43.825  50.375  1.00  0.00    -0.323 N 
HETATM   13  H   UNL     1      27.271  43.792  50.209  1.00  0.00     0.169 HD
HETATM   14  O   UNL     1      24.521  42.452  51.047  1.00  0.00    -0.267 OA
BRANCH  12  15
HETATM   15  C   UNL     1      25.634  45.062  50.164  1.00  0.00     0.035 A 
HETATM   16  C   UNL     1      25.978  46.239  50.825  1.00  0.00     0.030 A 
HETATM   17  C   UNL     1      25.265  47.425  50.594  1.00  0.00     0.012 A 
HETATM   18  C   UNL     1      24.191  47.464  49.694  1.00  0.00    -0.030 A 
HETATM   19  C   UNL     1      23.857  46.272  49.032  1.00  0.00     0.012 A 
HETATM   20  C   UNL     1      24.578  45.092  49.251  1.00  0.00     0.030 A 
BRANCH  18  21
HETATM   21  C   UNL     1      23.346  48.709  49.487  1.00  0.00     0.147 C 
HETATM   22  C   UNL     1      23.613  49.488  48.201  1.00  0.00     0.044 C 
BRANCH  21  23
HETATM   23  O   UNL     1      21.962  48.347  49.495  1.00  0.00    -0.391 OA
HETATM   24  H   UNL     1      21.839  47.702  50.213  1.00  0.00     0.210 HD
ENDBRANCH  21  23
ENDBRANCH  18  21
ENDBRANCH  12  15
ENDBRANCH   7  11
BRANCH   1  25
HETATM   25  C   UNL     1      27.052  39.287  46.826  1.00  0.00    -0.035 A 
HETATM   26  C   UNL     1      27.490  38.403  45.826  1.00  0.00     0.010 A 
HETATM   27  C   UNL     1      28.147  38.867  44.683  1.00  0.00     0.007 A 
HETATM   28  C   UNL     1      28.389  40.230  44.510  1.00  0.00    -0.062 A 
HETATM   29  C   UNL     1      29.092  40.732  43.282  1.00  0.00     0.048 C 
HETATM   30  C   UNL     1      28.009  41.117  45.520  1.00  0.00     0.007 A 
HETATM   31  C   UNL     1      27.355  40.650  46.666  1.00  0.00     0.010 A 
ENDBRANCH   1  25
BRANCH   8  32
HETATM   32  C   UNL     1      29.513  38.530  49.045  1.00  0.00     0.409 C 
HETATM   33  F   UNL     1      29.628  37.731  47.969  1.00  0.00    -0.169 F 
HETATM   34  F   UNL     1      29.741  39.799  48.633  1.00  0.00    -0.169 F 
HETATM   35  F   UNL     1      30.537  38.221  49.885  1.00  0.00    -0.169 F 
ENDBRANCH   8  32
TORSDOF 6
ENDMDL
MODEL 6
REMARK VINA RESULT:      -8.3      4.078      5.365
REMARK  6 active torsions:
REMARK  status: ('A' for Active; 'I' for Inactive)
REMARK    1  A    between atoms: C_5  and  C_6 
REMARK    2  A    between atoms: C_12  and  C_13 
REMARK       I    between atoms: C_13  and  N_14 
REMARK    3  A    between atoms: N_14  and  C_15 
REMARK    4  A    between atoms: C_18  and  C_19 
REMARK    5  A    between atoms: C_19  and  O_20 
REMARK    6  A    between atoms: C_25  and  C_26 
ROOT
HETATM    1  C   UNL     1      19.317  45.924  48.824  1.00  0.00     0.118 C 
HETATM    2  N   UNL     1      20.506  45.283  49.415  1.00  0.00    -0.365 N 
HETATM    3  C   UNL     1      21.534  44.885  48.611  1.00  0.00     0.138 A 
HETATM    4  N   UNL     1      21.398  44.841  47.243  1.00  0.00    -0.240 N 
HETATM    5  N   UNL     1      22.450  44.297  46.613  1.00  0.00    -0.181 NA
HETATM    6  C   UNL     1      23.326  44.094  47.602  1.00  0.00     0.160 A 
HETATM    7  C   UNL     1      22.818  44.442  48.877  1.00  0.00     0.096 A 
HETATM    8  C   UNL     1      20.180  45.150  46.521  1.00  0.00     0.221 C 
HETATM    9  C   UNL     1      18.987  45.230  47.490  1.00  0.00     0.066 C 
HETATM   10  H   UNL     1      20.259  44.668  50.194  1.00  0.00     0.161 HD
ENDROOT
BRANCH   7  11
HETATM   11  C   UNL     1      23.532  44.329  50.142  1.00  0.00     0.261 C 
HETATM   12  N   UNL     1      24.593  45.205  50.263  1.00  0.00    -0.323 N 
HETATM   13  H   UNL     1      24.785  45.769  49.443  1.00  0.00     0.169 HD
HETATM   14  O   UNL     1      23.168  43.519  50.986  1.00  0.00    -0.267 OA
BRANCH  12  15
HETATM   15  C   UNL     1      25.404  45.433  51.391  1.00  0.00     0.035 A 
HETATM   16  C   UNL     1      26.195  44.457  51.994  1.00  0.00     0.030 A 
HETATM   17  C   UNL     1      26.941  44.750  53.145  1.00  0.00     0.012 A 
HETATM   18  C   UNL     1      26.917  46.028  53.722  1.00  0.00    -0.030 A 
HETATM   19  C   UNL     1      26.117  47.002  53.104  1.00  0.00     0.012 A 
HETATM   20  C   UNL     1      25.384  46.715  51.946  1.00  0.00     0.030 A 
BRANCH  18  21
HETATM   21  C   UNL     1      27.644  46.352  55.015  1.00  0.00     0.147 C 
HETATM   22  C   UNL     1      28.902  45.532  55.295  1.00  0.00     0.044 C 
BRANCH  21  23
HETATM   23  O   UNL     1      28.018  47.733  55.014  1.00  0.00    -0.391 OA
HETATM   24  H   UNL     1      28.976  47.770  55.176  1.00  0.00     0.210 HD
ENDBRANCH  21  23
ENDBRANCH  18  21
ENDBRANCH  12  15
ENDBRANCH   7  11
BRANCH   1  25
HETATM   25  C   UNL     1      19.442  47.440  48.756  1.00  0.00    -0.035 A 
HETATM   26  C   UNL     1      20.617  48.119  49.122  1.00  0.00     0.010 A 
HETATM   27  C   UNL     1      20.712  49.509  49.023  1.00  0.00     0.007 A 
HETATM   28  C   UNL     1      19.633  50.263  48.559  1.00  0.00    -0.062 A 
HETATM   29  C   UNL     1      19.733  51.756  48.449  1.00  0.00     0.048 C 
HETATM   30  C   UNL     1      18.439  49.608  48.244  1.00  0.00     0.007 A 
HETATM   31  C   UNL     1      18.344  48.216  48.347  1.00  0.00     0.010 A 
ENDBRANCH   1  25
BRANCH   8  32
HETATM   32  C   UNL     1      20.376  46.382  45.664  1.00  0.00     0.409 C 
HETATM   33  F   UNL     1      20.836  46.125  44.427  1.00  0.00    -0.169 F 
HETATM   34  F   UNL     1      19.231  47.093  45.532  1.00  0.00    -0.169 F 
HETATM   35  F   UNL     1      21.268  47.220  46.258  1.00  0.00    -0.169 F 
ENDBRANCH   8  32
TORSDOF 6
ENDMDL
MODEL 7
REMARK VINA RESULT:      -8.1      8.460     11.299
REMARK  6 active torsions:
REMARK  status: ('A' for Active; 'I' for Inactive)
REMARK    1  A    between atoms: C_5  and  C_6 
REMARK    2  A    between atoms: C_12  and  C_13 
REMARK       I    between atoms: C_13  and  N_14 
REMARK    3  A    between atoms: N_14  and  C_15 
REMARK    4  A    between atoms: C_18  and  C_19 
REMARK    5  A    between atoms: C_19  and  O_20 
REMARK    6  A    between atoms: C_25  and  C_26 
ROOT
HETATM    1  C   UNL     1      16.772  52.023  46.476  1.00  0.00     0.118 C 
HETATM    2  N   UNL     1      17.593  51.244  47.420  1.00  0.00    -0.365 N 
HETATM    3  C   UNL     1      17.250  49.957  47.718  1.00  0.00     0.138 A 
HETATM    4  N   UNL     1      16.029  49.439  47.355  1.00  0.00    -0.240 N 
HETATM    5  N   UNL     1      15.796  48.212  47.843  1.00  0.00    -0.181 NA
HETATM    6  C   UNL     1      16.950  47.896  48.440  1.00  0.00     0.160 A 
HETATM    7  C   UNL     1      17.904  48.942  48.396  1.00  0.00     0.096 A 
HETATM    8  C   UNL     1      14.980  50.181  46.684  1.00  0.00     0.221 C 
HETATM    9  C   UNL     1      15.288  51.689  46.712  1.00  0.00     0.066 C 
HETATM   10  H   UNL     1      17.942  51.822  48.187  1.00  0.00     0.161 HD
ENDROOT
BRANCH   7  11
HETATM   11  C   UNL     1      19.246  48.900  48.962  1.00  0.00     0.261 C 
HETATM   12  N   UNL     1      20.245  49.166  48.046  1.00  0.00    -0.323 N 
HETATM   13  H   UNL     1      19.933  49.294  47.090  1.00  0.00     0.169 HD
HETATM   14  O   UNL     1      19.406  48.658  50.153  1.00  0.00    -0.267 OA
BRANCH  12  15
HETATM   15  C   UNL     1      21.622  49.321  48.288  1.00  0.00     0.035 A 
HETATM   16  C   UNL     1      22.319  50.514  48.100  1.00  0.00     0.030 A 
HETATM   17  C   UNL     1      23.702  50.578  48.318  1.00  0.00     0.012 A 
HETATM   18  C   UNL     1      24.426  49.452  48.733  1.00  0.00    -0.030 A 
HETATM   19  C   UNL     1      23.713  48.257  48.921  1.00  0.00     0.012 A 
HETATM   20  C   UNL     1      22.329  48.196  48.718  1.00  0.00     0.030 A 
BRANCH  18  21
HETATM   21  C   UNL     1      25.936  49.467  48.895  1.00  0.00     0.147 C 
HETATM   22  C   UNL     1      26.562  48.176  49.420  1.00  0.00     0.044 C 
BRANCH  21  23
HETATM   23  O   UNL     1      26.543  49.761  47.633  1.00  0.00    -0.391 OA
HETATM   24  H   UNL     1      26.125  49.182  46.973  1.00  0.00     0.210 HD
ENDBRANCH  21  23
ENDBRANCH  18  21
ENDBRANCH  12  15
ENDBRANCH   7  11
BRANCH   1  25
HETATM   25  C   UNL     1      17.249  51.889  45.036  1.00  0.00    -0.035 A 
HETATM   26  C   UNL     1      18.211  50.943  44.643  1.00  0.00     0.010 A 
HETATM   27  C   UNL     1      18.610  50.824  43.309  1.00  0.00     0.007 A 
HETATM   28  C   UNL     1      18.061  51.652  42.328  1.00  0.00    -0.062 A 
HETATM   29  C   UNL     1      18.485  51.525  40.895  1.00  0.00     0.048 C 
HETATM   30  C   UNL     1      17.144  52.634  42.712  1.00  0.00     0.007 A 
HETATM   31  C   UNL     1      16.748  52.755  44.048  1.00  0.00     0.010 A 
ENDBRANCH   1  25
BRANCH   8  32
HETATM   32  C   UNL     1      14.737  49.615  45.302  1.00  0.00     0.409 C 
HETATM   33  F   UNL     1      14.390  50.533  44.383  1.00  0.00    -0.169 F 
HETATM   34  F   UNL     1      15.822  48.958  44.827  1.00  0.00    -0.169 F 
HETATM   35  F   UNL     1      13.736  48.695  45.349  1.00  0.00    -0.169 F 
ENDBRANCH   8  32
TORSDOF 6
ENDMDL
MODEL 8
REMARK VINA RESULT:      -7.8      3.899      5.669
REMARK  6 active torsions:
REMARK  status: ('A' for Active; 'I' for Inactive)
REMARK    1  A    between atoms: C_5  and  C_6 
REMARK    2  A    between atoms: C_12  and  C_13 
REMARK       I    between atoms: C_13  and  N_14 
REMARK    3  A    between atoms: N_14  and  C_15 
REMARK    4  A    between atoms: C_18  and  C_19 
REMARK    5  A    between atoms: C_19  and  O_20 
REMARK    6  A    between atoms: C_25  and  C_26 
ROOT
HETATM    1  C   UNL     1      19.272  45.936  48.811  1.00  0.00     0.118 C 
HETATM    2  N   UNL     1      20.420  45.105  49.218  1.00  0.00    -0.365 N 
HETATM    3  C   UNL     1      21.271  44.611  48.272  1.00  0.00     0.138 A 
HETATM    4  N   UNL     1      20.960  44.660  46.933  1.00  0.00    -0.240 N 
HETATM    5  N   UNL     1      21.834  44.010  46.151  1.00  0.00    -0.181 NA
HETATM    6  C   UNL     1      22.789  43.634  47.008  1.00  0.00     0.160 A 
HETATM    7  C   UNL     1      22.501  43.981  48.350  1.00  0.00     0.096 A 
HETATM    8  C   UNL     1      19.719  45.174  46.388  1.00  0.00     0.221 C 
HETATM    9  C   UNL     1      18.681  45.367  47.509  1.00  0.00     0.066 C 
HETATM   10  H   UNL     1      20.186  44.490  50.000  1.00  0.00     0.161 HD
ENDROOT
BRANCH   7  11
HETATM   11  C   UNL     1      23.344  43.702  49.506  1.00  0.00     0.261 C 
HETATM   12  N   UNL     1      24.601  43.235  49.177  1.00  0.00    -0.323 N 
HETATM   13  H   UNL     1      24.762  43.084  48.188  1.00  0.00     0.169 HD
HETATM   14  O   UNL     1      22.921  43.896  50.640  1.00  0.00    -0.267 OA
BRANCH  12  15
HETATM   15  C   UNL     1      25.686  42.987  50.039  1.00  0.00     0.035 A 
HETATM   16  C   UNL     1      26.609  43.955  50.430  1.00  0.00     0.030 A 
HETATM   17  C   UNL     1      27.692  43.621  51.256  1.00  0.00     0.012 A 
HETATM   18  C   UNL     1      27.878  42.310  51.716  1.00  0.00    -0.030 A 
HETATM   19  C   UNL     1      26.940  41.345  51.318  1.00  0.00     0.012 A 
HETATM   20  C   UNL     1      25.851  41.681  50.505  1.00  0.00     0.030 A 
BRANCH  18  21
HETATM   21  C   UNL     1      29.086  41.899  52.540  1.00  0.00     0.147 C 
HETATM   22  C   UNL     1      29.904  43.042  53.138  1.00  0.00     0.044 C 
BRANCH  21  23
HETATM   23  O   UNL     1      28.660  41.060  53.618  1.00  0.00    -0.391 OA
HETATM   24  H   UNL     1      28.995  41.458  54.439  1.00  0.00     0.210 HD
ENDBRANCH  21  23
ENDBRANCH  18  21
ENDBRANCH  12  15
ENDBRANCH   7  11
BRANCH   1  25
HETATM   25  C   UNL     1      19.606  47.421  48.780  1.00  0.00    -0.035 A 
HETATM   26  C   UNL     1      20.916  47.905  48.932  1.00  0.00     0.010 A 
HETATM   27  C   UNL     1      21.197  49.273  48.872  1.00  0.00     0.007 A 
HETATM   28  C   UNL     1      20.173  50.198  48.663  1.00  0.00    -0.062 A 
HETATM   29  C   UNL     1      20.472  51.667  48.594  1.00  0.00     0.048 C 
HETATM   30  C   UNL     1      18.858  49.737  48.564  1.00  0.00     0.007 A 
HETATM   31  C   UNL     1      18.578  48.368  48.629  1.00  0.00     0.010 A 
ENDBRANCH   1  25
BRANCH   8  32
HETATM   32  C   UNL     1      19.982  46.411  45.557  1.00  0.00     0.409 C 
HETATM   33  F   UNL     1      20.187  46.163  44.251  1.00  0.00    -0.169 F 
HETATM   34  F   UNL     1      18.970  47.305  45.646  1.00  0.00    -0.169 F 
HETATM   35  F   UNL     1      21.088  47.052  46.023  1.00  0.00    -0.169 F 
ENDBRANCH   8  32
TORSDOF 6
ENDMDL
MODEL 9
REMARK VINA RESULT:      -7.8      7.104      9.786
REMARK  6 active torsions:
REMARK  status: ('A' for Active; 'I' for Inactive)
REMARK    1  A    between atoms: C_5  and  C_6 
REMARK    2  A    between atoms: C_12  and  C_13 
REMARK       I    between atoms: C_13  and  N_14 
REMARK    3  A    between atoms: N_14  and  C_15 
REMARK    4  A    between atoms: C_18  and  C_19 
REMARK    5  A    between atoms: C_19  and  O_20 
REMARK    6  A    between atoms: C_25  and  C_26 
ROOT
HETATM    1  C   UNL     1      18.575  50.790  45.786  1.00  0.00     0.118 C 
HETATM    2  N   UNL     1      19.816  50.370  46.464  1.00  0.00    -0.365 N 
HETATM    3  C   UNL     1      19.840  50.246  47.823  1.00  0.00     0.138 A 
HETATM    4  N   UNL     1      18.817  50.730  48.604  1.00  0.00    -0.240 N 
HETATM    5  N   UNL     1      19.060  50.652  49.921  1.00  0.00    -0.181 NA
HETATM    6  C   UNL     1      20.222  49.995  49.978  1.00  0.00     0.160 A 
HETATM    7  C   UNL     1      20.763  49.708  48.701  1.00  0.00     0.096 A 
HETATM    8  C   UNL     1      17.661  51.449  48.105  1.00  0.00     0.221 C 
HETATM    9  C   UNL     1      17.880  51.866  46.639  1.00  0.00     0.066 C 
HETATM   10  H   UNL     1      20.646  50.767  46.018  1.00  0.00     0.161 HD
ENDROOT
BRANCH   7  11
HETATM   11  C   UNL     1      22.016  49.010  48.441  1.00  0.00     0.261 C 
HETATM   12  N   UNL     1      22.438  48.215  49.489  1.00  0.00    -0.323 N 
HETATM   13  H   UNL     1      21.868  48.262  50.325  1.00  0.00     0.169 HD
HETATM   14  O   UNL     1      22.587  49.148  47.366  1.00  0.00    -0.267 OA
BRANCH  12  15
HETATM   15  C   UNL     1      23.530  47.327  49.516  1.00  0.00     0.035 A 
HETATM   16  C   UNL     1      23.459  45.991  49.127  1.00  0.00     0.030 A 
HETATM   17  C   UNL     1      24.580  45.155  49.227  1.00  0.00     0.012 A 
HETATM   18  C   UNL     1      25.803  45.634  49.716  1.00  0.00    -0.030 A 
HETATM   19  C   UNL     1      25.863  46.982  50.102  1.00  0.00     0.012 A 
HETATM   20  C   UNL     1      24.748  47.821  49.989  1.00  0.00     0.030 A 
BRANCH  18  21
HETATM   21  C   UNL     1      27.010  44.733  49.918  1.00  0.00     0.147 C 
HETATM   22  C   UNL     1      27.249  44.251  51.347  1.00  0.00     0.044 C 
BRANCH  21  23
HETATM   23  O   UNL     1      26.880  43.576  49.086  1.00  0.00    -0.391 OA
HETATM   24  H   UNL     1      26.163  43.757  48.454  1.00  0.00     0.210 HD
ENDBRANCH  21  23
ENDBRANCH  18  21
ENDBRANCH  12  15
ENDBRANCH   7  11
BRANCH   1  25
HETATM   25  C   UNL     1      17.700  49.611  45.384  1.00  0.00    -0.035 A 
HETATM   26  C   UNL     1      17.968  48.295  45.796  1.00  0.00     0.010 A 
HETATM   27  C   UNL     1      17.131  47.235  45.435  1.00  0.00     0.007 A 
HETATM   28  C   UNL     1      16.003  47.461  44.645  1.00  0.00    -0.062 A 
HETATM   29  C   UNL     1      15.101  46.327  44.258  1.00  0.00     0.048 C 
HETATM   30  C   UNL     1      15.753  48.755  44.181  1.00  0.00     0.007 A 
HETATM   31  C   UNL     1      16.593  49.814  44.541  1.00  0.00     0.010 A 
ENDBRANCH   1  25
BRANCH   8  32
HETATM   32  C   UNL     1      16.400  50.648  48.348  1.00  0.00     0.409 C 
HETATM   33  F   UNL     1      15.480  50.761  47.374  1.00  0.00    -0.169 F 
HETATM   34  F   UNL     1      16.662  49.329  48.508  1.00  0.00    -0.169 F 
HETATM   35  F   UNL     1      15.812  51.054  49.505  1.00  0.00    -0.169 F 
ENDBRANCH   8  32
TORSDOF 6
ENDMDL
MODEL 10
REMARK VINA RESULT:      -7.8      3.618      7.712
REMARK  6 active torsions:
REMARK  status: ('A' for Active; 'I' for Inactive)
REMARK    1  A    between atoms: C_5  and  C_6 
REMARK    2  A    between atoms: C_12  and  C_13 
REMARK       I    between atoms: C_13  and  N_14 
REMARK    3  A    between atoms: N_14  and  C_15 
REMARK    4  A    between atoms: C_18  and  C_19 
REMARK    5  A    between atoms: C_19  and  O_20 
REMARK    6  A    between atoms: C_25  and  C_26 
ROOT
HETATM    1  C   UNL     1      25.588  43.938  53.726  1.00  0.00     0.118 C 
HETATM    2  N   UNL     1      25.505  43.143  52.487  1.00  0.00    -0.365 N 
HETATM    3  C   UNL     1      25.585  43.765  51.275  1.00  0.00     0.138 A 
HETATM    4  N   UNL     1      25.497  45.133  51.164  1.00  0.00    -0.240 N 
HETATM    5  N   UNL     1      25.453  45.570  49.897  1.00  0.00    -0.181 NA
HETATM    6  C   UNL     1      25.632  44.455  49.182  1.00  0.00     0.160 A 
HETATM    7  C   UNL     1      25.725  43.290  49.982  1.00  0.00     0.096 A 
HETATM    8  C   UNL     1      25.267  46.041  52.270  1.00  0.00     0.221 C 
HETATM    9  C   UNL     1      24.828  45.261  53.523  1.00  0.00     0.066 C 
HETATM   10  H   UNL     1      24.839  42.373  52.573  1.00  0.00     0.161 HD
ENDROOT
BRANCH   7  11
HETATM   11  C   UNL     1      25.916  41.930  49.494  1.00  0.00     0.261 C 
HETATM   12  N   UNL     1      26.529  41.864  48.258  1.00  0.00    -0.323 N 
HETATM   13  H   UNL     1      26.711  42.758  47.817  1.00  0.00     0.169 HD
HETATM   14  O   UNL     1      25.555  40.975  50.171  1.00  0.00    -0.267 OA
BRANCH  12  15
HETATM   15  C   UNL     1      26.962  40.717  47.567  1.00  0.00     0.035 A 
HETATM   16  C   UNL     1      26.453  40.309  46.335  1.00  0.00     0.030 A 
HETATM   17  C   UNL     1      26.903  39.127  45.730  1.00  0.00     0.012 A 
HETATM   18  C   UNL     1      27.877  38.323  46.338  1.00  0.00    -0.030 A 
HETATM   19  C   UNL     1      28.383  38.746  47.577  1.00  0.00     0.012 A 
HETATM   20  C   UNL     1      27.945  39.933  48.176  1.00  0.00     0.030 A 
BRANCH  18  21
HETATM   21  C   UNL     1      28.322  36.995  45.750  1.00  0.00     0.147 C 
HETATM   22  C   UNL     1      29.712  36.980  45.118  1.00  0.00     0.044 C 
BRANCH  21  23
HETATM   23  O   UNL     1      28.299  35.995  46.773  1.00  0.00    -0.391 OA
HETATM   24  H   UNL     1      28.859  35.261  46.467  1.00  0.00     0.210 HD
ENDBRANCH  21  23
ENDBRANCH  18  21
ENDBRANCH  12  15
ENDBRANCH   7  11
BRANCH   1  25
HETATM   25  C   UNL     1      27.014  44.078  54.239  1.00  0.00    -0.035 A 
HETATM   26  C   UNL     1      27.384  45.044  55.190  1.00  0.00     0.010 A 
HETATM   27  C   UNL     1      28.696  45.132  55.664  1.00  0.00     0.007 A 
HETATM   28  C   UNL     1      29.679  44.257  55.196  1.00  0.00    -0.062 A 
HETATM   29  C   UNL     1      31.087  44.347  55.704  1.00  0.00     0.048 C 
HETATM   30  C   UNL     1      29.339  43.327  54.210  1.00  0.00     0.007 A 
HETATM   31  C   UNL     1      28.026  43.243  53.734  1.00  0.00     0.010 A 
ENDBRANCH   1  25
BRANCH   8  32
HETATM   32  C   UNL     1      26.471  46.933  52.476  1.00  0.00     0.409 C 
HETATM   33  F   UNL     1      26.488  47.571  53.660  1.00  0.00    -0.169 F 
HETATM   34  F   UNL     1      27.633  46.246  52.369  1.00  0.00    -0.169 F 
HETATM   35  F   UNL     1      26.511  47.886  51.506  1.00  0.00    -0.169 F 
ENDBRANCH   8  32
TORSDOF 6
ENDMDL
