MODEL 1
REMARK VINA RESULT:     -10.5      0.000      0.000
REMARK  10 active torsions:
REMARK  status: ('A' for Active; 'I' for Inactive)
REMARK    1  A    between atoms: C_8  and  C_9 
REMARK    2  A    between atoms: N_14  and  C_15 
REMARK    3  A    between atoms: C_15  and  C_16 
REMARK    4  A    between atoms: C_16  and  C_17 
REMARK    5  A    between atoms: C_20  and  O_21 
REMARK    6  A    between atoms: C_27  and  N_28 
REMARK    7  A    between atoms: N_28  and  C_29 
REMARK    8  A    between atoms: C_29  and  C_30 
REMARK    9  A    between atoms: C_30  and  O_31 
REMARK   10  A    between atoms: C_30  and  C_32 
ROOT
HETATM    1  C   UNL     1      29.516  42.771  54.275  1.00  0.00     0.052 C 
HETATM    2  C   UNL     1      28.962  44.127  54.583  1.00  0.00    -0.015 A 
HETATM    3  C   UNL     1      27.994  44.725  53.598  1.00  0.00     0.144 A 
HETATM    4  N   UNL     1      27.767  44.111  52.481  1.00  0.00    -0.217 NA
HETATM    5  N   UNL     1      27.387  45.918  53.955  1.00  0.00    -0.272 N 
HETATM    6  C   UNL     1      26.432  46.475  53.120  1.00  0.00     0.266 C 
HETATM    7  O   UNL     1      25.872  47.554  53.331  1.00  0.00    -0.267 OA
HETATM    8  C   UNL     1      26.086  45.693  51.897  1.00  0.00     0.074 C 
HETATM    9  C   UNL     1      26.835  44.603  51.611  1.00  0.00     0.121 C 
HETATM   10  C   UNL     1      27.741  46.583  55.123  1.00  0.00     0.102 A 
HETATM   11  C   UNL     1      28.645  46.084  55.972  1.00  0.00     0.018 A 
HETATM   12  C   UNL     1      29.253  44.808  55.703  1.00  0.00     0.012 A 
ENDROOT
BRANCH   8  13
HETATM   13  C   UNL     1      24.955  46.152  51.096  1.00  0.00     0.045 C 
HETATM   14  C   UNL     1      25.002  47.118  50.167  1.00  0.00     0.077 A 
HETATM   15  S   UNL     1      26.376  48.016  49.654  1.00  0.00    -0.055 SA
HETATM   16  C   UNL     1      23.787  47.604  49.463  1.00  0.00     0.266 A 
HETATM   17  C   UNL     1      25.408  49.140  48.718  1.00  0.00     0.148 A 
HETATM   18  S   UNL     1      26.078  50.476  47.975  1.00  0.00    -0.052 SA
HETATM   19  N   UNL     1      24.087  48.736  48.725  1.00  0.00    -0.298 N 
HETATM   20  O   UNL     1      22.687  47.081  49.571  1.00  0.00    -0.266 OA
BRANCH  19  21
HETATM   21  C   UNL     1      23.014  49.425  48.006  1.00  0.00     0.138 C 
BRANCH  21  22
HETATM   22  C   UNL     1      22.711  50.802  48.611  1.00  0.00     0.059 C 
BRANCH  22  23
HETATM   23  C   UNL     1      21.272  50.928  49.045  1.00  0.00    -0.057 A 
HETATM   24  C   UNL     1      20.409  51.813  48.388  1.00  0.00     0.010 A 
HETATM   25  C   UNL     1      19.077  51.929  48.788  1.00  0.00     0.037 A 
HETATM   26  C   UNL     1      18.579  51.153  49.836  1.00  0.00     0.068 A 
HETATM   27  C   UNL     1      19.435  50.272  50.496  1.00  0.00     0.037 A 
HETATM   28  C   UNL     1      20.774  50.161  50.105  1.00  0.00     0.010 A 
BRANCH  26  29
HETATM   29  O   UNL     1      17.256  51.354  50.119  1.00  0.00    -0.356 OA
HETATM   30  C   UNL     1      16.766  52.679  49.960  1.00  0.00     0.210 C 
ENDBRANCH  26  29
ENDBRANCH  22  23
ENDBRANCH  21  22
ENDBRANCH  19  21
ENDBRANCH   8  13
BRANCH   9  31
HETATM   31  N   UNL     1      26.674  43.852  50.453  1.00  0.00    -0.274 NA
HETATM   32  H   UNL     1      26.104  44.402  49.804  1.00  0.00     0.129 HD
BRANCH  31  33
HETATM   33  C   UNL     1      26.318  42.428  50.436  1.00  0.00     0.130 C 
BRANCH  33  34
HETATM   34  C   UNL     1      27.467  41.556  51.004  1.00  0.00     0.164 C 
BRANCH  34  35
HETATM   35  O   UNL     1      27.070  40.981  52.259  1.00  0.00    -0.390 OA
HETATM   36  H   UNL     1      27.699  40.267  52.473  1.00  0.00     0.210 HD
ENDBRANCH  34  35
BRANCH  34  37
HETATM   37  C   UNL     1      28.005  40.440  50.128  1.00  0.00    -0.029 A 
HETATM   38  C   UNL     1      28.741  39.351  50.618  1.00  0.00     0.010 A 
HETATM   39  C   UNL     1      29.199  38.348  49.758  1.00  0.00     0.001 A 
HETATM   40  C   UNL     1      28.930  38.417  48.393  1.00  0.00     0.000 A 
HETATM   41  C   UNL     1      28.204  39.491  47.886  1.00  0.00     0.001 A 
HETATM   42  C   UNL     1      27.748  40.492  48.745  1.00  0.00     0.010 A 
ENDBRANCH  34  37
ENDBRANCH  33  34
ENDBRANCH  31  33
ENDBRANCH   9  31
TORSDOF 10
ENDMDL
MODEL 2
REMARK VINA RESULT:     -10.0      1.884      4.862
REMARK  10 active torsions:
REMARK  status: ('A' for Active; 'I' for Inactive)
REMARK    1  A    between atoms: C_8  and  C_9 
REMARK    2  A    between atoms: N_14  and  C_15 
REMARK    3  A    between atoms: C_15  and  C_16 
REMARK    4  A    between atoms: C_16  and  C_17 
REMARK    5  A    between atoms: C_20  and  O_21 
REMARK    6  A    between atoms: C_27  and  N_28 
REMARK    7  A    between atoms: N_28  and  C_29 
REMARK    8  A    between atoms: C_29  and  C_30 
REMARK    9  A    between atoms: C_30  and  O_31 
REMARK   10  A    between atoms: C_30  and  C_32 
ROOT
HETATM    1  C   UNL     1      28.110  41.341  53.347  1.00  0.00     0.052 C 
HETATM    2  C   UNL     1      27.729  41.501  51.909  1.00  0.00    -0.015 A 
HETATM    3  C   UNL     1      27.145  42.821  51.485  1.00  0.00     0.144 A 
HETATM    4  N   UNL     1      26.885  43.717  52.383  1.00  0.00    -0.217 NA
HETATM    5  N   UNL     1      26.919  43.005  50.131  1.00  0.00    -0.272 N 
HETATM    6  C   UNL     1      26.451  44.228  49.676  1.00  0.00     0.266 C 
HETATM    7  O   UNL     1      26.179  44.470  48.497  1.00  0.00    -0.267 OA
HETATM    8  C   UNL     1      26.278  45.294  50.706  1.00  0.00     0.074 C 
HETATM    9  C   UNL     1      26.425  44.946  52.005  1.00  0.00     0.121 C 
HETATM   10  C   UNL     1      27.124  41.975  49.221  1.00  0.00     0.102 A 
HETATM   11  C   UNL     1      27.587  40.780  49.602  1.00  0.00     0.018 A 
HETATM   12  C   UNL     1      27.920  40.548  50.982  1.00  0.00     0.012 A 
ENDROOT
BRANCH   8  13
HETATM   13  C   UNL     1      25.971  46.643  50.241  1.00  0.00     0.045 C 
HETATM   14  C   UNL     1      24.785  47.051  49.766  1.00  0.00     0.077 A 
HETATM   15  S   UNL     1      23.339  46.131  49.626  1.00  0.00    -0.055 SA
HETATM   16  C   UNL     1      24.575  48.414  49.214  1.00  0.00     0.266 A 
HETATM   17  C   UNL     1      22.530  47.373  48.687  1.00  0.00     0.148 A 
HETATM   18  S   UNL     1      21.017  47.134  48.024  1.00  0.00    -0.052 SA
HETATM   19  N   UNL     1      23.334  48.493  48.605  1.00  0.00    -0.298 N 
HETATM   20  O   UNL     1      25.412  49.304  49.269  1.00  0.00    -0.266 OA
BRANCH  19  21
HETATM   21  C   UNL     1      22.948  49.733  47.929  1.00  0.00     0.138 C 
BRANCH  21  22
HETATM   22  C   UNL     1      22.627  50.854  48.926  1.00  0.00     0.059 C 
BRANCH  22  23
HETATM   23  C   UNL     1      21.144  51.008  49.151  1.00  0.00    -0.057 A 
HETATM   24  C   UNL     1      20.504  50.292  50.171  1.00  0.00     0.010 A 
HETATM   25  C   UNL     1      19.132  50.435  50.381  1.00  0.00     0.037 A 
HETATM   26  C   UNL     1      18.379  51.306  49.591  1.00  0.00     0.068 A 
HETATM   27  C   UNL     1      19.010  52.019  48.573  1.00  0.00     0.037 A 
HETATM   28  C   UNL     1      20.384  51.869  48.353  1.00  0.00     0.010 A 
BRANCH  26  29
HETATM   29  O   UNL     1      17.050  51.362  49.909  1.00  0.00    -0.356 OA
HETATM   30  C   UNL     1      16.136  51.383  48.820  1.00  0.00     0.210 C 
ENDBRANCH  26  29
ENDBRANCH  22  23
ENDBRANCH  21  22
ENDBRANCH  19  21
ENDBRANCH   8  13
BRANCH   9  31
HETATM   31  N   UNL     1      26.193  45.824  53.058  1.00  0.00    -0.274 NA
HETATM   32  H   UNL     1      25.544  46.542  52.725  1.00  0.00     0.129 HD
BRANCH  31  33
HETATM   33  C   UNL     1      27.248  46.382  53.914  1.00  0.00     0.130 C 
BRANCH  33  34
HETATM   34  C   UNL     1      27.367  45.592  55.243  1.00  0.00     0.164 C 
BRANCH  34  35
HETATM   35  O   UNL     1      26.522  44.431  55.200  1.00  0.00    -0.390 OA
HETATM   36  H   UNL     1      26.345  44.156  56.117  1.00  0.00     0.210 HD
ENDBRANCH  34  35
BRANCH  34  37
HETATM   37  C   UNL     1      28.751  45.147  55.677  1.00  0.00    -0.029 A 
HETATM   38  C   UNL     1      29.442  45.701  56.765  1.00  0.00     0.010 A 
HETATM   39  C   UNL     1      30.712  45.237  57.121  1.00  0.00     0.001 A 
HETATM   40  C   UNL     1      31.313  44.211  56.396  1.00  0.00     0.000 A 
HETATM   41  C   UNL     1      30.646  43.650  55.311  1.00  0.00     0.001 A 
HETATM   42  C   UNL     1      29.378  44.115  54.955  1.00  0.00     0.010 A 
ENDBRANCH  34  37
ENDBRANCH  33  34
ENDBRANCH  31  33
ENDBRANCH   9  31
TORSDOF 10
ENDMDL
MODEL 3
REMARK VINA RESULT:     -10.0      2.422      6.115
REMARK  10 active torsions:
REMARK  status: ('A' for Active; 'I' for Inactive)
REMARK    1  A    between atoms: C_8  and  C_9 
REMARK    2  A    between atoms: N_14  and  C_15 
REMARK    3  A    between atoms: C_15  and  C_16 
REMARK    4  A    between atoms: C_16  and  C_17 
REMARK    5  A    between atoms: C_20  and  O_21 
REMARK    6  A    between atoms: C_27  and  N_28 
REMARK    7  A    between atoms: N_28  and  C_29 
REMARK    8  A    between atoms: C_29  and  C_30 
REMARK    9  A    between atoms: C_30  and  O_31 
REMARK   10  A    between atoms: C_30  and  C_32 
ROOT
HETATM    1  C   UNL     1      29.883  37.723  51.384  1.00  0.00     0.052 C 
HETATM    2  C   UNL     1      29.261  38.322  50.162  1.00  0.00    -0.015 A 
HETATM    3  C   UNL     1      28.610  39.671  50.302  1.00  0.00     0.144 A 
HETATM    4  N   UNL     1      28.506  40.206  51.477  1.00  0.00    -0.217 NA
HETATM    5  N   UNL     1      28.155  40.275  49.141  1.00  0.00    -0.272 N 
HETATM    6  C   UNL     1      27.613  41.549  49.201  1.00  0.00     0.266 C 
HETATM    7  O   UNL     1      27.143  42.148  48.231  1.00  0.00    -0.267 OA
HETATM    8  C   UNL     1      27.617  42.207  50.540  1.00  0.00     0.074 C 
HETATM    9  C   UNL     1      27.985  41.462  51.609  1.00  0.00     0.121 C 
HETATM   10  C   UNL     1      28.204  39.614  47.920  1.00  0.00     0.102 A 
HETATM   11  C   UNL     1      28.728  38.390  47.802  1.00  0.00     0.018 A 
HETATM   12  C   UNL     1      29.293  37.739  48.954  1.00  0.00     0.012 A 
ENDROOT
BRANCH   8  13
HETATM   13  C   UNL     1      27.232  43.613  50.607  1.00  0.00     0.045 C 
HETATM   14  C   UNL     1      25.983  44.084  50.476  1.00  0.00     0.077 A 
HETATM   15  S   UNL     1      24.538  43.179  50.249  1.00  0.00    -0.055 SA
HETATM   16  C   UNL     1      25.679  45.539  50.452  1.00  0.00     0.266 A 
HETATM   17  C   UNL     1      23.584  44.612  49.912  1.00  0.00     0.148 A 
HETATM   18  S   UNL     1      21.987  44.517  49.437  1.00  0.00    -0.052 SA
HETATM   19  N   UNL     1      24.357  45.741  50.095  1.00  0.00    -0.298 N 
HETATM   20  O   UNL     1      26.509  46.408  50.681  1.00  0.00    -0.266 OA
BRANCH  19  21
HETATM   21  C   UNL     1      23.862  47.110  49.940  1.00  0.00     0.138 C 
BRANCH  21  22
HETATM   22  C   UNL     1      23.269  47.349  48.545  1.00  0.00     0.059 C 
BRANCH  22  23
HETATM   23  C   UNL     1      22.447  48.612  48.485  1.00  0.00    -0.057 A 
HETATM   24  C   UNL     1      21.070  48.550  48.231  1.00  0.00     0.010 A 
HETATM   25  C   UNL     1      20.310  49.719  48.177  1.00  0.00     0.037 A 
HETATM   26  C   UNL     1      20.902  50.964  48.393  1.00  0.00     0.068 A 
HETATM   27  C   UNL     1      22.272  51.032  48.643  1.00  0.00     0.037 A 
HETATM   28  C   UNL     1      23.040  49.863  48.687  1.00  0.00     0.010 A 
BRANCH  26  29
HETATM   29  O   UNL     1      20.043  52.027  48.325  1.00  0.00    -0.356 OA
HETATM   30  C   UNL     1      18.986  52.051  49.275  1.00  0.00     0.210 C 
ENDBRANCH  26  29
ENDBRANCH  22  23
ENDBRANCH  21  22
ENDBRANCH  19  21
ENDBRANCH   8  13
BRANCH   9  31
HETATM   31  N   UNL     1      27.935  41.932  52.916  1.00  0.00    -0.274 NA
HETATM   32  H   UNL     1      27.310  42.742  52.931  1.00  0.00     0.129 HD
BRANCH  31  33
HETATM   33  C   UNL     1      29.115  42.124  53.769  1.00  0.00     0.130 C 
BRANCH  33  34
HETATM   34  C   UNL     1      29.404  43.630  53.995  1.00  0.00     0.164 C 
BRANCH  34  35
HETATM   35  O   UNL     1      28.211  44.397  53.768  1.00  0.00    -0.390 OA
HETATM   36  H   UNL     1      28.476  45.264  53.410  1.00  0.00     0.210 HD
ENDBRANCH  34  35
BRANCH  34  37
HETATM   37  C   UNL     1      29.977  44.045  55.337  1.00  0.00    -0.029 A 
HETATM   38  C   UNL     1      29.607  45.216  56.014  1.00  0.00     0.010 A 
HETATM   39  C   UNL     1      30.165  45.536  57.256  1.00  0.00     0.001 A 
HETATM   40  C   UNL     1      31.104  44.689  57.841  1.00  0.00     0.000 A 
HETATM   41  C   UNL     1      31.488  43.525  57.185  1.00  0.00     0.001 A 
HETATM   42  C   UNL     1      30.930  43.207  55.945  1.00  0.00     0.010 A 
ENDBRANCH  34  37
ENDBRANCH  33  34
ENDBRANCH  31  33
ENDBRANCH   9  31
TORSDOF 10
ENDMDL
MODEL 4
REMARK VINA RESULT:      -9.9      1.517      2.128
REMARK  10 active torsions:
REMARK  status: ('A' for Active; 'I' for Inactive)
REMARK    1  A    between atoms: C_8  and  C_9 
REMARK    2  A    between atoms: N_14  and  C_15 
REMARK    3  A    between atoms: C_15  and  C_16 
REMARK    4  A    between atoms: C_16  and  C_17 
REMARK    5  A    between atoms: C_20  and  O_21 
REMARK    6  A    between atoms: C_27  and  N_28 
REMARK    7  A    between atoms: N_28  and  C_29 
REMARK    8  A    between atoms: C_29  and  C_30 
REMARK    9  A    between atoms: C_30  and  O_31 
REMARK   10  A    between atoms: C_30  and  C_32 
ROOT
HETATM    1  C   UNL     1      29.620  42.789  54.160  1.00  0.00     0.052 C 
HETATM    2  C   UNL     1      29.036  44.123  54.506  1.00  0.00    -0.015 A 
HETATM    3  C   UNL     1      28.059  44.728  53.536  1.00  0.00     0.144 A 
HETATM    4  N   UNL     1      27.850  44.144  52.400  1.00  0.00    -0.217 NA
HETATM    5  N   UNL     1      27.425  45.897  53.926  1.00  0.00    -0.272 N 
HETATM    6  C   UNL     1      26.461  46.459  53.104  1.00  0.00     0.266 C 
HETATM    7  O   UNL     1      25.877  47.518  53.345  1.00  0.00    -0.267 OA
HETATM    8  C   UNL     1      26.137  45.707  51.856  1.00  0.00     0.074 C 
HETATM    9  C   UNL     1      26.910  44.642  51.541  1.00  0.00     0.121 C 
HETATM   10  C   UNL     1      27.760  46.533  55.115  1.00  0.00     0.102 A 
HETATM   11  C   UNL     1      28.671  46.029  55.952  1.00  0.00     0.018 A 
HETATM   12  C   UNL     1      29.308  44.776  55.647  1.00  0.00     0.012 A 
ENDROOT
BRANCH   8  13
HETATM   13  C   UNL     1      24.999  46.165  51.065  1.00  0.00     0.045 C 
HETATM   14  C   UNL     1      25.036  47.133  50.138  1.00  0.00     0.077 A 
HETATM   15  S   UNL     1      26.405  48.036  49.618  1.00  0.00    -0.055 SA
HETATM   16  C   UNL     1      23.815  47.618  49.444  1.00  0.00     0.266 A 
HETATM   17  C   UNL     1      25.427  49.161  48.692  1.00  0.00     0.148 A 
HETATM   18  S   UNL     1      26.089  50.500  47.949  1.00  0.00    -0.052 SA
HETATM   19  N   UNL     1      24.108  48.753  48.708  1.00  0.00    -0.298 N 
HETATM   20  O   UNL     1      22.717  47.092  49.558  1.00  0.00    -0.266 OA
BRANCH  19  21
HETATM   21  C   UNL     1      23.028  49.442  47.998  1.00  0.00     0.138 C 
BRANCH  21  22
HETATM   22  C   UNL     1      22.721  50.813  48.614  1.00  0.00     0.059 C 
BRANCH  22  23
HETATM   23  C   UNL     1      21.286  50.925  49.066  1.00  0.00    -0.057 A 
HETATM   24  C   UNL     1      20.432  51.872  48.485  1.00  0.00     0.010 A 
HETATM   25  C   UNL     1      19.105  51.975  48.902  1.00  0.00     0.037 A 
HETATM   26  C   UNL     1      18.601  51.126  49.889  1.00  0.00     0.068 A 
HETATM   27  C   UNL     1      19.447  50.184  50.472  1.00  0.00     0.037 A 
HETATM   28  C   UNL     1      20.783  50.085  50.065  1.00  0.00     0.010 A 
BRANCH  26  29
HETATM   29  O   UNL     1      17.283  51.323  50.195  1.00  0.00    -0.356 OA
HETATM   30  C   UNL     1      16.732  52.587  49.850  1.00  0.00     0.210 C 
ENDBRANCH  26  29
ENDBRANCH  22  23
ENDBRANCH  21  22
ENDBRANCH  19  21
ENDBRANCH   8  13
BRANCH   9  31
HETATM   31  N   UNL     1      26.769  43.923  50.360  1.00  0.00    -0.274 NA
HETATM   32  H   UNL     1      25.824  44.092  50.005  1.00  0.00     0.129 HD
BRANCH  31  33
HETATM   33  C   UNL     1      27.186  42.526  50.190  1.00  0.00     0.130 C 
BRANCH  33  34
HETATM   34  C   UNL     1      26.901  42.026  48.750  1.00  0.00     0.164 C 
BRANCH  34  35
HETATM   35  O   UNL     1      27.765  40.923  48.435  1.00  0.00    -0.390 OA
HETATM   36  H   UNL     1      27.743  40.302  49.186  1.00  0.00     0.210 HD
ENDBRANCH  34  35
BRANCH  34  37
HETATM   37  C   UNL     1      25.479  41.618  48.414  1.00  0.00    -0.029 A 
HETATM   38  C   UNL     1      24.355  42.046  49.136  1.00  0.00     0.010 A 
HETATM   39  C   UNL     1      23.067  41.642  48.767  1.00  0.00     0.001 A 
HETATM   40  C   UNL     1      22.883  40.803  47.671  1.00  0.00     0.000 A 
HETATM   41  C   UNL     1      23.985  40.364  46.944  1.00  0.00     0.001 A 
HETATM   42  C   UNL     1      25.270  40.767  47.313  1.00  0.00     0.010 A 
ENDBRANCH  34  37
ENDBRANCH  33  34
ENDBRANCH  31  33
ENDBRANCH   9  31
TORSDOF 10
ENDMDL
MODEL 5
REMARK VINA RESULT:      -9.9      1.966      5.601
REMARK  10 active torsions:
REMARK  status: ('A' for Active; 'I' for Inactive)
REMARK    1  A    between atoms: C_8  and  C_9 
REMARK    2  A    between atoms: N_14  and  C_15 
REMARK    3  A    between atoms: C_15  and  C_16 
REMARK    4  A    between atoms: C_16  and  C_17 
REMARK    5  A    between atoms: C_20  and  O_21 
REMARK    6  A    between atoms: C_27  and  N_28 
REMARK    7  A    between atoms: N_28  and  C_29 
REMARK    8  A    between atoms: C_29  and  C_30 
REMARK    9  A    between atoms: C_30  and  O_31 
REMARK   10  A    between atoms: C_30  and  C_32 
ROOT
HETATM    1  C   UNL     1      29.718  38.725  50.875  1.00  0.00     0.052 C 
HETATM    2  C   UNL     1      28.649  38.729  49.827  1.00  0.00    -0.015 A 
HETATM    3  C   UNL     1      27.541  39.737  49.966  1.00  0.00     0.144 A 
HETATM    4  N   UNL     1      27.484  40.474  51.029  1.00  0.00    -0.217 NA
HETATM    5  N   UNL     1      26.631  39.822  48.924  1.00  0.00    -0.272 N 
HETATM    6  C   UNL     1      25.634  40.782  48.965  1.00  0.00     0.266 C 
HETATM    7  O   UNL     1      24.754  40.904  48.108  1.00  0.00    -0.267 OA
HETATM    8  C   UNL     1      25.656  41.709  50.134  1.00  0.00     0.074 C 
HETATM    9  C   UNL     1      26.528  41.444  51.134  1.00  0.00     0.121 C 
HETATM   10  C   UNL     1      26.683  38.940  47.852  1.00  0.00     0.102 A 
HETATM   11  C   UNL     1      27.632  38.003  47.754  1.00  0.00     0.018 A 
HETATM   12  C   UNL     1      28.656  37.914  48.760  1.00  0.00     0.012 A 
ENDROOT
BRANCH   8  13
HETATM   13  C   UNL     1      24.742  42.847  50.115  1.00  0.00     0.045 C 
HETATM   14  C   UNL     1      25.089  44.119  49.872  1.00  0.00     0.077 A 
HETATM   15  S   UNL     1      26.651  44.725  49.482  1.00  0.00    -0.055 SA
HETATM   16  C   UNL     1      24.121  45.242  49.971  1.00  0.00     0.266 A 
HETATM   17  C   UNL     1      26.147  46.397  49.650  1.00  0.00     0.148 A 
HETATM   18  S   UNL     1      27.231  47.661  49.540  1.00  0.00    -0.052 SA
HETATM   19  N   UNL     1      24.787  46.452  49.881  1.00  0.00    -0.298 N 
HETATM   20  O   UNL     1      22.920  45.087  50.146  1.00  0.00    -0.266 OA
BRANCH  19  21
HETATM   21  C   UNL     1      24.029  47.696  50.027  1.00  0.00     0.138 C 
BRANCH  21  22
HETATM   22  C   UNL     1      23.165  47.989  48.794  1.00  0.00     0.059 C 
BRANCH  22  23
HETATM   23  C   UNL     1      21.974  48.854  49.125  1.00  0.00    -0.057 A 
HETATM   24  C   UNL     1      22.150  50.202  49.463  1.00  0.00     0.010 A 
HETATM   25  C   UNL     1      21.049  51.002  49.769  1.00  0.00     0.037 A 
HETATM   26  C   UNL     1      19.755  50.480  49.724  1.00  0.00     0.068 A 
HETATM   27  C   UNL     1      19.575  49.138  49.391  1.00  0.00     0.037 A 
HETATM   28  C   UNL     1      20.678  48.329  49.096  1.00  0.00     0.010 A 
BRANCH  26  29
HETATM   29  O   UNL     1      18.766  51.373  50.032  1.00  0.00    -0.356 OA
HETATM   30  C   UNL     1      17.474  51.096  49.508  1.00  0.00     0.210 C 
ENDBRANCH  26  29
ENDBRANCH  22  23
ENDBRANCH  21  22
ENDBRANCH  19  21
ENDBRANCH   8  13
BRANCH   9  31
HETATM   31  N   UNL     1      26.575  42.175  52.315  1.00  0.00    -0.274 NA
HETATM   32  H   UNL     1      25.630  42.522  52.503  1.00  0.00     0.129 HD
BRANCH  31  33
HETATM   33  C   UNL     1      27.606  43.172  52.628  1.00  0.00     0.130 C 
BRANCH  33  34
HETATM   34  C   UNL     1      28.731  42.561  53.503  1.00  0.00     0.164 C 
BRANCH  34  35
HETATM   35  O   UNL     1      29.769  42.029  52.665  1.00  0.00    -0.390 OA
HETATM   36  H   UNL     1      30.397  41.551  53.235  1.00  0.00     0.210 HD
ENDBRANCH  34  35
BRANCH  34  37
HETATM   37  C   UNL     1      29.381  43.456  54.542  1.00  0.00    -0.029 A 
HETATM   38  C   UNL     1      30.533  43.105  55.260  1.00  0.00     0.010 A 
HETATM   39  C   UNL     1      31.091  43.981  56.198  1.00  0.00     0.001 A 
HETATM   40  C   UNL     1      30.505  45.223  56.431  1.00  0.00     0.000 A 
HETATM   41  C   UNL     1      29.360  45.589  55.731  1.00  0.00     0.001 A 
HETATM   42  C   UNL     1      28.803  44.713  54.797  1.00  0.00     0.010 A 
ENDBRANCH  34  37
ENDBRANCH  33  34
ENDBRANCH  31  33
ENDBRANCH   9  31
TORSDOF 10
ENDMDL
MODEL 6
REMARK VINA RESULT:      -9.7      3.415     10.311
REMARK  10 active torsions:
REMARK  status: ('A' for Active; 'I' for Inactive)
REMARK    1  A    between atoms: C_8  and  C_9 
REMARK    2  A    between atoms: N_14  and  C_15 
REMARK    3  A    between atoms: C_15  and  C_16 
REMARK    4  A    between atoms: C_16  and  C_17 
REMARK    5  A    between atoms: C_20  and  O_21 
REMARK    6  A    between atoms: C_27  and  N_28 
REMARK    7  A    between atoms: N_28  and  C_29 
REMARK    8  A    between atoms: C_29  and  C_30 
REMARK    9  A    between atoms: C_30  and  O_31 
REMARK   10  A    between atoms: C_30  and  C_32 
ROOT
HETATM    1  C   UNL     1      20.318  49.104  47.327  1.00  0.00     0.052 C 
HETATM    2  C   UNL     1      21.586  49.544  47.990  1.00  0.00    -0.015 A 
HETATM    3  C   UNL     1      22.518  48.475  48.491  1.00  0.00     0.144 A 
HETATM    4  N   UNL     1      22.146  47.236  48.442  1.00  0.00    -0.217 NA
HETATM    5  N   UNL     1      23.746  48.887  48.982  1.00  0.00    -0.272 N 
HETATM    6  C   UNL     1      24.673  47.941  49.389  1.00  0.00     0.266 C 
HETATM    7  O   UNL     1      25.771  48.213  49.879  1.00  0.00    -0.267 OA
HETATM    8  C   UNL     1      24.282  46.513  49.207  1.00  0.00     0.074 C 
HETATM    9  C   UNL     1      23.011  46.249  48.823  1.00  0.00     0.121 C 
HETATM   10  C   UNL     1      24.055  50.237  49.103  1.00  0.00     0.102 A 
HETATM   11  C   UNL     1      23.205  51.192  48.713  1.00  0.00     0.018 A 
HETATM   12  C   UNL     1      21.946  50.831  48.118  1.00  0.00     0.012 A 
ENDROOT
BRANCH   8  13
HETATM   13  C   UNL     1      25.301  45.495  49.445  1.00  0.00     0.045 C 
HETATM   14  C   UNL     1      25.517  44.869  50.611  1.00  0.00     0.077 A 
HETATM   15  S   UNL     1      24.647  45.061  52.082  1.00  0.00    -0.055 SA
HETATM   16  C   UNL     1      26.641  43.917  50.807  1.00  0.00     0.266 A 
HETATM   17  C   UNL     1      25.807  44.119  53.000  1.00  0.00     0.148 A 
HETATM   18  S   UNL     1      25.699  43.955  54.657  1.00  0.00    -0.052 SA
HETATM   19  N   UNL     1      26.756  43.589  52.147  1.00  0.00    -0.298 N 
HETATM   20  O   UNL     1      27.366  43.529  49.902  1.00  0.00    -0.266 OA
BRANCH  19  21
HETATM   21  C   UNL     1      27.849  42.716  52.577  1.00  0.00     0.138 C 
BRANCH  21  22
HETATM   22  C   UNL     1      29.198  43.448  52.587  1.00  0.00     0.059 C 
BRANCH  22  23
HETATM   23  C   UNL     1      29.654  43.781  53.985  1.00  0.00    -0.057 A 
HETATM   24  C   UNL     1      29.128  44.893  54.656  1.00  0.00     0.010 A 
HETATM   25  C   UNL     1      29.550  45.201  55.950  1.00  0.00     0.037 A 
HETATM   26  C   UNL     1      30.485  44.398  56.604  1.00  0.00     0.068 A 
HETATM   27  C   UNL     1      31.014  43.291  55.940  1.00  0.00     0.037 A 
HETATM   28  C   UNL     1      30.602  42.986  54.637  1.00  0.00     0.010 A 
BRANCH  26  29
HETATM   29  O   UNL     1      30.801  44.803  57.871  1.00  0.00    -0.356 OA
HETATM   30  C   UNL     1      30.493  46.151  58.203  1.00  0.00     0.210 C 
ENDBRANCH  26  29
ENDBRANCH  22  23
ENDBRANCH  21  22
ENDBRANCH  19  21
ENDBRANCH   8  13
BRANCH   9  31
HETATM   31  N   UNL     1      22.501  44.961  48.716  1.00  0.00    -0.274 NA
HETATM   32  H   UNL     1      22.984  44.500  47.939  1.00  0.00     0.129 HD
BRANCH  31  33
HETATM   33  C   UNL     1      21.070  44.635  48.753  1.00  0.00     0.130 C 
BRANCH  33  34
HETATM   34  C   UNL     1      20.457  44.636  47.329  1.00  0.00     0.164 C 
BRANCH  34  35
HETATM   35  O   UNL     1      20.148  43.292  46.928  1.00  0.00    -0.390 OA
HETATM   36  H   UNL     1      19.909  42.789  47.727  1.00  0.00     0.210 HD
ENDBRANCH  34  35
BRANCH  34  37
HETATM   37  C   UNL     1      19.225  45.489  47.092  1.00  0.00    -0.029 A 
HETATM   38  C   UNL     1      18.805  45.915  45.823  1.00  0.00     0.010 A 
HETATM   39  C   UNL     1      17.652  46.692  45.671  1.00  0.00     0.001 A 
HETATM   40  C   UNL     1      16.899  47.055  46.785  1.00  0.00     0.000 A 
HETATM   41  C   UNL     1      17.300  46.645  48.053  1.00  0.00     0.001 A 
HETATM   42  C   UNL     1      18.452  45.871  48.204  1.00  0.00     0.010 A 
ENDBRANCH  34  37
ENDBRANCH  33  34
ENDBRANCH  31  33
ENDBRANCH   9  31
TORSDOF 10
ENDMDL
MODEL 7
REMARK VINA RESULT:      -9.5      3.513      9.809
REMARK  10 active torsions:
REMARK  status: ('A' for Active; 'I' for Inactive)
REMARK    1  A    between atoms: C_8  and  C_9 
REMARK    2  A    between atoms: N_14  and  C_15 
REMARK    3  A    between atoms: C_15  and  C_16 
REMARK    4  A    between atoms: C_16  and  C_17 
REMARK    5  A    between atoms: C_20  and  O_21 
REMARK    6  A    between atoms: C_27  and  N_28 
REMARK    7  A    between atoms: N_28  and  C_29 
REMARK    8  A    between atoms: C_29  and  C_30 
REMARK    9  A    between atoms: C_30  and  O_31 
REMARK   10  A    between atoms: C_30  and  C_32 
ROOT
HETATM    1  C   UNL     1      20.251  48.767  47.390  1.00  0.00     0.052 C 
HETATM    2  C   UNL     1      21.560  49.232  47.948  1.00  0.00    -0.015 A 
HETATM    3  C   UNL     1      22.503  48.187  48.478  1.00  0.00     0.144 A 
HETATM    4  N   UNL     1      22.111  46.955  48.543  1.00  0.00    -0.217 NA
HETATM    5  N   UNL     1      23.762  48.613  48.868  1.00  0.00    -0.272 N 
HETATM    6  C   UNL     1      24.696  47.683  49.295  1.00  0.00     0.266 C 
HETATM    7  O   UNL     1      25.824  47.971  49.703  1.00  0.00    -0.267 OA
HETATM    8  C   UNL     1      24.276  46.252  49.244  1.00  0.00     0.074 C 
HETATM    9  C   UNL     1      22.982  45.984  48.951  1.00  0.00     0.121 C 
HETATM   10  C   UNL     1      24.096  49.962  48.869  1.00  0.00     0.102 A 
HETATM   11  C   UNL     1      23.239  50.900  48.454  1.00  0.00     0.018 A 
HETATM   12  C   UNL     1      21.944  50.518  47.958  1.00  0.00     0.012 A 
ENDROOT
BRANCH   8  13
HETATM   13  C   UNL     1      25.292  45.237  49.504  1.00  0.00     0.045 C 
HETATM   14  C   UNL     1      25.532  44.663  50.691  1.00  0.00     0.077 A 
HETATM   15  S   UNL     1      24.699  44.929  52.173  1.00  0.00    -0.055 SA
HETATM   16  C   UNL     1      26.652  43.710  50.904  1.00  0.00     0.266 A 
HETATM   17  C   UNL     1      25.875  44.019  53.104  1.00  0.00     0.148 A 
HETATM   18  S   UNL     1      25.806  43.932  54.770  1.00  0.00    -0.052 SA
HETATM   19  N   UNL     1      26.798  43.442  52.254  1.00  0.00    -0.298 N 
HETATM   20  O   UNL     1      27.351  43.275  49.999  1.00  0.00    -0.266 OA
BRANCH  19  21
HETATM   21  C   UNL     1      27.894  42.579  52.696  1.00  0.00     0.138 C 
BRANCH  21  22
HETATM   22  C   UNL     1      29.249  43.295  52.630  1.00  0.00     0.059 C 
BRANCH  22  23
HETATM   23  C   UNL     1      29.728  43.734  53.991  1.00  0.00    -0.057 A 
HETATM   24  C   UNL     1      29.263  44.931  54.553  1.00  0.00     0.010 A 
HETATM   25  C   UNL     1      29.705  45.337  55.812  1.00  0.00     0.037 A 
HETATM   26  C   UNL     1      30.600  44.551  56.541  1.00  0.00     0.068 A 
HETATM   27  C   UNL     1      31.067  43.361  55.985  1.00  0.00     0.037 A 
HETATM   28  C   UNL     1      30.635  42.956  54.717  1.00  0.00     0.010 A 
BRANCH  26  29
HETATM   29  O   UNL     1      30.941  45.057  57.765  1.00  0.00    -0.356 OA
HETATM   30  C   UNL     1      29.871  45.493  58.594  1.00  0.00     0.210 C 
ENDBRANCH  26  29
ENDBRANCH  22  23
ENDBRANCH  21  22
ENDBRANCH  19  21
ENDBRANCH   8  13
BRANCH   9  31
HETATM   31  N   UNL     1      22.448  44.701  48.970  1.00  0.00    -0.274 NA
HETATM   32  H   UNL     1      23.010  44.141  49.618  1.00  0.00     0.129 HD
BRANCH  31  33
HETATM   33  C   UNL     1      22.070  43.947  47.768  1.00  0.00     0.130 C 
BRANCH  33  34
HETATM   34  C   UNL     1      23.042  44.238  46.595  1.00  0.00     0.164 C 
BRANCH  34  35
HETATM   35  O   UNL     1      23.745  43.039  46.234  1.00  0.00    -0.390 OA
HETATM   36  H   UNL     1      23.115  42.446  45.787  1.00  0.00     0.210 HD
ENDBRANCH  34  35
BRANCH  34  37
HETATM   37  C   UNL     1      22.460  44.838  45.329  1.00  0.00    -0.029 A 
HETATM   38  C   UNL     1      23.088  44.773  44.076  1.00  0.00     0.010 A 
HETATM   39  C   UNL     1      22.492  45.338  42.943  1.00  0.00     0.001 A 
HETATM   40  C   UNL     1      21.258  45.976  43.045  1.00  0.00     0.000 A 
HETATM   41  C   UNL     1      20.620  46.054  44.278  1.00  0.00     0.001 A 
HETATM   42  C   UNL     1      21.216  45.492  45.409  1.00  0.00     0.010 A 
ENDBRANCH  34  37
ENDBRANCH  33  34
ENDBRANCH  31  33
ENDBRANCH   9  31
TORSDOF 10
ENDMDL
MODEL 8
REMARK VINA RESULT:      -9.5      3.657     11.449
REMARK  10 active torsions:
REMARK  status: ('A' for Active; 'I' for Inactive)
REMARK    1  A    between atoms: C_8  and  C_9 
REMARK    2  A    between atoms: N_14  and  C_15 
REMARK    3  A    between atoms: C_15  and  C_16 
REMARK    4  A    between atoms: C_16  and  C_17 
REMARK    5  A    between atoms: C_20  and  O_21 
REMARK    6  A    between atoms: C_27  and  N_28 
REMARK    7  A    between atoms: N_28  and  C_29 
REMARK    8  A    between atoms: C_29  and  C_30 
REMARK    9  A    between atoms: C_30  and  O_31 
REMARK   10  A    between atoms: C_30  and  C_32 
ROOT
HETATM    1  C   UNL     1      17.841  47.507  44.300  1.00  0.00     0.052 C 
HETATM    2  C   UNL     1      19.186  46.894  44.062  1.00  0.00    -0.015 A 
HETATM    3  C   UNL     1      19.959  46.423  45.263  1.00  0.00     0.144 A 
HETATM    4  N   UNL     1      19.499  46.666  46.448  1.00  0.00    -0.217 NA
HETATM    5  N   UNL     1      21.140  45.739  45.024  1.00  0.00    -0.272 N 
HETATM    6  C   UNL     1      21.856  45.218  46.090  1.00  0.00     0.266 C 
HETATM    7  O   UNL     1      22.937  44.635  45.980  1.00  0.00    -0.267 OA
HETATM    8  C   UNL     1      21.249  45.393  47.442  1.00  0.00     0.074 C 
HETATM    9  C   UNL     1      20.152  46.179  47.545  1.00  0.00     0.121 C 
HETATM   10  C   UNL     1      21.637  45.591  43.735  1.00  0.00     0.102 A 
HETATM   11  C   UNL     1      20.982  46.061  42.669  1.00  0.00     0.018 A 
HETATM   12  C   UNL     1      19.709  46.709  42.839  1.00  0.00     0.012 A 
ENDROOT
BRANCH   8  13
HETATM   13  C   UNL     1      21.875  44.696  48.562  1.00  0.00     0.045 C 
HETATM   14  C   UNL     1      22.857  45.187  49.331  1.00  0.00     0.077 A 
HETATM   15  S   UNL     1      23.589  46.740  49.236  1.00  0.00    -0.055 SA
HETATM   16  C   UNL     1      23.517  44.379  50.390  1.00  0.00     0.266 A 
HETATM   17  C   UNL     1      24.858  46.314  50.370  1.00  0.00     0.148 A 
HETATM   18  S   UNL     1      26.122  47.350  50.710  1.00  0.00    -0.052 SA
HETATM   19  N   UNL     1      24.626  45.051  50.876  1.00  0.00    -0.298 N 
HETATM   20  O   UNL     1      23.136  43.269  50.732  1.00  0.00    -0.266 OA
BRANCH  19  21
HETATM   21  C   UNL     1      25.470  44.402  51.882  1.00  0.00     0.138 C 
BRANCH  21  22
HETATM   22  C   UNL     1      26.860  44.062  51.329  1.00  0.00     0.059 C 
BRANCH  22  23
HETATM   23  C   UNL     1      27.869  43.838  52.427  1.00  0.00    -0.057 A 
HETATM   24  C   UNL     1      28.942  42.957  52.235  1.00  0.00     0.010 A 
HETATM   25  C   UNL     1      29.876  42.750  53.250  1.00  0.00     0.037 A 
HETATM   26  C   UNL     1      29.769  43.430  54.465  1.00  0.00     0.068 A 
HETATM   27  C   UNL     1      28.702  44.305  54.663  1.00  0.00     0.037 A 
HETATM   28  C   UNL     1      27.757  44.506  53.651  1.00  0.00     0.010 A 
BRANCH  26  29
HETATM   29  O   UNL     1      30.757  43.146  55.368  1.00  0.00    -0.356 OA
HETATM   30  C   UNL     1      31.098  44.180  56.283  1.00  0.00     0.210 C 
ENDBRANCH  26  29
ENDBRANCH  22  23
ENDBRANCH  21  22
ENDBRANCH  19  21
ENDBRANCH   8  13
BRANCH   9  31
HETATM   31  N   UNL     1      19.556  46.497  48.760  1.00  0.00    -0.274 NA
HETATM   32  H   UNL     1      19.688  45.699  49.388  1.00  0.00     0.129 HD
BRANCH  31  33
HETATM   33  C   UNL     1      18.222  47.094  48.893  1.00  0.00     0.130 C 
BRANCH  33  34
HETATM   34  C   UNL     1      18.227  48.256  49.920  1.00  0.00     0.164 C 
BRANCH  34  35
HETATM   35  O   UNL     1      18.987  47.881  51.079  1.00  0.00    -0.390 OA
HETATM   36  H   UNL     1      19.116  48.679  51.623  1.00  0.00     0.210 HD
ENDBRANCH  34  35
BRANCH  34  37
HETATM   37  C   UNL     1      18.727  49.610  49.451  1.00  0.00    -0.029 A 
HETATM   38  C   UNL     1      19.762  49.778  48.520  1.00  0.00     0.010 A 
HETATM   39  C   UNL     1      20.169  51.055  48.120  1.00  0.00     0.001 A 
HETATM   40  C   UNL     1      19.547  52.185  48.644  1.00  0.00     0.000 A 
HETATM   41  C   UNL     1      18.520  52.041  49.571  1.00  0.00     0.001 A 
HETATM   42  C   UNL     1      18.115  50.765  49.971  1.00  0.00     0.010 A 
ENDBRANCH  34  37
ENDBRANCH  33  34
ENDBRANCH  31  33
ENDBRANCH   9  31
TORSDOF 10
ENDMDL
MODEL 9
REMARK VINA RESULT:      -9.3      3.036      5.637
REMARK  10 active torsions:
REMARK  status: ('A' for Active; 'I' for Inactive)
REMARK    1  A    between atoms: C_8  and  C_9 
REMARK    2  A    between atoms: N_14  and  C_15 
REMARK    3  A    between atoms: C_15  and  C_16 
REMARK    4  A    between atoms: C_16  and  C_17 
REMARK    5  A    between atoms: C_20  and  O_21 
REMARK    6  A    between atoms: C_27  and  N_28 
REMARK    7  A    between atoms: N_28  and  C_29 
REMARK    8  A    between atoms: C_29  and  C_30 
REMARK    9  A    between atoms: C_30  and  O_31 
REMARK   10  A    between atoms: C_30  and  C_32 
ROOT
HETATM    1  C   UNL     1      26.086  40.587  50.493  1.00  0.00     0.052 C 
HETATM    2  C   UNL     1      25.411  40.848  49.182  1.00  0.00    -0.015 A 
HETATM    3  C   UNL     1      24.716  42.170  49.007  1.00  0.00     0.144 A 
HETATM    4  N   UNL     1      24.623  42.976  50.017  1.00  0.00    -0.217 NA
HETATM    5  N   UNL     1      24.210  42.456  47.750  1.00  0.00    -0.272 N 
HETATM    6  C   UNL     1      23.625  43.689  47.512  1.00  0.00     0.266 C 
HETATM    7  O   UNL     1      23.108  44.015  46.440  1.00  0.00    -0.267 OA
HETATM    8  C   UNL     1      23.639  44.657  48.647  1.00  0.00     0.074 C 
HETATM    9  C   UNL     1      24.061  44.210  49.853  1.00  0.00     0.121 C 
HETATM   10  C   UNL     1      24.251  41.514  46.728  1.00  0.00     0.102 A 
HETATM   11  C   UNL     1      24.816  40.314  46.898  1.00  0.00     0.018 A 
HETATM   12  C   UNL     1      25.433  39.985  48.154  1.00  0.00     0.012 A 
ENDROOT
BRANCH   8  13
HETATM   13  C   UNL     1      23.206  46.025  48.378  1.00  0.00     0.045 C 
HETATM   14  C   UNL     1      21.936  46.455  48.395  1.00  0.00     0.077 A 
HETATM   15  S   UNL     1      20.525  45.548  48.774  1.00  0.00    -0.055 SA
HETATM   16  C   UNL     1      21.560  47.840  48.010  1.00  0.00     0.266 A 
HETATM   17  C   UNL     1      19.447  46.829  48.249  1.00  0.00     0.148 A 
HETATM   18  S   UNL     1      17.792  46.622  48.191  1.00  0.00    -0.052 SA
HETATM   19  N   UNL     1      20.183  47.948  47.913  1.00  0.00    -0.298 N 
HETATM   20  O   UNL     1      22.373  48.724  47.780  1.00  0.00    -0.266 OA
BRANCH  19  21
HETATM   21  C   UNL     1      19.595  49.215  47.473  1.00  0.00     0.138 C 
BRANCH  21  22
HETATM   22  C   UNL     1      19.696  50.299  48.554  1.00  0.00     0.059 C 
BRANCH  22  23
HETATM   23  C   UNL     1      18.367  50.957  48.825  1.00  0.00    -0.057 A 
HETATM   24  C   UNL     1      17.185  50.401  48.319  1.00  0.00     0.010 A 
HETATM   25  C   UNL     1      15.955  51.010  48.571  1.00  0.00     0.037 A 
HETATM   26  C   UNL     1      15.879  52.169  49.345  1.00  0.00     0.068 A 
HETATM   27  C   UNL     1      17.053  52.728  49.848  1.00  0.00     0.037 A 
HETATM   28  C   UNL     1      18.290  52.127  49.588  1.00  0.00     0.010 A 
BRANCH  26  29
HETATM   29  O   UNL     1      14.614  52.656  49.526  1.00  0.00    -0.356 OA
HETATM   30  C   UNL     1      14.347  53.285  50.773  1.00  0.00     0.210 C 
ENDBRANCH  26  29
ENDBRANCH  22  23
ENDBRANCH  21  22
ENDBRANCH  19  21
ENDBRANCH   8  13
BRANCH   9  31
HETATM   31  N   UNL     1      24.028  44.987  51.005  1.00  0.00    -0.274 NA
HETATM   32  H   UNL     1      23.296  45.692  50.883  1.00  0.00     0.129 HD
BRANCH  31  33
HETATM   33  C   UNL     1      25.220  45.532  51.667  1.00  0.00     0.130 C 
BRANCH  33  34
HETATM   34  C   UNL     1      25.542  44.756  52.970  1.00  0.00     0.164 C 
BRANCH  34  35
HETATM   35  O   UNL     1      24.671  43.621  53.092  1.00  0.00    -0.390 OA
HETATM   36  H   UNL     1      25.203  42.818  52.946  1.00  0.00     0.210 HD
ENDBRANCH  34  35
BRANCH  34  37
HETATM   37  C   UNL     1      26.967  44.275  53.171  1.00  0.00    -0.029 A 
HETATM   38  C   UNL     1      27.699  44.478  54.350  1.00  0.00     0.010 A 
HETATM   39  C   UNL     1      29.007  43.999  54.475  1.00  0.00     0.001 A 
HETATM   40  C   UNL     1      29.604  43.308  53.424  1.00  0.00     0.000 A 
HETATM   41  C   UNL     1      28.897  43.098  52.245  1.00  0.00     0.001 A 
HETATM   42  C   UNL     1      27.592  43.578  52.120  1.00  0.00     0.010 A 
ENDBRANCH  34  37
ENDBRANCH  33  34
ENDBRANCH  31  33
ENDBRANCH   9  31
TORSDOF 10
ENDMDL
MODEL 10
REMARK VINA RESULT:      -9.2      1.735      2.189
REMARK  10 active torsions:
REMARK  status: ('A' for Active; 'I' for Inactive)
REMARK    1  A    between atoms: C_8  and  C_9 
REMARK    2  A    between atoms: N_14  and  C_15 
REMARK    3  A    between atoms: C_15  and  C_16 
REMARK    4  A    between atoms: C_16  and  C_17 
REMARK    5  A    between atoms: C_20  and  O_21 
REMARK    6  A    between atoms: C_27  and  N_28 
REMARK    7  A    between atoms: N_28  and  C_29 
REMARK    8  A    between atoms: C_29  and  C_30 
REMARK    9  A    between atoms: C_30  and  O_31 
REMARK   10  A    between atoms: C_30  and  C_32 
ROOT
HETATM    1  C   UNL     1      29.503  42.576  53.716  1.00  0.00     0.052 C 
HETATM    2  C   UNL     1      28.895  43.887  54.108  1.00  0.00    -0.015 A 
HETATM    3  C   UNL     1      27.897  44.502  53.166  1.00  0.00     0.144 A 
HETATM    4  N   UNL     1      27.688  43.948  52.014  1.00  0.00    -0.217 NA
HETATM    5  N   UNL     1      27.243  45.645  53.597  1.00  0.00    -0.272 N 
HETATM    6  C   UNL     1      26.260  46.211  52.802  1.00  0.00     0.266 C 
HETATM    7  O   UNL     1      25.657  47.250  53.081  1.00  0.00    -0.267 OA
HETATM    8  C   UNL     1      25.938  45.491  51.535  1.00  0.00     0.074 C 
HETATM    9  C   UNL     1      26.730  44.452  51.181  1.00  0.00     0.121 C 
HETATM   10  C   UNL     1      27.576  46.251  54.802  1.00  0.00     0.102 A 
HETATM   11  C   UNL     1      28.506  45.741  55.615  1.00  0.00     0.018 A 
HETATM   12  C   UNL     1      29.165  44.511  55.266  1.00  0.00     0.012 A 
ENDROOT
BRANCH   8  13
HETATM   13  C   UNL     1      24.784  45.949  50.769  1.00  0.00     0.045 C 
HETATM   14  C   UNL     1      24.776  46.990  49.922  1.00  0.00     0.077 A 
HETATM   15  S   UNL     1      26.098  48.002  49.492  1.00  0.00    -0.055 SA
HETATM   16  C   UNL     1      23.536  47.463  49.253  1.00  0.00     0.266 A 
HETATM   17  C   UNL     1      25.069  49.143  48.645  1.00  0.00     0.148 A 
HETATM   18  S   UNL     1      25.663  50.571  48.018  1.00  0.00    -0.052 SA
HETATM   19  N   UNL     1      23.773  48.666  48.613  1.00  0.00    -0.298 N 
HETATM   20  O   UNL     1      22.467  46.871  49.312  1.00  0.00    -0.266 OA
BRANCH  19  21
HETATM   21  C   UNL     1      22.663  49.351  47.946  1.00  0.00     0.138 C 
BRANCH  21  22
HETATM   22  C   UNL     1      21.925  50.303  48.896  1.00  0.00     0.059 C 
BRANCH  22  23
HETATM   23  C   UNL     1      20.636  50.813  48.302  1.00  0.00    -0.057 A 
HETATM   24  C   UNL     1      20.035  50.139  47.230  1.00  0.00     0.010 A 
HETATM   25  C   UNL     1      18.842  50.610  46.681  1.00  0.00     0.037 A 
HETATM   26  C   UNL     1      18.218  51.746  47.201  1.00  0.00     0.068 A 
HETATM   27  C   UNL     1      18.814  52.422  48.265  1.00  0.00     0.037 A 
HETATM   28  C   UNL     1      20.017  51.959  48.811  1.00  0.00     0.010 A 
BRANCH  26  29
HETATM   29  O   UNL     1      17.049  52.092  46.581  1.00  0.00    -0.356 OA
HETATM   30  C   UNL     1      16.673  51.312  45.453  1.00  0.00     0.210 C 
ENDBRANCH  26  29
ENDBRANCH  22  23
ENDBRANCH  21  22
ENDBRANCH  19  21
ENDBRANCH   8  13
BRANCH   9  31
HETATM   31  N   UNL     1      26.592  43.768  49.979  1.00  0.00    -0.274 NA
HETATM   32  H   UNL     1      25.600  43.779  49.728  1.00  0.00     0.129 HD
BRANCH  31  33
HETATM   33  C   UNL     1      27.224  42.474  49.690  1.00  0.00     0.130 C 
BRANCH  33  34
HETATM   34  C   UNL     1      26.241  41.519  48.965  1.00  0.00     0.164 C 
BRANCH  34  35
HETATM   35  O   UNL     1      24.912  42.062  49.006  1.00  0.00    -0.390 OA
HETATM   36  H   UNL     1      24.732  42.342  49.922  1.00  0.00     0.210 HD
ENDBRANCH  34  35
BRANCH  34  37
HETATM   37  C   UNL     1      26.551  41.148  47.527  1.00  0.00    -0.029 A 
HETATM   38  C   UNL     1      27.851  40.978  47.028  1.00  0.00     0.010 A 
HETATM   39  C   UNL     1      28.068  40.624  45.693  1.00  0.00     0.001 A 
HETATM   40  C   UNL     1      26.989  40.432  44.834  1.00  0.00     0.000 A 
HETATM   41  C   UNL     1      25.691  40.599  45.307  1.00  0.00     0.001 A 
HETATM   42  C   UNL     1      25.475  40.954  46.640  1.00  0.00     0.010 A 
ENDBRANCH  34  37
ENDBRANCH  33  34
ENDBRANCH  31  33
ENDBRANCH   9  31
TORSDOF 10
ENDMDL
