MODEL 1
REMARK VINA RESULT:      -8.4      0.000      0.000
REMARK  9 active torsions:
REMARK  status: ('A' for Active; 'I' for Inactive)
REMARK    1  A    between atoms: C_2  and  C_3 
REMARK    2  A    between atoms: C_3  and  O_4 
REMARK    3  A    between atoms: O_4  and  C_5 
REMARK    4  A    between atoms: C_8  and  C_9 
REMARK    5  A    between atoms: C_13  and  C_14 
REMARK       I    between atoms: C_14  and  N_15 
REMARK    6  A    between atoms: N_15  and  N_16 
REMARK    7  A    between atoms: C_17  and  C_18 
REMARK    8  A    between atoms: C_21  and  O_22 
REMARK    9  A    between atoms: O_22  and  C_23 
ROOT
HETATM    1  C   UNL     1      26.044  45.434  52.000  1.00  0.00     0.089 A 
HETATM    2  N   UNL     1      24.879  44.814  51.756  1.00  0.00    -0.174 NA
HETATM    3  N   UNL     1      24.189  45.677  50.996  1.00  0.00    -0.272 N 
HETATM    4  H   UNL     1      23.259  45.420  50.676  1.00  0.00     0.189 HD
HETATM    5  C   UNL     1      24.861  46.830  50.704  1.00  0.00     0.121 A 
HETATM    6  C   UNL     1      26.065  46.711  51.369  1.00  0.00     0.071 A 
ENDROOT
BRANCH   5   7
HETATM    7  C   UNL     1      24.282  47.833  49.844  1.00  0.00     0.289 C 
HETATM    8  N   UNL     1      22.954  47.613  49.512  1.00  0.00    -0.242 N 
HETATM    9  H   UNL     1      22.467  46.798  49.860  1.00  0.00     0.192 HD
HETATM   10  O   UNL     1      24.941  48.799  49.467  1.00  0.00    -0.264 OA
BRANCH   8  11
HETATM   11  N   UNL     1      22.260  48.546  48.797  1.00  0.00    -0.184 NA
HETATM   12  C   UNL     1      21.059  48.792  49.212  1.00  0.00     0.150 C 
BRANCH  12  13
HETATM   13  C   UNL     1      20.205  49.804  48.561  1.00  0.00    -0.017 A 
HETATM   14  C   UNL     1      19.486  49.496  47.405  1.00  0.00     0.016 A 
HETATM   15  C   UNL     1      18.699  50.478  46.801  1.00  0.00     0.037 A 
HETATM   16  C   UNL     1      18.616  51.763  47.345  1.00  0.00     0.068 A 
HETATM   17  C   UNL     1      19.338  52.064  48.502  1.00  0.00     0.037 A 
HETATM   18  C   UNL     1      20.133  51.085  49.111  1.00  0.00     0.016 A 
BRANCH  16  19
HETATM   19  O   UNL     1      17.810  52.624  46.653  1.00  0.00    -0.352 OA
BRANCH  19  20
HETATM   20  C   UNL     1      16.856  52.049  45.763  1.00  0.00     0.171 C 
HETATM   21  C   UNL     1      16.543  53.075  44.687  1.00  0.00     0.034 C 
ENDBRANCH  19  20
ENDBRANCH  16  19
ENDBRANCH  12  13
ENDBRANCH   8  11
ENDBRANCH   5   7
BRANCH   1  22
HETATM   22  C   UNL     1      27.109  44.799  52.780  1.00  0.00    -0.005 A 
HETATM   23  C   UNL     1      27.938  43.834  52.190  1.00  0.00     0.016 A 
HETATM   24  C   UNL     1      28.996  43.257  52.904  1.00  0.00     0.037 A 
HETATM   25  C   UNL     1      29.238  43.637  54.223  1.00  0.00     0.068 A 
HETATM   26  C   UNL     1      28.396  44.571  54.828  1.00  0.00     0.037 A 
HETATM   27  C   UNL     1      27.342  45.153  54.114  1.00  0.00     0.016 A 
BRANCH  25  28
HETATM   28  O   UNL     1      30.244  43.169  55.022  1.00  0.00    -0.351 OA
BRANCH  28  29
HETATM   29  C   UNL     1      31.001  44.146  55.738  1.00  0.00     0.175 C 
BRANCH  29  30
HETATM   30  C   UNL     1      31.318  43.571  57.115  1.00  0.00     0.022 C 
HETATM   31  C   UNL     1      31.251  44.632  58.199  1.00  0.00     0.007 C 
ENDBRANCH  29  30
ENDBRANCH  28  29
ENDBRANCH  25  28
ENDBRANCH   1  22
TORSDOF 9
ENDMDL
MODEL 2
REMARK VINA RESULT:      -8.4      1.380     12.641
REMARK  9 active torsions:
REMARK  status: ('A' for Active; 'I' for Inactive)
REMARK    1  A    between atoms: C_2  and  C_3 
REMARK    2  A    between atoms: C_3  and  O_4 
REMARK    3  A    between atoms: O_4  and  C_5 
REMARK    4  A    between atoms: C_8  and  C_9 
REMARK    5  A    between atoms: C_13  and  C_14 
REMARK       I    between atoms: C_14  and  N_15 
REMARK    6  A    between atoms: N_15  and  N_16 
REMARK    7  A    between atoms: C_17  and  C_18 
REMARK    8  A    between atoms: C_21  and  O_22 
REMARK    9  A    between atoms: O_22  and  C_23 
ROOT
HETATM    1  C   UNL     1      21.687  48.983  48.696  1.00  0.00     0.089 A 
HETATM    2  N   UNL     1      21.546  47.649  48.684  1.00  0.00    -0.174 NA
HETATM    3  N   UNL     1      22.726  47.180  49.115  1.00  0.00    -0.272 N 
HETATM    4  H   UNL     1      22.860  46.176  49.196  1.00  0.00     0.189 HD
HETATM    5  C   UNL     1      23.631  48.151  49.440  1.00  0.00     0.121 A 
HETATM    6  C   UNL     1      22.989  49.338  49.151  1.00  0.00     0.071 A 
ENDROOT
BRANCH   5   7
HETATM    7  C   UNL     1      24.925  47.813  49.981  1.00  0.00     0.289 C 
HETATM    8  N   UNL     1      24.888  46.992  51.098  1.00  0.00    -0.242 N 
HETATM    9  H   UNL     1      24.003  46.683  51.477  1.00  0.00     0.192 HD
HETATM   10  O   UNL     1      25.957  48.226  49.457  1.00  0.00    -0.264 OA
BRANCH   8  11
HETATM   11  N   UNL     1      26.046  46.510  51.635  1.00  0.00    -0.184 NA
HETATM   12  C   UNL     1      25.922  45.871  52.754  1.00  0.00     0.150 C 
BRANCH  12  13
HETATM   13  C   UNL     1      27.082  45.261  53.433  1.00  0.00    -0.017 A 
HETATM   14  C   UNL     1      27.579  44.023  53.025  1.00  0.00     0.016 A 
HETATM   15  C   UNL     1      28.666  43.461  53.696  1.00  0.00     0.037 A 
HETATM   16  C   UNL     1      29.268  44.129  54.767  1.00  0.00     0.068 A 
HETATM   17  C   UNL     1      28.765  45.368  55.170  1.00  0.00     0.037 A 
HETATM   18  C   UNL     1      27.672  45.935  54.504  1.00  0.00     0.016 A 
BRANCH  16  19
HETATM   19  O   UNL     1      30.322  43.466  55.332  1.00  0.00    -0.352 OA
BRANCH  19  20
HETATM   20  C   UNL     1      31.150  44.203  56.229  1.00  0.00     0.171 C 
HETATM   21  C   UNL     1      31.705  43.232  57.256  1.00  0.00     0.034 C 
ENDBRANCH  19  20
ENDBRANCH  16  19
ENDBRANCH  12  13
ENDBRANCH   8  11
ENDBRANCH   5   7
BRANCH   1  22
HETATM   22  C   UNL     1      20.590  49.879  48.322  1.00  0.00    -0.005 A 
HETATM   23  C   UNL     1      19.624  49.467  47.394  1.00  0.00     0.016 A 
HETATM   24  C   UNL     1      18.539  50.289  47.066  1.00  0.00     0.037 A 
HETATM   25  C   UNL     1      18.405  51.540  47.664  1.00  0.00     0.068 A 
HETATM   26  C   UNL     1      19.380  51.973  48.563  1.00  0.00     0.037 A 
HETATM   27  C   UNL     1      20.463  51.150  48.896  1.00  0.00     0.016 A 
BRANCH  25  28
HETATM   28  O   UNL     1      17.388  52.428  47.449  1.00  0.00    -0.351 OA
BRANCH  28  29
HETATM   29  C   UNL     1      16.061  51.899  47.468  1.00  0.00     0.175 C 
BRANCH  29  30
HETATM   30  C   UNL     1      15.736  51.508  48.906  1.00  0.00     0.022 C 
HETATM   31  C   UNL     1      15.212  52.687  49.707  1.00  0.00     0.007 C 
ENDBRANCH  29  30
ENDBRANCH  28  29
ENDBRANCH  25  28
ENDBRANCH   1  22
TORSDOF 9
ENDMDL
MODEL 3
REMARK VINA RESULT:      -8.4      2.028      2.436
REMARK  9 active torsions:
REMARK  status: ('A' for Active; 'I' for Inactive)
REMARK    1  A    between atoms: C_2  and  C_3 
REMARK    2  A    between atoms: C_3  and  O_4 
REMARK    3  A    between atoms: O_4  and  C_5 
REMARK    4  A    between atoms: C_8  and  C_9 
REMARK    5  A    between atoms: C_13  and  C_14 
REMARK       I    between atoms: C_14  and  N_15 
REMARK    6  A    between atoms: N_15  and  N_16 
REMARK    7  A    between atoms: C_17  and  C_18 
REMARK    8  A    between atoms: C_21  and  O_22 
REMARK    9  A    between atoms: O_22  and  C_23 
ROOT
HETATM    1  C   UNL     1      25.721  46.734  50.558  1.00  0.00     0.089 A 
HETATM    2  N   UNL     1      26.355  47.719  49.905  1.00  0.00    -0.174 NA
HETATM    3  N   UNL     1      25.390  48.343  49.213  1.00  0.00    -0.272 N 
HETATM    4  H   UNL     1      25.632  49.142  48.635  1.00  0.00     0.189 HD
HETATM    5  C   UNL     1      24.139  47.827  49.406  1.00  0.00     0.121 A 
HETATM    6  C   UNL     1      24.329  46.758  50.259  1.00  0.00     0.071 A 
ENDROOT
BRANCH   5   7
HETATM    7  C   UNL     1      22.983  48.425  48.785  1.00  0.00     0.289 C 
HETATM    8  N   UNL     1      21.780  48.149  49.417  1.00  0.00    -0.242 N 
HETATM    9  H   UNL     1      21.756  47.565  50.242  1.00  0.00     0.192 HD
HETATM   10  O   UNL     1      23.095  49.128  47.784  1.00  0.00    -0.264 OA
BRANCH   8  11
HETATM   11  N   UNL     1      20.628  48.747  48.994  1.00  0.00    -0.184 NA
HETATM   12  C   UNL     1      20.217  49.744  49.710  1.00  0.00     0.150 C 
BRANCH  12  13
HETATM   13  C   UNL     1      19.008  50.511  49.353  1.00  0.00    -0.017 A 
HETATM   14  C   UNL     1      17.859  49.863  48.895  1.00  0.00     0.016 A 
HETATM   15  C   UNL     1      16.736  50.614  48.547  1.00  0.00     0.037 A 
HETATM   16  C   UNL     1      16.745  52.008  48.660  1.00  0.00     0.068 A 
HETATM   17  C   UNL     1      17.897  52.650  49.120  1.00  0.00     0.037 A 
HETATM   18  C   UNL     1      19.029  51.902  49.465  1.00  0.00     0.016 A 
BRANCH  16  19
HETATM   19  O   UNL     1      15.579  52.617  48.287  1.00  0.00    -0.352 OA
BRANCH  19  20
HETATM   20  C   UNL     1      15.059  53.619  49.159  1.00  0.00     0.171 C 
HETATM   21  C   UNL     1      14.416  52.919  50.344  1.00  0.00     0.034 C 
ENDBRANCH  19  20
ENDBRANCH  16  19
ENDBRANCH  12  13
ENDBRANCH   8  11
ENDBRANCH   5   7
BRANCH   1  22
HETATM   22  C   UNL     1      26.429  45.830  51.468  1.00  0.00    -0.005 A 
HETATM   23  C   UNL     1      27.148  44.737  50.963  1.00  0.00     0.016 A 
HETATM   24  C   UNL     1      27.876  43.896  51.814  1.00  0.00     0.037 A 
HETATM   25  C   UNL     1      27.893  44.136  53.186  1.00  0.00     0.068 A 
HETATM   26  C   UNL     1      27.153  45.201  53.701  1.00  0.00     0.037 A 
HETATM   27  C   UNL     1      26.429  46.046  52.851  1.00  0.00     0.016 A 
BRANCH  25  28
HETATM   28  O   UNL     1      28.576  43.407  54.120  1.00  0.00    -0.351 OA
BRANCH  28  29
HETATM   29  C   UNL     1      29.500  44.123  54.941  1.00  0.00     0.175 C 
BRANCH  29  30
HETATM   30  C   UNL     1      30.668  43.191  55.250  1.00  0.00     0.022 C 
HETATM   31  C   UNL     1      31.442  43.643  56.476  1.00  0.00     0.007 C 
ENDBRANCH  29  30
ENDBRANCH  28  29
ENDBRANCH  25  28
ENDBRANCH   1  22
TORSDOF 9
ENDMDL
MODEL 4
REMARK VINA RESULT:      -8.2      1.161     12.820
REMARK  9 active torsions:
REMARK  status: ('A' for Active; 'I' for Inactive)
REMARK    1  A    between atoms: C_2  and  C_3 
REMARK    2  A    between atoms: C_3  and  O_4 
REMARK    3  A    between atoms: O_4  and  C_5 
REMARK    4  A    between atoms: C_8  and  C_9 
REMARK    5  A    between atoms: C_13  and  C_14 
REMARK       I    between atoms: C_14  and  N_15 
REMARK    6  A    between atoms: N_15  and  N_16 
REMARK    7  A    between atoms: C_17  and  C_18 
REMARK    8  A    between atoms: C_21  and  O_22 
REMARK    9  A    between atoms: O_22  and  C_23 
ROOT
HETATM    1  C   UNL     1      21.755  49.131  48.327  1.00  0.00     0.089 A 
HETATM    2  N   UNL     1      21.937  47.949  47.717  1.00  0.00    -0.174 NA
HETATM    3  N   UNL     1      23.073  47.468  48.241  1.00  0.00    -0.272 N 
HETATM    4  H   UNL     1      23.418  46.565  47.932  1.00  0.00     0.189 HD
HETATM    5  C   UNL     1      23.636  48.271  49.194  1.00  0.00     0.121 A 
HETATM    6  C   UNL     1      22.811  49.377  49.251  1.00  0.00     0.071 A 
ENDROOT
BRANCH   5   7
HETATM    7  C   UNL     1      24.826  47.867  49.901  1.00  0.00     0.289 C 
HETATM    8  N   UNL     1      24.604  46.995  50.955  1.00  0.00    -0.242 N 
HETATM    9  H   UNL     1      23.665  46.695  51.184  1.00  0.00     0.192 HD
HETATM   10  O   UNL     1      25.933  48.273  49.558  1.00  0.00    -0.264 OA
BRANCH   8  11
HETATM   11  N   UNL     1      25.658  46.451  51.632  1.00  0.00    -0.184 NA
HETATM   12  C   UNL     1      25.812  46.857  52.851  1.00  0.00     0.150 C 
BRANCH  12  13
HETATM   13  C   UNL     1      26.884  46.329  53.716  1.00  0.00    -0.017 A 
HETATM   14  C   UNL     1      27.517  47.147  54.652  1.00  0.00     0.016 A 
HETATM   15  C   UNL     1      28.540  46.626  55.446  1.00  0.00     0.037 A 
HETATM   16  C   UNL     1      28.933  45.290  55.318  1.00  0.00     0.068 A 
HETATM   17  C   UNL     1      28.295  44.476  54.379  1.00  0.00     0.037 A 
HETATM   18  C   UNL     1      27.272  44.994  53.577  1.00  0.00     0.016 A 
BRANCH  16  19
HETATM   19  O   UNL     1      29.945  44.911  56.156  1.00  0.00    -0.352 OA
BRANCH  19  20
HETATM   20  C   UNL     1      30.758  43.816  55.742  1.00  0.00     0.171 C 
HETATM   21  C   UNL     1      31.478  43.280  56.967  1.00  0.00     0.034 C 
ENDBRANCH  19  20
ENDBRANCH  16  19
ENDBRANCH  12  13
ENDBRANCH   8  11
ENDBRANCH   5   7
BRANCH   1  22
HETATM   22  C   UNL     1      20.586  49.969  48.054  1.00  0.00    -0.005 A 
HETATM   23  C   UNL     1      20.478  51.244  48.629  1.00  0.00     0.016 A 
HETATM   24  C   UNL     1      19.394  52.080  48.335  1.00  0.00     0.037 A 
HETATM   25  C   UNL     1      18.397  51.651  47.462  1.00  0.00     0.068 A 
HETATM   26  C   UNL     1      18.479  50.371  46.912  1.00  0.00     0.037 A 
HETATM   27  C   UNL     1      19.565  49.536  47.200  1.00  0.00     0.016 A 
BRANCH  25  28
HETATM   28  O   UNL     1      17.302  52.372  47.077  1.00  0.00    -0.351 OA
BRANCH  28  29
HETATM   29  C   UNL     1      16.699  52.008  45.834  1.00  0.00     0.175 C 
BRANCH  29  30
HETATM   30  C   UNL     1      17.082  53.065  44.803  1.00  0.00     0.022 C 
HETATM   31  C   UNL     1      17.020  52.521  43.386  1.00  0.00     0.007 C 
ENDBRANCH  29  30
ENDBRANCH  28  29
ENDBRANCH  25  28
ENDBRANCH   1  22
TORSDOF 9
ENDMDL
MODEL 5
REMARK VINA RESULT:      -8.0      1.565      1.756
REMARK  9 active torsions:
REMARK  status: ('A' for Active; 'I' for Inactive)
REMARK    1  A    between atoms: C_2  and  C_3 
REMARK    2  A    between atoms: C_3  and  O_4 
REMARK    3  A    between atoms: O_4  and  C_5 
REMARK    4  A    between atoms: C_8  and  C_9 
REMARK    5  A    between atoms: C_13  and  C_14 
REMARK       I    between atoms: C_14  and  N_15 
REMARK    6  A    between atoms: N_15  and  N_16 
REMARK    7  A    between atoms: C_17  and  C_18 
REMARK    8  A    between atoms: C_21  and  O_22 
REMARK    9  A    between atoms: O_22  and  C_23 
ROOT
HETATM    1  C   UNL     1      26.142  44.307  50.982  1.00  0.00     0.089 A 
HETATM    2  N   UNL     1      26.467  44.110  49.695  1.00  0.00    -0.174 NA
HETATM    3  N   UNL     1      25.413  44.572  49.005  1.00  0.00    -0.272 N 
HETATM    4  H   UNL     1      25.430  44.533  47.990  1.00  0.00     0.189 HD
HETATM    5  C   UNL     1      24.417  45.092  49.784  1.00  0.00     0.121 A 
HETATM    6  C   UNL     1      24.855  44.907  51.080  1.00  0.00     0.071 A 
ENDROOT
BRANCH   5   7
HETATM    7  C   UNL     1      23.244  45.688  49.193  1.00  0.00     0.289 C 
HETATM    8  N   UNL     1      23.179  47.068  49.304  1.00  0.00    -0.242 N 
HETATM    9  H   UNL     1      23.913  47.580  49.775  1.00  0.00     0.192 HD
HETATM   10  O   UNL     1      22.398  44.996  48.632  1.00  0.00    -0.264 OA
BRANCH   8  11
HETATM   11  N   UNL     1      22.177  47.761  48.688  1.00  0.00    -0.184 NA
HETATM   12  C   UNL     1      21.869  48.898  49.224  1.00  0.00     0.150 C 
BRANCH  12  13
HETATM   13  C   UNL     1      20.832  49.774  48.646  1.00  0.00    -0.017 A 
HETATM   14  C   UNL     1      19.950  49.295  47.677  1.00  0.00     0.016 A 
HETATM   15  C   UNL     1      18.989  50.150  47.135  1.00  0.00     0.037 A 
HETATM   16  C   UNL     1      18.895  51.479  47.558  1.00  0.00     0.068 A 
HETATM   17  C   UNL     1      19.781  51.952  48.529  1.00  0.00     0.037 A 
HETATM   18  C   UNL     1      20.750  51.101  49.073  1.00  0.00     0.016 A 
BRANCH  16  19
HETATM   19  O   UNL     1      17.911  52.204  46.945  1.00  0.00    -0.352 OA
BRANCH  19  20
HETATM   20  C   UNL     1      16.716  51.511  46.593  1.00  0.00     0.171 C 
HETATM   21  C   UNL     1      15.539  52.418  46.909  1.00  0.00     0.034 C 
ENDBRANCH  19  20
ENDBRANCH  16  19
ENDBRANCH  12  13
ENDBRANCH   8  11
ENDBRANCH   5   7
BRANCH   1  22
HETATM   22  C   UNL     1      27.060  43.964  52.071  1.00  0.00    -0.005 A 
HETATM   23  C   UNL     1      26.587  43.853  53.386  1.00  0.00     0.016 A 
HETATM   24  C   UNL     1      27.439  43.472  54.430  1.00  0.00     0.037 A 
HETATM   25  C   UNL     1      28.781  43.198  54.173  1.00  0.00     0.068 A 
HETATM   26  C   UNL     1      29.267  43.340  52.872  1.00  0.00     0.037 A 
HETATM   27  C   UNL     1      28.416  43.715  51.827  1.00  0.00     0.016 A 
BRANCH  25  28
HETATM   28  O   UNL     1      29.710  42.799  55.093  1.00  0.00    -0.351 OA
BRANCH  28  29
HETATM   29  C   UNL     1      30.712  43.754  55.447  1.00  0.00     0.175 C 
BRANCH  29  30
HETATM   30  C   UNL     1      31.370  43.280  56.739  1.00  0.00     0.022 C 
HETATM   31  C   UNL     1      31.263  44.318  57.842  1.00  0.00     0.007 C 
ENDBRANCH  29  30
ENDBRANCH  28  29
ENDBRANCH  25  28
ENDBRANCH   1  22
TORSDOF 9
ENDMDL
MODEL 6
REMARK VINA RESULT:      -7.4      2.417     12.631
REMARK  9 active torsions:
REMARK  status: ('A' for Active; 'I' for Inactive)
REMARK    1  A    between atoms: C_2  and  C_3 
REMARK    2  A    between atoms: C_3  and  O_4 
REMARK    3  A    between atoms: O_4  and  C_5 
REMARK    4  A    between atoms: C_8  and  C_9 
REMARK    5  A    between atoms: C_13  and  C_14 
REMARK       I    between atoms: C_14  and  N_15 
REMARK    6  A    between atoms: N_15  and  N_16 
REMARK    7  A    between atoms: C_17  and  C_18 
REMARK    8  A    between atoms: C_21  and  O_22 
REMARK    9  A    between atoms: O_22  and  C_23 
ROOT
HETATM    1  C   UNL     1      21.536  48.108  48.329  1.00  0.00     0.089 A 
HETATM    2  N   UNL     1      21.560  49.183  49.132  1.00  0.00    -0.174 NA
HETATM    3  N   UNL     1      22.716  49.078  49.804  1.00  0.00    -0.272 N 
HETATM    4  H   UNL     1      22.962  49.794  50.480  1.00  0.00     0.189 HD
HETATM    5  C   UNL     1      23.470  47.992  49.457  1.00  0.00     0.121 A 
HETATM    6  C   UNL     1      22.712  47.326  48.515  1.00  0.00     0.071 A 
ENDROOT
BRANCH   5   7
HETATM    7  C   UNL     1      24.770  47.770  50.041  1.00  0.00     0.289 C 
HETATM    8  N   UNL     1      24.746  47.197  51.304  1.00  0.00    -0.242 N 
HETATM    9  H   UNL     1      23.866  46.973  51.749  1.00  0.00     0.192 HD
HETATM   10  O   UNL     1      25.796  48.065  49.433  1.00  0.00    -0.264 OA
BRANCH   8  11
HETATM   11  N   UNL     1      25.911  46.834  51.916  1.00  0.00    -0.184 NA
HETATM   12  C   UNL     1      25.829  46.604  53.187  1.00  0.00     0.150 C 
BRANCH  12  13
HETATM   13  C   UNL     1      26.998  46.167  53.975  1.00  0.00    -0.017 A 
HETATM   14  C   UNL     1      27.399  44.830  53.976  1.00  0.00     0.016 A 
HETATM   15  C   UNL     1      28.498  44.441  54.743  1.00  0.00     0.037 A 
HETATM   16  C   UNL     1      29.206  45.376  55.504  1.00  0.00     0.068 A 
HETATM   17  C   UNL     1      28.799  46.712  55.498  1.00  0.00     0.037 A 
HETATM   18  C   UNL     1      27.695  47.108  54.735  1.00  0.00     0.016 A 
BRANCH  16  19
HETATM   19  O   UNL     1      30.259  44.859  56.206  1.00  0.00    -0.352 OA
BRANCH  19  20
HETATM   20  C   UNL     1      30.723  43.565  55.827  1.00  0.00     0.171 C 
HETATM   21  C   UNL     1      31.589  43.030  56.954  1.00  0.00     0.034 C 
ENDBRANCH  19  20
ENDBRANCH  16  19
ENDBRANCH  12  13
ENDBRANCH   8  11
ENDBRANCH   5   7
BRANCH   1  22
HETATM   22  C   UNL     1      20.438  47.869  47.390  1.00  0.00    -0.005 A 
HETATM   23  C   UNL     1      19.521  48.890  47.099  1.00  0.00     0.016 A 
HETATM   24  C   UNL     1      18.498  48.697  46.162  1.00  0.00     0.037 A 
HETATM   25  C   UNL     1      18.376  47.475  45.504  1.00  0.00     0.068 A 
HETATM   26  C   UNL     1      19.262  46.442  45.813  1.00  0.00     0.037 A 
HETATM   27  C   UNL     1      20.289  46.636  46.745  1.00  0.00     0.016 A 
BRANCH  25  28
HETATM   28  O   UNL     1      17.439  47.163  44.557  1.00  0.00    -0.351 OA
BRANCH  28  29
HETATM   29  C   UNL     1      16.380  48.103  44.370  1.00  0.00     0.175 C 
BRANCH  29  30
HETATM   30  C   UNL     1      15.137  47.547  45.058  1.00  0.00     0.022 C 
HETATM   31  C   UNL     1      14.662  48.450  46.183  1.00  0.00     0.007 C 
ENDBRANCH  29  30
ENDBRANCH  28  29
ENDBRANCH  25  28
ENDBRANCH   1  22
TORSDOF 9
ENDMDL
MODEL 7
REMARK VINA RESULT:      -7.3     19.778     21.455
REMARK  9 active torsions:
REMARK  status: ('A' for Active; 'I' for Inactive)
REMARK    1  A    between atoms: C_2  and  C_3 
REMARK    2  A    between atoms: C_3  and  O_4 
REMARK    3  A    between atoms: O_4  and  C_5 
REMARK    4  A    between atoms: C_8  and  C_9 
REMARK    5  A    between atoms: C_13  and  C_14 
REMARK       I    between atoms: C_14  and  N_15 
REMARK    6  A    between atoms: N_15  and  N_16 
REMARK    7  A    between atoms: C_17  and  C_18 
REMARK    8  A    between atoms: C_21  and  O_22 
REMARK    9  A    between atoms: O_22  and  C_23 
ROOT
HETATM    1  C   UNL     1      38.956  42.903  63.535  1.00  0.00     0.089 A 
HETATM    2  N   UNL     1      39.288  43.682  62.494  1.00  0.00    -0.174 NA
HETATM    3  N   UNL     1      38.668  44.847  62.732  1.00  0.00    -0.272 N 
HETATM    4  H   UNL     1      38.777  45.610  62.070  1.00  0.00     0.189 HD
HETATM    5  C   UNL     1      37.962  44.879  63.902  1.00  0.00     0.121 A 
HETATM    6  C   UNL     1      38.110  43.614  64.434  1.00  0.00     0.071 A 
ENDROOT
BRANCH   5   7
HETATM    7  C   UNL     1      37.291  46.080  64.335  1.00  0.00     0.289 C 
HETATM    8  N   UNL     1      37.885  46.717  65.414  1.00  0.00    -0.242 N 
HETATM    9  H   UNL     1      38.719  46.334  65.840  1.00  0.00     0.192 HD
HETATM   10  O   UNL     1      36.284  46.484  63.760  1.00  0.00    -0.264 OA
BRANCH   8  11
HETATM   11  N   UNL     1      37.412  47.922  65.846  1.00  0.00    -0.184 NA
HETATM   12  C   UNL     1      38.293  48.719  66.360  1.00  0.00     0.150 C 
BRANCH  12  13
HETATM   13  C   UNL     1      37.935  50.070  66.836  1.00  0.00    -0.017 A 
HETATM   14  C   UNL     1      38.163  51.192  66.039  1.00  0.00     0.016 A 
HETATM   15  C   UNL     1      37.831  52.459  66.521  1.00  0.00     0.037 A 
HETATM   16  C   UNL     1      37.264  52.616  67.789  1.00  0.00     0.068 A 
HETATM   17  C   UNL     1      37.038  51.488  68.581  1.00  0.00     0.037 A 
HETATM   18  C   UNL     1      37.374  50.214  68.106  1.00  0.00     0.016 A 
BRANCH  16  19
HETATM   19  O   UNL     1      36.987  53.909  68.134  1.00  0.00    -0.352 OA
BRANCH  19  20
HETATM   20  C   UNL     1      37.542  54.935  67.313  1.00  0.00     0.171 C 
HETATM   21  C   UNL     1      36.452  55.959  67.045  1.00  0.00     0.034 C 
ENDBRANCH  19  20
ENDBRANCH  16  19
ENDBRANCH  12  13
ENDBRANCH   8  11
ENDBRANCH   5   7
BRANCH   1  22
HETATM   22  C   UNL     1      39.470  41.538  63.673  1.00  0.00    -0.005 A 
HETATM   23  C   UNL     1      39.204  40.578  62.686  1.00  0.00     0.016 A 
HETATM   24  C   UNL     1      39.734  39.285  62.775  1.00  0.00     0.037 A 
HETATM   25  C   UNL     1      40.537  38.932  63.857  1.00  0.00     0.068 A 
HETATM   26  C   UNL     1      40.778  39.871  64.861  1.00  0.00     0.037 A 
HETATM   27  C   UNL     1      40.254  41.165  64.771  1.00  0.00     0.016 A 
BRANCH  25  28
HETATM   28  O   UNL     1      41.130  37.716  64.054  1.00  0.00    -0.351 OA
BRANCH  28  29
HETATM   29  C   UNL     1      41.583  37.431  65.378  1.00  0.00     0.175 C 
BRANCH  29  30
HETATM   30  C   UNL     1      41.042  36.059  65.770  1.00  0.00     0.022 C 
HETATM   31  C   UNL     1      39.990  36.157  66.861  1.00  0.00     0.007 C 
ENDBRANCH  29  30
ENDBRANCH  28  29
ENDBRANCH  25  28
ENDBRANCH   1  22
TORSDOF 9
ENDMDL
MODEL 8
REMARK VINA RESULT:      -7.3      4.513      5.151
REMARK  9 active torsions:
REMARK  status: ('A' for Active; 'I' for Inactive)
REMARK    1  A    between atoms: C_2  and  C_3 
REMARK    2  A    between atoms: C_3  and  O_4 
REMARK    3  A    between atoms: O_4  and  C_5 
REMARK    4  A    between atoms: C_8  and  C_9 
REMARK    5  A    between atoms: C_13  and  C_14 
REMARK       I    between atoms: C_14  and  N_15 
REMARK    6  A    between atoms: N_15  and  N_16 
REMARK    7  A    between atoms: C_17  and  C_18 
REMARK    8  A    between atoms: C_21  and  O_22 
REMARK    9  A    between atoms: O_22  and  C_23 
ROOT
HETATM    1  C   UNL     1      25.653  44.749  52.015  1.00  0.00     0.089 A 
HETATM    2  N   UNL     1      25.241  45.918  51.501  1.00  0.00    -0.174 NA
HETATM    3  N   UNL     1      24.193  45.597  50.728  1.00  0.00    -0.272 N 
HETATM    4  H   UNL     1      23.703  46.334  50.229  1.00  0.00     0.189 HD
HETATM    5  C   UNL     1      23.879  44.267  50.732  1.00  0.00     0.121 A 
HETATM    6  C   UNL     1      24.832  43.685  51.543  1.00  0.00     0.071 A 
ENDROOT
BRANCH   5   7
HETATM    7  C   UNL     1      22.739  43.769  50.003  1.00  0.00     0.289 C 
HETATM    8  N   UNL     1      21.816  44.738  49.641  1.00  0.00    -0.242 N 
HETATM    9  H   UNL     1      21.963  45.706  49.894  1.00  0.00     0.192 HD
HETATM   10  O   UNL     1      22.635  42.576  49.729  1.00  0.00    -0.264 OA
BRANCH   8  11
HETATM   11  N   UNL     1      20.751  44.413  48.851  1.00  0.00    -0.184 NA
HETATM   12  C   UNL     1      20.864  44.724  47.600  1.00  0.00     0.150 C 
BRANCH  12  13
HETATM   13  C   UNL     1      19.809  44.400  46.620  1.00  0.00    -0.017 A 
HETATM   14  C   UNL     1      20.053  43.506  45.576  1.00  0.00     0.016 A 
HETATM   15  C   UNL     1      19.042  43.231  44.654  1.00  0.00     0.037 A 
HETATM   16  C   UNL     1      17.786  43.833  44.769  1.00  0.00     0.068 A 
HETATM   17  C   UNL     1      17.549  44.726  45.817  1.00  0.00     0.037 A 
HETATM   18  C   UNL     1      18.560  45.010  46.742  1.00  0.00     0.016 A 
BRANCH  16  19
HETATM   19  O   UNL     1      16.891  43.474  43.800  1.00  0.00    -0.352 OA
BRANCH  19  20
HETATM   20  C   UNL     1      17.131  42.248  43.113  1.00  0.00     0.171 C 
HETATM   21  C   UNL     1      16.262  42.231  41.868  1.00  0.00     0.034 C 
ENDBRANCH  19  20
ENDBRANCH  16  19
ENDBRANCH  12  13
ENDBRANCH   8  11
ENDBRANCH   5   7
BRANCH   1  22
HETATM   22  C   UNL     1      26.772  44.671  52.957  1.00  0.00    -0.005 A 
HETATM   23  C   UNL     1      27.773  43.703  52.790  1.00  0.00     0.016 A 
HETATM   24  C   UNL     1      28.878  43.650  53.649  1.00  0.00     0.037 A 
HETATM   25  C   UNL     1      28.996  44.566  54.692  1.00  0.00     0.068 A 
HETATM   26  C   UNL     1      27.988  45.511  54.887  1.00  0.00     0.037 A 
HETATM   27  C   UNL     1      26.886  45.569  54.026  1.00  0.00     0.016 A 
BRANCH  25  28
HETATM   28  O   UNL     1      30.029  44.636  55.585  1.00  0.00    -0.351 OA
BRANCH  28  29
HETATM   29  C   UNL     1      30.958  43.551  55.577  1.00  0.00     0.175 C 
BRANCH  29  30
HETATM   30  C   UNL     1      31.398  43.305  57.017  1.00  0.00     0.022 C 
HETATM   31  C   UNL     1      31.126  44.507  57.904  1.00  0.00     0.007 C 
ENDBRANCH  29  30
ENDBRANCH  28  29
ENDBRANCH  25  28
ENDBRANCH   1  22
TORSDOF 9
ENDMDL
MODEL 9
REMARK VINA RESULT:      -7.2      4.177      4.993
REMARK  9 active torsions:
REMARK  status: ('A' for Active; 'I' for Inactive)
REMARK    1  A    between atoms: C_2  and  C_3 
REMARK    2  A    between atoms: C_3  and  O_4 
REMARK    3  A    between atoms: O_4  and  C_5 
REMARK    4  A    between atoms: C_8  and  C_9 
REMARK    5  A    between atoms: C_13  and  C_14 
REMARK       I    between atoms: C_14  and  N_15 
REMARK    6  A    between atoms: N_15  and  N_16 
REMARK    7  A    between atoms: C_17  and  C_18 
REMARK    8  A    between atoms: C_21  and  O_22 
REMARK    9  A    between atoms: O_22  and  C_23 
ROOT
HETATM    1  C   UNL     1      25.796  46.341  52.326  1.00  0.00     0.089 A 
HETATM    2  N   UNL     1      25.076  47.448  52.087  1.00  0.00    -0.174 NA
HETATM    3  N   UNL     1      24.343  47.148  51.004  1.00  0.00    -0.272 N 
HETATM    4  H   UNL     1      23.704  47.843  50.631  1.00  0.00     0.189 HD
HETATM    5  C   UNL     1      24.528  45.877  50.536  1.00  0.00     0.121 A 
HETATM    6  C   UNL     1      25.491  45.336  51.364  1.00  0.00     0.071 A 
ENDROOT
BRANCH   5   7
HETATM    7  C   UNL     1      23.766  45.377  49.418  1.00  0.00     0.289 C 
HETATM    8  N   UNL     1      22.583  46.057  49.175  1.00  0.00    -0.242 N 
HETATM    9  H   UNL     1      22.307  46.833  49.762  1.00  0.00     0.192 HD
HETATM   10  O   UNL     1      24.173  44.431  48.748  1.00  0.00    -0.264 OA
BRANCH   8  11
HETATM   11  N   UNL     1      21.828  45.754  48.078  1.00  0.00    -0.184 NA
HETATM   12  C   UNL     1      20.733  45.104  48.313  1.00  0.00     0.150 C 
BRANCH  12  13
HETATM   13  C   UNL     1      19.799  44.741  47.230  1.00  0.00    -0.017 A 
HETATM   14  C   UNL     1      18.463  45.143  47.273  1.00  0.00     0.016 A 
HETATM   15  C   UNL     1      17.597  44.771  46.244  1.00  0.00     0.037 A 
HETATM   16  C   UNL     1      18.054  44.007  45.166  1.00  0.00     0.068 A 
HETATM   17  C   UNL     1      19.393  43.609  45.128  1.00  0.00     0.037 A 
HETATM   18  C   UNL     1      20.265  43.975  46.160  1.00  0.00     0.016 A 
BRANCH  16  19
HETATM   19  O   UNL     1      17.102  43.715  44.230  1.00  0.00    -0.352 OA
BRANCH  19  20
HETATM   20  C   UNL     1      17.216  42.466  43.551  1.00  0.00     0.171 C 
HETATM   21  C   UNL     1      17.266  42.748  42.060  1.00  0.00     0.034 C 
ENDBRANCH  19  20
ENDBRANCH  16  19
ENDBRANCH  12  13
ENDBRANCH   8  11
ENDBRANCH   5   7
BRANCH   1  22
HETATM   22  C   UNL     1      26.711  46.246  53.466  1.00  0.00    -0.005 A 
HETATM   23  C   UNL     1      27.158  47.406  54.113  1.00  0.00     0.016 A 
HETATM   24  C   UNL     1      27.989  47.332  55.238  1.00  0.00     0.037 A 
HETATM   25  C   UNL     1      28.388  46.091  55.731  1.00  0.00     0.068 A 
HETATM   26  C   UNL     1      27.976  44.932  55.071  1.00  0.00     0.037 A 
HETATM   27  C   UNL     1      27.141  45.005  53.951  1.00  0.00     0.016 A 
BRANCH  25  28
HETATM   28  O   UNL     1      29.177  45.878  56.827  1.00  0.00    -0.351 OA
BRANCH  28  29
HETATM   29  C   UNL     1      30.543  45.540  56.577  1.00  0.00     0.175 C 
BRANCH  29  30
HETATM   30  C   UNL     1      30.997  44.594  57.685  1.00  0.00     0.022 C 
HETATM   31  C   UNL     1      31.543  43.292  57.126  1.00  0.00     0.007 C 
ENDBRANCH  29  30
ENDBRANCH  28  29
ENDBRANCH  25  28
ENDBRANCH   1  22
TORSDOF 9
ENDMDL
MODEL 10
REMARK VINA RESULT:      -7.0     14.673     15.541
REMARK  9 active torsions:
REMARK  status: ('A' for Active; 'I' for Inactive)
REMARK    1  A    between atoms: C_2  and  C_3 
REMARK    2  A    between atoms: C_3  and  O_4 
REMARK    3  A    between atoms: O_4  and  C_5 
REMARK    4  A    between atoms: C_8  and  C_9 
REMARK    5  A    between atoms: C_13  and  C_14 
REMARK       I    between atoms: C_14  and  N_15 
REMARK    6  A    between atoms: N_15  and  N_16 
REMARK    7  A    between atoms: C_17  and  C_18 
REMARK    8  A    between atoms: C_21  and  O_22 
REMARK    9  A    between atoms: O_22  and  C_23 
ROOT
HETATM    1  C   UNL     1      38.677  53.050  45.307  1.00  0.00     0.089 A 
HETATM    2  N   UNL     1      38.821  51.747  45.023  1.00  0.00    -0.174 NA
HETATM    3  N   UNL     1      37.720  51.428  44.326  1.00  0.00    -0.272 N 
HETATM    4  H   UNL     1      37.605  50.477  43.991  1.00  0.00     0.189 HD
HETATM    5  C   UNL     1      36.868  52.475  44.114  1.00  0.00     0.121 A 
HETATM    6  C   UNL     1      37.454  53.541  44.767  1.00  0.00     0.071 A 
ENDROOT
BRANCH   5   7
HETATM    7  C   UNL     1      35.670  52.313  43.327  1.00  0.00     0.289 C 
HETATM    8  N   UNL     1      34.530  52.025  44.062  1.00  0.00    -0.242 N 
HETATM    9  H   UNL     1      34.578  51.936  45.068  1.00  0.00     0.192 HD
HETATM   10  O   UNL     1      35.694  52.442  42.106  1.00  0.00    -0.264 OA
BRANCH   8  11
HETATM   11  N   UNL     1      33.313  51.960  43.446  1.00  0.00    -0.184 NA
HETATM   12  C   UNL     1      32.830  50.770  43.283  1.00  0.00     0.150 C 
BRANCH  12  13
HETATM   13  C   UNL     1      31.508  50.546  42.668  1.00  0.00    -0.017 A 
HETATM   14  C   UNL     1      30.762  51.614  42.168  1.00  0.00     0.016 A 
HETATM   15  C   UNL     1      29.507  51.376  41.606  1.00  0.00     0.037 A 
HETATM   16  C   UNL     1      28.991  50.078  41.532  1.00  0.00     0.068 A 
HETATM   17  C   UNL     1      29.743  49.014  42.034  1.00  0.00     0.037 A 
HETATM   18  C   UNL     1      31.001  49.247  42.603  1.00  0.00     0.016 A 
BRANCH  16  19
HETATM   19  O   UNL     1      27.753  49.989  40.959  1.00  0.00    -0.352 OA
BRANCH  19  20
HETATM   20  C   UNL     1      27.485  50.847  39.852  1.00  0.00     0.171 C 
HETATM   21  C   UNL     1      27.613  50.024  38.582  1.00  0.00     0.034 C 
ENDBRANCH  19  20
ENDBRANCH  16  19
ENDBRANCH  12  13
ENDBRANCH   8  11
ENDBRANCH   5   7
BRANCH   1  22
HETATM   22  C   UNL     1      39.701  53.799  46.038  1.00  0.00    -0.005 A 
HETATM   23  C   UNL     1      39.944  53.530  47.393  1.00  0.00     0.016 A 
HETATM   24  C   UNL     1      40.957  54.198  48.092  1.00  0.00     0.037 A 
HETATM   25  C   UNL     1      41.743  55.149  47.445  1.00  0.00     0.068 A 
HETATM   26  C   UNL     1      41.486  55.447  46.106  1.00  0.00     0.037 A 
HETATM   27  C   UNL     1      40.477  54.777  45.404  1.00  0.00     0.016 A 
BRANCH  25  28
HETATM   28  O   UNL     1      42.772  55.855  48.003  1.00  0.00    -0.351 OA
BRANCH  28  29
HETATM   29  C   UNL     1      43.911  55.102  48.425  1.00  0.00     0.175 C 
BRANCH  29  30
HETATM   30  C   UNL     1      45.157  55.807  47.898  1.00  0.00     0.022 C 
HETATM   31  C   UNL     1      45.362  55.557  46.414  1.00  0.00     0.007 C 
ENDBRANCH  29  30
ENDBRANCH  28  29
ENDBRANCH  25  28
ENDBRANCH   1  22
TORSDOF 9
ENDMDL
