MODEL 1
REMARK VINA RESULT:      -9.1      0.000      0.000
REMARK  4 active torsions:
REMARK  status: ('A' for Active; 'I' for Inactive)
REMARK    1  A    between atoms: C_3  and  N_4 
REMARK       I    between atoms: N_4  and  C_5 
REMARK       I    between atoms: C_5  and  N_6 
REMARK    2  A    between atoms: N_6  and  C_7 
REMARK    3  A    between atoms: C_18  and  C_19 
REMARK       I    between atoms: C_19  and  N_20 
REMARK    4  A    between atoms: N_20  and  C_21 
ROOT
HETATM    1  C   UNL     1      26.096  48.242  49.657  1.00  0.00     0.050 C 
HETATM    2  C   UNL     1      25.568  47.198  50.605  1.00  0.00    -0.034 A 
HETATM    3  C   UNL     1      24.586  46.254  50.274  1.00  0.00     0.042 A 
HETATM    4  C   UNL     1      24.298  45.215  51.170  1.00  0.00     0.031 A 
HETATM    5  C   UNL     1      24.880  45.174  52.441  1.00  0.00     0.019 A 
HETATM    6  C   UNL     1      25.808  46.137  52.815  1.00  0.00     0.032 A 
HETATM    7  C   UNL     1      26.146  47.142  51.891  1.00  0.00     0.026 A 
ENDROOT
BRANCH   3   8
HETATM    8  N   UNL     1      23.878  46.233  49.061  1.00  0.00    -0.308 N 
HETATM    9  C   UNL     1      22.925  47.093  48.571  1.00  0.00     0.325 C 
HETATM   10  N   UNL     1      22.560  48.137  49.372  1.00  0.00    -0.305 N 
HETATM   11  O   UNL     1      22.427  46.808  47.484  1.00  0.00    -0.247 OA
HETATM   12  H   UNL     1      23.124  48.315  50.184  1.00  0.00     0.171 HD
HETATM   13  H   UNL     1      23.777  45.336  48.601  1.00  0.00     0.170 HD
BRANCH  10  14
HETATM   14  C   UNL     1      21.525  49.035  49.152  1.00  0.00     0.086 A 
HETATM   15  C   UNL     1      20.104  48.929  49.209  1.00  0.00     0.079 A 
HETATM   16  C   UNL     1      19.236  47.789  49.597  1.00  0.00     0.075 C 
HETATM   17  N   UNL     1      19.514  50.097  48.912  1.00  0.00    -0.177 NA
HETATM   18  N   UNL     1      20.530  50.932  48.682  1.00  0.00    -0.280 N 
HETATM   19  H   UNL     1      20.311  51.889  48.429  1.00  0.00     0.189 HD
HETATM   20  C   UNL     1      21.761  50.360  48.833  1.00  0.00     0.052 A 
HETATM   21  C   UNL     1      23.003  51.135  48.612  1.00  0.00     0.072 C 
ENDBRANCH  10  14
ENDBRANCH   3   8
BRANCH   6  22
HETATM   22  C   UNL     1      26.381  46.253  54.177  1.00  0.00     0.252 C 
HETATM   23  N   UNL     1      27.489  45.596  54.633  1.00  0.00    -0.352 N 
HETATM   24  H   UNL     1      27.638  45.858  55.602  1.00  0.00     0.163 HD
HETATM   25  O   UNL     1      25.830  47.031  54.960  1.00  0.00    -0.268 OA
BRANCH  23  26
HETATM   26  C   UNL     1      28.468  44.653  54.122  1.00  0.00     0.084 C 
HETATM   27  C   UNL     1      29.636  44.368  55.063  1.00  0.00     0.025 C 
HETATM   28  C   UNL     1      30.214  43.074  54.514  1.00  0.00     0.002 C 
HETATM   29  C   UNL     1      28.988  42.273  54.095  1.00  0.00     0.002 C 
HETATM   30  C   UNL     1      27.977  43.305  53.592  1.00  0.00     0.025 C 
ENDBRANCH  23  26
ENDBRANCH   6  22
TORSDOF 4
ENDMDL
MODEL 2
REMARK VINA RESULT:      -8.9      1.479      2.379
REMARK  4 active torsions:
REMARK  status: ('A' for Active; 'I' for Inactive)
REMARK    1  A    between atoms: C_3  and  N_4 
REMARK       I    between atoms: N_4  and  C_5 
REMARK       I    between atoms: C_5  and  N_6 
REMARK    2  A    between atoms: N_6  and  C_7 
REMARK    3  A    between atoms: C_18  and  C_19 
REMARK       I    between atoms: C_19  and  N_20 
REMARK    4  A    between atoms: N_20  and  C_21 
ROOT
HETATM    1  C   UNL     1      23.831  44.834  49.341  1.00  0.00     0.050 C 
HETATM    2  C   UNL     1      24.494  45.500  50.518  1.00  0.00    -0.034 A 
HETATM    3  C   UNL     1      24.868  46.850  50.554  1.00  0.00     0.042 A 
HETATM    4  C   UNL     1      25.310  47.412  51.760  1.00  0.00     0.031 A 
HETATM    5  C   UNL     1      25.507  46.620  52.897  1.00  0.00     0.019 A 
HETATM    6  C   UNL     1      25.203  45.265  52.865  1.00  0.00     0.032 A 
HETATM    7  C   UNL     1      24.697  44.717  51.673  1.00  0.00     0.026 A 
ENDROOT
BRANCH   3   8
HETATM    8  N   UNL     1      24.790  47.729  49.461  1.00  0.00    -0.308 N 
HETATM    9  C   UNL     1      23.710  48.384  48.921  1.00  0.00     0.325 C 
HETATM   10  N   UNL     1      22.492  48.151  49.492  1.00  0.00    -0.305 N 
HETATM   11  O   UNL     1      23.919  49.067  47.920  1.00  0.00    -0.247 OA
HETATM   12  H   UNL     1      22.479  47.661  50.370  1.00  0.00     0.171 HD
HETATM   13  H   UNL     1      25.514  47.656  48.757  1.00  0.00     0.170 HD
BRANCH  10  14
HETATM   14  C   UNL     1      21.256  48.580  49.028  1.00  0.00     0.086 A 
HETATM   15  C   UNL     1      20.678  49.867  48.821  1.00  0.00     0.079 A 
HETATM   16  C   UNL     1      21.258  51.224  48.987  1.00  0.00     0.075 C 
HETATM   17  N   UNL     1      19.428  49.770  48.342  1.00  0.00    -0.177 NA
HETATM   18  N   UNL     1      19.216  48.457  48.235  1.00  0.00    -0.280 N 
HETATM   19  H   UNL     1      18.313  48.148  47.890  1.00  0.00     0.189 HD
HETATM   20  C   UNL     1      20.283  47.691  48.609  1.00  0.00     0.052 A 
HETATM   21  C   UNL     1      20.225  46.212  48.560  1.00  0.00     0.072 C 
ENDBRANCH  10  14
ENDBRANCH   3   8
BRANCH   6  22
HETATM   22  C   UNL     1      25.495  44.323  53.971  1.00  0.00     0.252 C 
HETATM   23  N   UNL     1      26.686  43.689  54.183  1.00  0.00    -0.352 N 
HETATM   24  H   UNL     1      26.591  43.099  55.003  1.00  0.00     0.163 HD
HETATM   25  O   UNL     1      24.597  44.115  54.790  1.00  0.00    -0.268 OA
BRANCH  23  26
HETATM   26  C   UNL     1      28.000  43.630  53.566  1.00  0.00     0.084 C 
HETATM   27  C   UNL     1      29.164  43.506  54.547  1.00  0.00     0.025 C 
HETATM   28  C   UNL     1      30.304  43.015  53.669  1.00  0.00     0.002 C 
HETATM   29  C   UNL     1      29.633  42.039  52.711  1.00  0.00     0.002 C 
HETATM   30  C   UNL     1      28.239  42.611  52.452  1.00  0.00     0.025 C 
ENDBRANCH  23  26
ENDBRANCH   6  22
TORSDOF 4
ENDMDL
MODEL 3
REMARK VINA RESULT:      -8.4      2.275      9.054
REMARK  4 active torsions:
REMARK  status: ('A' for Active; 'I' for Inactive)
REMARK    1  A    between atoms: C_3  and  N_4 
REMARK       I    between atoms: N_4  and  C_5 
REMARK       I    between atoms: C_5  and  N_6 
REMARK    2  A    between atoms: N_6  and  C_7 
REMARK    3  A    between atoms: C_18  and  C_19 
REMARK       I    between atoms: C_19  and  N_20 
REMARK    4  A    between atoms: N_20  and  C_21 
ROOT
HETATM    1  C   UNL     1      26.045  43.613  50.189  1.00  0.00     0.050 C 
HETATM    2  C   UNL     1      25.993  45.014  50.738  1.00  0.00    -0.034 A 
HETATM    3  C   UNL     1      25.999  45.328  52.104  1.00  0.00     0.042 A 
HETATM    4  C   UNL     1      26.131  46.666  52.503  1.00  0.00     0.031 A 
HETATM    5  C   UNL     1      26.128  47.705  51.566  1.00  0.00     0.019 A 
HETATM    6  C   UNL     1      26.057  47.419  50.209  1.00  0.00     0.032 A 
HETATM    7  C   UNL     1      25.992  46.073  49.806  1.00  0.00     0.026 A 
ENDROOT
BRANCH   3   8
HETATM    8  N   UNL     1      25.931  44.382  53.140  1.00  0.00    -0.308 N 
HETATM    9  C   UNL     1      26.850  44.052  54.106  1.00  0.00     0.325 C 
HETATM   10  N   UNL     1      28.048  44.707  54.075  1.00  0.00    -0.305 N 
HETATM   11  O   UNL     1      26.545  43.141  54.873  1.00  0.00    -0.247 OA
HETATM   12  H   UNL     1      28.122  45.504  53.467  1.00  0.00     0.171 HD
HETATM   13  H   UNL     1      25.294  43.605  53.014  1.00  0.00     0.170 HD
BRANCH  10  14
HETATM   14  C   UNL     1      29.167  44.436  54.848  1.00  0.00     0.086 A 
HETATM   15  C   UNL     1      29.681  44.988  56.059  1.00  0.00     0.079 A 
HETATM   16  C   UNL     1      29.128  46.036  56.953  1.00  0.00     0.075 C 
HETATM   17  N   UNL     1      30.818  44.379  56.430  1.00  0.00    -0.177 NA
HETATM   18  N   UNL     1      31.021  43.455  55.488  1.00  0.00    -0.280 N 
HETATM   19  H   UNL     1      31.845  42.870  55.567  1.00  0.00     0.189 HD
HETATM   20  C   UNL     1      30.053  43.425  54.525  1.00  0.00     0.052 A 
HETATM   21  C   UNL     1      30.118  42.466  53.397  1.00  0.00     0.072 C 
ENDBRANCH  10  14
ENDBRANCH   3   8
BRANCH   6  22
HETATM   22  C   UNL     1      25.920  48.448  49.150  1.00  0.00     0.252 C 
HETATM   23  N   UNL     1      24.775  49.129  48.847  1.00  0.00    -0.352 N 
HETATM   24  H   UNL     1      24.974  49.757  48.075  1.00  0.00     0.163 HD
HETATM   25  O   UNL     1      26.931  48.737  48.507  1.00  0.00    -0.268 OA
BRANCH  23  26
HETATM   26  C   UNL     1      23.400  49.186  49.312  1.00  0.00     0.084 C 
HETATM   27  C   UNL     1      22.710  50.533  49.108  1.00  0.00     0.025 C 
HETATM   28  C   UNL     1      21.235  50.187  49.236  1.00  0.00     0.002 C 
HETATM   29  C   UNL     1      21.115  48.834  48.547  1.00  0.00     0.002 C 
HETATM   30  C   UNL     1      22.426  48.104  48.844  1.00  0.00     0.025 C 
ENDBRANCH  23  26
ENDBRANCH   6  22
TORSDOF 4
ENDMDL
MODEL 4
REMARK VINA RESULT:      -8.2     11.759     14.366
REMARK  4 active torsions:
REMARK  status: ('A' for Active; 'I' for Inactive)
REMARK    1  A    between atoms: C_3  and  N_4 
REMARK       I    between atoms: N_4  and  C_5 
REMARK       I    between atoms: C_5  and  N_6 
REMARK    2  A    between atoms: N_6  and  C_7 
REMARK    3  A    between atoms: C_18  and  C_19 
REMARK       I    between atoms: C_19  and  N_20 
REMARK    4  A    between atoms: N_20  and  C_21 
ROOT
HETATM    1  C   UNL     1      29.524  52.124  37.532  1.00  0.00     0.050 C 
HETATM    2  C   UNL     1      28.736  51.745  38.759  1.00  0.00    -0.034 A 
HETATM    3  C   UNL     1      28.825  52.408  39.990  1.00  0.00     0.042 A 
HETATM    4  C   UNL     1      27.918  52.091  41.011  1.00  0.00     0.031 A 
HETATM    5  C   UNL     1      27.009  51.037  40.870  1.00  0.00     0.019 A 
HETATM    6  C   UNL     1      26.949  50.323  39.680  1.00  0.00     0.032 A 
HETATM    7  C   UNL     1      27.814  50.685  38.632  1.00  0.00     0.026 A 
ENDROOT
BRANCH   3   8
HETATM    8  N   UNL     1      29.743  53.431  40.281  1.00  0.00    -0.308 N 
HETATM    9  C   UNL     1      31.042  53.361  40.722  1.00  0.00     0.325 C 
HETATM   10  N   UNL     1      31.555  52.116  40.952  1.00  0.00    -0.305 N 
HETATM   11  O   UNL     1      31.611  54.428  40.944  1.00  0.00    -0.247 OA
HETATM   12  H   UNL     1      31.022  51.329  40.624  1.00  0.00     0.171 HD
HETATM   13  H   UNL     1      29.363  54.338  40.524  1.00  0.00     0.170 HD
BRANCH  10  14
HETATM   14  C   UNL     1      32.777  51.812  41.534  1.00  0.00     0.086 A 
HETATM   15  C   UNL     1      33.199  51.603  42.881  1.00  0.00     0.079 A 
HETATM   16  C   UNL     1      32.421  51.588  44.144  1.00  0.00     0.075 C 
HETATM   17  N   UNL     1      34.510  51.322  42.944  1.00  0.00    -0.177 NA
HETATM   18  N   UNL     1      34.914  51.339  41.672  1.00  0.00    -0.280 N 
HETATM   19  H   UNL     1      35.893  51.154  41.483  1.00  0.00     0.189 HD
HETATM   20  C   UNL     1      33.916  51.603  40.778  1.00  0.00     0.052 A 
HETATM   21  C   UNL     1      34.183  51.667  39.322  1.00  0.00     0.072 C 
ENDBRANCH  10  14
ENDBRANCH   3   8
BRANCH   6  22
HETATM   22  C   UNL     1      26.114  49.115  39.478  1.00  0.00     0.252 C 
HETATM   23  N   UNL     1      26.573  47.829  39.434  1.00  0.00    -0.352 N 
HETATM   24  H   UNL     1      25.782  47.214  39.273  1.00  0.00     0.163 HD
HETATM   25  O   UNL     1      24.896  49.278  39.371  1.00  0.00    -0.268 OA
BRANCH  23  26
HETATM   26  C   UNL     1      27.844  47.134  39.544  1.00  0.00     0.084 C 
HETATM   27  C   UNL     1      28.717  47.194  38.293  1.00  0.00     0.025 C 
HETATM   28  C   UNL     1      30.095  46.821  38.816  1.00  0.00     0.002 C 
HETATM   29  C   UNL     1      30.167  47.502  40.177  1.00  0.00     0.002 C 
HETATM   30  C   UNL     1      28.746  47.447  40.739  1.00  0.00     0.025 C 
ENDBRANCH  23  26
ENDBRANCH   6  22
TORSDOF 4
ENDMDL
MODEL 5
REMARK VINA RESULT:      -8.0     11.399     13.312
REMARK  4 active torsions:
REMARK  status: ('A' for Active; 'I' for Inactive)
REMARK    1  A    between atoms: C_3  and  N_4 
REMARK       I    between atoms: N_4  and  C_5 
REMARK       I    between atoms: C_5  and  N_6 
REMARK    2  A    between atoms: N_6  and  C_7 
REMARK    3  A    between atoms: C_18  and  C_19 
REMARK       I    between atoms: C_19  and  N_20 
REMARK    4  A    between atoms: N_20  and  C_21 
ROOT
HETATM    1  C   UNL     1      27.646  52.486  41.324  1.00  0.00     0.050 C 
HETATM    2  C   UNL     1      28.730  52.152  40.333  1.00  0.00    -0.034 A 
HETATM    3  C   UNL     1      28.495  51.642  39.048  1.00  0.00     0.042 A 
HETATM    4  C   UNL     1      29.560  51.537  38.142  1.00  0.00     0.031 A 
HETATM    5  C   UNL     1      30.874  51.812  38.536  1.00  0.00     0.019 A 
HETATM    6  C   UNL     1      31.137  52.258  39.825  1.00  0.00     0.032 A 
HETATM    7  C   UNL     1      30.060  52.426  40.713  1.00  0.00     0.026 A 
ENDROOT
BRANCH   3   8
HETATM    8  N   UNL     1      27.234  51.259  38.561  1.00  0.00    -0.308 N 
HETATM    9  C   UNL     1      26.581  50.053  38.634  1.00  0.00     0.325 C 
HETATM   10  N   UNL     1      27.237  49.026  39.249  1.00  0.00    -0.305 N 
HETATM   11  O   UNL     1      25.489  49.978  38.073  1.00  0.00    -0.247 OA
HETATM   12  H   UNL     1      28.073  49.252  39.760  1.00  0.00     0.171 HD
HETATM   13  H   UNL     1      26.860  51.787  37.782  1.00  0.00     0.170 HD
BRANCH  10  14
HETATM   14  C   UNL     1      26.840  47.698  39.308  1.00  0.00     0.086 A 
HETATM   15  C   UNL     1      25.714  47.034  39.879  1.00  0.00     0.079 A 
HETATM   16  C   UNL     1      24.521  47.581  40.574  1.00  0.00     0.075 C 
HETATM   17  N   UNL     1      25.769  45.709  39.670  1.00  0.00    -0.177 NA
HETATM   18  N   UNL     1      26.894  45.531  38.974  1.00  0.00    -0.280 N 
HETATM   19  H   UNL     1      27.142  44.585  38.707  1.00  0.00     0.189 HD
HETATM   20  C   UNL     1      27.568  46.688  38.706  1.00  0.00     0.052 A 
HETATM   21  C   UNL     1      28.841  46.680  37.949  1.00  0.00     0.072 C 
ENDBRANCH  10  14
ENDBRANCH   3   8
BRANCH   6  22
HETATM   22  C   UNL     1      32.500  52.453  40.373  1.00  0.00     0.252 C 
HETATM   23  N   UNL     1      33.159  51.583  41.195  1.00  0.00    -0.352 N 
HETATM   24  H   UNL     1      34.065  51.982  41.419  1.00  0.00     0.163 HD
HETATM   25  O   UNL     1      33.107  53.472  40.036  1.00  0.00    -0.268 OA
BRANCH  23  26
HETATM   26  C   UNL     1      32.915  50.293  41.816  1.00  0.00     0.084 C 
HETATM   27  C   UNL     1      31.768  50.274  42.823  1.00  0.00     0.025 C 
HETATM   28  C   UNL     1      31.446  48.793  42.951  1.00  0.00     0.002 C 
HETATM   29  C   UNL     1      31.603  48.260  41.533  1.00  0.00     0.002 C 
HETATM   30  C   UNL     1      32.744  49.069  40.915  1.00  0.00     0.025 C 
ENDBRANCH  23  26
ENDBRANCH   6  22
TORSDOF 4
ENDMDL
MODEL 6
REMARK VINA RESULT:      -7.9      5.211      8.127
REMARK  4 active torsions:
REMARK  status: ('A' for Active; 'I' for Inactive)
REMARK    1  A    between atoms: C_3  and  N_4 
REMARK       I    between atoms: N_4  and  C_5 
REMARK       I    between atoms: C_5  and  N_6 
REMARK    2  A    between atoms: N_6  and  C_7 
REMARK    3  A    between atoms: C_18  and  C_19 
REMARK       I    between atoms: C_19  and  N_20 
REMARK    4  A    between atoms: N_20  and  C_21 
ROOT
HETATM    1  C   UNL     1      27.902  41.065  52.550  1.00  0.00     0.050 C 
HETATM    2  C   UNL     1      27.325  41.462  51.216  1.00  0.00    -0.034 A 
HETATM    3  C   UNL     1      26.232  42.323  51.053  1.00  0.00     0.042 A 
HETATM    4  C   UNL     1      25.890  42.769  49.768  1.00  0.00     0.031 A 
HETATM    5  C   UNL     1      26.540  42.271  48.634  1.00  0.00     0.019 A 
HETATM    6  C   UNL     1      27.584  41.366  48.769  1.00  0.00     0.032 A 
HETATM    7  C   UNL     1      27.969  40.970  50.062  1.00  0.00     0.026 A 
ENDROOT
BRANCH   3   8
HETATM    8  N   UNL     1      25.453  42.832  52.106  1.00  0.00    -0.308 N 
HETATM    9  C   UNL     1      25.730  43.817  53.022  1.00  0.00     0.325 C 
HETATM   10  N   UNL     1      26.960  44.406  52.950  1.00  0.00    -0.305 N 
HETATM   11  O   UNL     1      24.875  44.035  53.878  1.00  0.00    -0.247 OA
HETATM   12  H   UNL     1      27.518  44.213  52.136  1.00  0.00     0.171 HD
HETATM   13  H   UNL     1      24.734  42.226  52.483  1.00  0.00     0.170 HD
BRANCH  10  14
HETATM   14  C   UNL     1      27.509  45.307  53.852  1.00  0.00     0.086 A 
HETATM   15  C   UNL     1      27.139  46.616  54.279  1.00  0.00     0.079 A 
HETATM   16  C   UNL     1      25.964  47.451  53.925  1.00  0.00     0.075 C 
HETATM   17  N   UNL     1      27.999  47.093  55.193  1.00  0.00    -0.177 NA
HETATM   18  N   UNL     1      28.888  46.111  55.354  1.00  0.00    -0.280 N 
HETATM   19  H   UNL     1      29.648  46.261  56.010  1.00  0.00     0.189 HD
HETATM   20  C   UNL     1      28.635  45.005  54.595  1.00  0.00     0.052 A 
HETATM   21  C   UNL     1      29.522  43.819  54.641  1.00  0.00     0.072 C 
ENDBRANCH  10  14
ENDBRANCH   3   8
BRANCH   6  22
HETATM   22  C   UNL     1      28.247  40.687  47.630  1.00  0.00     0.252 C 
HETATM   23  N   UNL     1      28.357  39.336  47.463  1.00  0.00    -0.352 N 
HETATM   24  H   UNL     1      28.867  39.162  46.604  1.00  0.00     0.163 HD
HETATM   25  O   UNL     1      28.713  41.401  46.738  1.00  0.00    -0.268 OA
BRANCH  23  26
HETATM   26  C   UNL     1      27.960  38.128  48.166  1.00  0.00     0.084 C 
HETATM   27  C   UNL     1      28.780  37.815  49.416  1.00  0.00     0.025 C 
HETATM   28  C   UNL     1      27.901  36.830  50.168  1.00  0.00     0.002 C 
HETATM   29  C   UNL     1      26.489  37.357  49.948  1.00  0.00     0.002 C 
HETATM   30  C   UNL     1      26.487  37.949  48.537  1.00  0.00     0.025 C 
ENDBRANCH  23  26
ENDBRANCH   6  22
TORSDOF 4
ENDMDL
MODEL 7
REMARK VINA RESULT:      -7.6     12.517     14.593
REMARK  4 active torsions:
REMARK  status: ('A' for Active; 'I' for Inactive)
REMARK    1  A    between atoms: C_3  and  N_4 
REMARK       I    between atoms: N_4  and  C_5 
REMARK       I    between atoms: C_5  and  N_6 
REMARK    2  A    between atoms: N_6  and  C_7 
REMARK    3  A    between atoms: C_18  and  C_19 
REMARK       I    between atoms: C_19  and  N_20 
REMARK    4  A    between atoms: N_20  and  C_21 
ROOT
HETATM    1  C   UNL     1      32.225  51.859  44.136  1.00  0.00     0.050 C 
HETATM    2  C   UNL     1      32.948  50.954  43.173  1.00  0.00    -0.034 A 
HETATM    3  C   UNL     1      32.342  49.904  42.470  1.00  0.00     0.042 A 
HETATM    4  C   UNL     1      33.062  49.241  41.465  1.00  0.00     0.031 A 
HETATM    5  C   UNL     1      34.413  49.522  41.238  1.00  0.00     0.019 A 
HETATM    6  C   UNL     1      35.052  50.515  41.970  1.00  0.00     0.032 A 
HETATM    7  C   UNL     1      34.311  51.225  42.932  1.00  0.00     0.026 A 
ENDROOT
BRANCH   3   8
HETATM    8  N   UNL     1      31.017  49.477  42.659  1.00  0.00    -0.308 N 
HETATM    9  C   UNL     1      29.925  49.574  41.833  1.00  0.00     0.325 C 
HETATM   10  N   UNL     1      30.104  50.203  40.634  1.00  0.00    -0.305 N 
HETATM   11  O   UNL     1      28.857  49.152  42.273  1.00  0.00    -0.247 OA
HETATM   12  H   UNL     1      31.049  50.399  40.353  1.00  0.00     0.171 HD
HETATM   13  H   UNL     1      30.698  49.374  43.615  1.00  0.00     0.170 HD
BRANCH  10  14
HETATM   14  C   UNL     1      29.123  50.544  39.715  1.00  0.00     0.086 A 
HETATM   15  C   UNL     1      28.370  49.798  38.761  1.00  0.00     0.079 A 
HETATM   16  C   UNL     1      28.350  48.343  38.471  1.00  0.00     0.075 C 
HETATM   17  N   UNL     1      27.516  50.586  38.088  1.00  0.00    -0.177 NA
HETATM   18  N   UNL     1      27.709  51.801  38.606  1.00  0.00    -0.280 N 
HETATM   19  H   UNL     1      27.161  52.569  38.234  1.00  0.00     0.189 HD
HETATM   20  C   UNL     1      28.644  51.836  39.601  1.00  0.00     0.052 A 
HETATM   21  C   UNL     1      28.992  53.102  40.287  1.00  0.00     0.072 C 
ENDBRANCH  10  14
ENDBRANCH   3   8
BRANCH   6  22
HETATM   22  C   UNL     1      36.505  50.798  41.893  1.00  0.00     0.252 C 
HETATM   23  N   UNL     1      37.119  51.546  40.929  1.00  0.00    -0.352 N 
HETATM   24  H   UNL     1      38.115  51.558  41.122  1.00  0.00     0.163 HD
HETATM   25  O   UNL     1      37.219  50.346  42.791  1.00  0.00    -0.268 OA
BRANCH  23  26
HETATM   26  C   UNL     1      36.743  52.293  39.741  1.00  0.00     0.084 C 
HETATM   27  C   UNL     1      36.421  53.765  39.985  1.00  0.00     0.025 C 
HETATM   28  C   UNL     1      36.520  54.375  38.596  1.00  0.00     0.002 C 
HETATM   29  C   UNL     1      37.701  53.653  37.962  1.00  0.00     0.002 C 
HETATM   30  C   UNL     1      37.657  52.228  38.517  1.00  0.00     0.025 C 
ENDBRANCH  23  26
ENDBRANCH   6  22
TORSDOF 4
ENDMDL
MODEL 8
REMARK VINA RESULT:      -7.6     12.845     16.017
REMARK  4 active torsions:
REMARK  status: ('A' for Active; 'I' for Inactive)
REMARK    1  A    between atoms: C_3  and  N_4 
REMARK       I    between atoms: N_4  and  C_5 
REMARK       I    between atoms: C_5  and  N_6 
REMARK    2  A    between atoms: N_6  and  C_7 
REMARK    3  A    between atoms: C_18  and  C_19 
REMARK       I    between atoms: C_19  and  N_20 
REMARK    4  A    between atoms: N_20  and  C_21 
ROOT
HETATM    1  C   UNL     1      32.502  51.655  44.234  1.00  0.00     0.050 C 
HETATM    2  C   UNL     1      32.408  51.792  42.737  1.00  0.00    -0.034 A 
HETATM    3  C   UNL     1      33.356  51.285  41.837  1.00  0.00     0.042 A 
HETATM    4  C   UNL     1      33.082  51.308  40.462  1.00  0.00     0.031 A 
HETATM    5  C   UNL     1      31.939  51.942  39.963  1.00  0.00     0.019 A 
HETATM    6  C   UNL     1      31.018  52.509  40.835  1.00  0.00     0.032 A 
HETATM    7  C   UNL     1      31.261  52.427  42.217  1.00  0.00     0.026 A 
ENDROOT
BRANCH   3   8
HETATM    8  N   UNL     1      34.574  50.693  42.210  1.00  0.00    -0.308 N 
HETATM    9  C   UNL     1      35.795  51.262  42.475  1.00  0.00     0.325 C 
HETATM   10  N   UNL     1      35.892  52.618  42.340  1.00  0.00    -0.305 N 
HETATM   11  O   UNL     1      36.719  50.496  42.738  1.00  0.00    -0.247 OA
HETATM   12  H   UNL     1      35.036  53.133  42.229  1.00  0.00     0.171 HD
HETATM   13  H   UNL     1      34.713  49.723  41.955  1.00  0.00     0.170 HD
BRANCH  10  14
HETATM   14  C   UNL     1      37.047  53.383  42.410  1.00  0.00     0.086 A 
HETATM   15  C   UNL     1      37.739  54.022  43.482  1.00  0.00     0.079 A 
HETATM   16  C   UNL     1      37.466  54.026  44.941  1.00  0.00     0.075 C 
HETATM   17  N   UNL     1      38.838  54.657  43.045  1.00  0.00    -0.177 NA
HETATM   18  N   UNL     1      38.856  54.421  41.731  1.00  0.00    -0.280 N 
HETATM   19  H   UNL     1      39.613  54.820  41.188  1.00  0.00     0.189 HD
HETATM   20  C   UNL     1      37.821  53.644  41.294  1.00  0.00     0.052 A 
HETATM   21  C   UNL     1      37.678  53.285  39.864  1.00  0.00     0.072 C 
ENDBRANCH  10  14
ENDBRANCH   3   8
BRANCH   6  22
HETATM   22  C   UNL     1      29.848  53.309  40.401  1.00  0.00     0.252 C 
HETATM   23  N   UNL     1      28.610  52.813  40.106  1.00  0.00    -0.352 N 
HETATM   24  H   UNL     1      28.016  53.587  39.827  1.00  0.00     0.163 HD
HETATM   25  O   UNL     1      29.994  54.532  40.329  1.00  0.00    -0.268 OA
BRANCH  23  26
HETATM   26  C   UNL     1      27.946  51.522  40.077  1.00  0.00     0.084 C 
HETATM   27  C   UNL     1      28.447  50.568  38.995  1.00  0.00     0.025 C 
HETATM   28  C   UNL     1      27.946  49.213  39.471  1.00  0.00     0.002 C 
HETATM   29  C   UNL     1      28.123  49.268  40.983  1.00  0.00     0.002 C 
HETATM   30  C   UNL     1      27.850  50.721  41.376  1.00  0.00     0.025 C 
ENDBRANCH  23  26
ENDBRANCH   6  22
TORSDOF 4
ENDMDL
MODEL 9
REMARK VINA RESULT:      -7.5     13.737     15.418
REMARK  4 active torsions:
REMARK  status: ('A' for Active; 'I' for Inactive)
REMARK    1  A    between atoms: C_3  and  N_4 
REMARK       I    between atoms: N_4  and  C_5 
REMARK       I    between atoms: C_5  and  N_6 
REMARK    2  A    between atoms: N_6  and  C_7 
REMARK    3  A    between atoms: C_18  and  C_19 
REMARK       I    between atoms: C_19  and  N_20 
REMARK    4  A    between atoms: N_20  and  C_21 
ROOT
HETATM    1  C   UNL     1      37.144  51.467  40.510  1.00  0.00     0.050 C 
HETATM    2  C   UNL     1      36.823  52.141  41.818  1.00  0.00    -0.034 A 
HETATM    3  C   UNL     1      35.868  51.675  42.733  1.00  0.00     0.042 A 
HETATM    4  C   UNL     1      35.776  52.272  43.998  1.00  0.00     0.031 A 
HETATM    5  C   UNL     1      36.531  53.406  44.319  1.00  0.00     0.019 A 
HETATM    6  C   UNL     1      37.437  53.924  43.402  1.00  0.00     0.032 A 
HETATM    7  C   UNL     1      37.576  53.284  42.158  1.00  0.00     0.026 A 
ENDROOT
BRANCH   3   8
HETATM    8  N   UNL     1      35.000  50.595  42.500  1.00  0.00    -0.308 N 
HETATM    9  C   UNL     1      33.815  50.539  41.809  1.00  0.00     0.325 C 
HETATM   10  N   UNL     1      33.356  51.705  41.266  1.00  0.00    -0.305 N 
HETATM   11  O   UNL     1      33.228  49.459  41.800  1.00  0.00    -0.247 OA
HETATM   12  H   UNL     1      33.987  52.488  41.251  1.00  0.00     0.171 HD
HETATM   13  H   UNL     1      35.032  49.827  43.160  1.00  0.00     0.170 HD
BRANCH  10  14
HETATM   14  C   UNL     1      32.125  51.916  40.660  1.00  0.00     0.086 A 
HETATM   15  C   UNL     1      31.650  51.766  39.324  1.00  0.00     0.079 A 
HETATM   16  C   UNL     1      32.332  51.257  38.108  1.00  0.00     0.075 C 
HETATM   17  N   UNL     1      30.353  52.098  39.227  1.00  0.00    -0.177 NA
HETATM   18  N   UNL     1      30.005  52.440  40.469  1.00  0.00    -0.280 N 
HETATM   19  H   UNL     1      29.048  52.738  40.629  1.00  0.00     0.189 HD
HETATM   20  C   UNL     1      31.018  52.330  41.378  1.00  0.00     0.052 A 
HETATM   21  C   UNL     1      30.814  52.674  42.804  1.00  0.00     0.072 C 
ENDBRANCH  10  14
ENDBRANCH   3   8
BRANCH   6  22
HETATM   22  C   UNL     1      38.185  55.188  43.599  1.00  0.00     0.252 C 
HETATM   23  N   UNL     1      38.991  55.478  44.663  1.00  0.00    -0.352 N 
HETATM   24  H   UNL     1      39.360  56.415  44.536  1.00  0.00     0.163 HD
HETATM   25  O   UNL     1      38.098  56.042  42.713  1.00  0.00    -0.268 OA
BRANCH  23  26
HETATM   26  C   UNL     1      39.438  54.831  45.884  1.00  0.00     0.084 C 
HETATM   27  C   UNL     1      38.396  54.780  47.000  1.00  0.00     0.025 C 
HETATM   28  C   UNL     1      38.933  53.699  47.924  1.00  0.00     0.002 C 
HETATM   29  C   UNL     1      39.500  52.653  46.973  1.00  0.00     0.002 C 
HETATM   30  C   UNL     1      40.062  53.439  45.787  1.00  0.00     0.025 C 
ENDBRANCH  23  26
ENDBRANCH   6  22
TORSDOF 4
ENDMDL
MODEL 10
REMARK VINA RESULT:      -7.5      5.630      8.899
REMARK  4 active torsions:
REMARK  status: ('A' for Active; 'I' for Inactive)
REMARK    1  A    between atoms: C_3  and  N_4 
REMARK       I    between atoms: N_4  and  C_5 
REMARK       I    between atoms: C_5  and  N_6 
REMARK    2  A    between atoms: N_6  and  C_7 
REMARK    3  A    between atoms: C_18  and  C_19 
REMARK       I    between atoms: C_19  and  N_20 
REMARK    4  A    between atoms: N_20  and  C_21 
ROOT
HETATM    1  C   UNL     1      28.247  41.093  52.747  1.00  0.00     0.050 C 
HETATM    2  C   UNL     1      27.514  41.574  51.523  1.00  0.00    -0.034 A 
HETATM    3  C   UNL     1      26.477  42.517  51.542  1.00  0.00     0.042 A 
HETATM    4  C   UNL     1      25.988  43.029  50.332  1.00  0.00     0.031 A 
HETATM    5  C   UNL     1      26.424  42.523  49.103  1.00  0.00     0.019 A 
HETATM    6  C   UNL     1      27.405  41.540  49.063  1.00  0.00     0.032 A 
HETATM    7  C   UNL     1      27.943  41.075  50.275  1.00  0.00     0.026 A 
ENDROOT
BRANCH   3   8
HETATM    8  N   UNL     1      25.902  43.046  52.710  1.00  0.00    -0.308 N 
HETATM    9  C   UNL     1      26.446  43.843  53.688  1.00  0.00     0.325 C 
HETATM   10  N   UNL     1      27.764  44.177  53.557  1.00  0.00    -0.305 N 
HETATM   11  O   UNL     1      25.721  44.127  54.639  1.00  0.00    -0.247 OA
HETATM   12  H   UNL     1      28.207  43.971  52.678  1.00  0.00     0.171 HD
HETATM   13  H   UNL     1      25.102  42.558  53.092  1.00  0.00     0.170 HD
BRANCH  10  14
HETATM   14  C   UNL     1      28.554  44.838  54.486  1.00  0.00     0.086 A 
HETATM   15  C   UNL     1      29.686  44.454  55.263  1.00  0.00     0.079 A 
HETATM   16  C   UNL     1      30.455  43.184  55.287  1.00  0.00     0.075 C 
HETATM   17  N   UNL     1      30.116  45.465  56.034  1.00  0.00    -0.177 NA
HETATM   18  N   UNL     1      29.288  46.473  55.750  1.00  0.00    -0.280 N 
HETATM   19  H   UNL     1      29.428  47.353  56.233  1.00  0.00     0.189 HD
HETATM   20  C   UNL     1      28.344  46.166  54.812  1.00  0.00     0.052 A 
HETATM   21  C   UNL     1      27.337  47.162  54.377  1.00  0.00     0.072 C 
ENDBRANCH  10  14
ENDBRANCH   3   8
BRANCH   6  22
HETATM   22  C   UNL     1      27.840  40.853  47.823  1.00  0.00     0.252 C 
HETATM   23  N   UNL     1      27.423  39.620  47.409  1.00  0.00    -0.352 N 
HETATM   24  H   UNL     1      27.894  39.401  46.537  1.00  0.00     0.163 HD
HETATM   25  O   UNL     1      28.622  41.456  47.085  1.00  0.00    -0.268 OA
BRANCH  23  26
HETATM   26  C   UNL     1      26.526  38.575  47.870  1.00  0.00     0.084 C 
HETATM   27  C   UNL     1      26.072  37.596  46.789  1.00  0.00     0.025 C 
HETATM   28  C   UNL     1      25.562  36.409  47.591  1.00  0.00     0.002 C 
HETATM   29  C   UNL     1      26.539  36.305  48.754  1.00  0.00     0.002 C 
HETATM   30  C   UNL     1      26.936  37.745  49.087  1.00  0.00     0.025 C 
ENDBRANCH  23  26
ENDBRANCH   6  22
TORSDOF 4
ENDMDL
