MODEL 1
REMARK VINA RESULT:      -8.1      0.000      0.000
REMARK  4 active torsions:
REMARK  status: ('A' for Active; 'I' for Inactive)
REMARK    1  A    between atoms: C_2  and  C_3 
REMARK    2  A    between atoms: C_7  and  C_8 
REMARK    3  A    between atoms: C_8  and  N_9 
REMARK       I    between atoms: N_9  and  C_10 
REMARK       I    between atoms: C_10  and  N_11 
REMARK    4  A    between atoms: N_11  and  C_12 
ROOT
HETATM    1  N   UNL     1      27.711  43.086  52.256  1.00  0.00    -0.333 N 
HETATM    2  C   UNL     1      28.287  42.955  53.515  1.00  0.00     0.322 C 
HETATM    3  N   UNL     1      28.940  44.081  53.955  1.00  0.00    -0.307 N 
HETATM    4  O   UNL     1      28.162  41.920  54.169  1.00  0.00    -0.247 OA
HETATM    5  C   UNL     1      28.165  44.012  51.225  1.00  0.00     0.155 C 
HETATM    6  H   UNL     1      28.651  44.946  53.516  1.00  0.00     0.170 HD
ENDROOT
BRANCH   1   7
HETATM    7  C   UNL     1      26.674  42.136  51.876  1.00  0.00     0.185 C 
BRANCH   7   8
HETATM    8  C   UNL     1      27.238  41.033  51.066  1.00  0.00     0.047 A 
HETATM    9  N   UNL     1      28.438  40.455  51.372  1.00  0.00    -0.280 N 
HETATM   10  N   UNL     1      28.762  39.434  50.562  1.00  0.00    -0.178 NA
HETATM   11  H   UNL     1      29.071  40.714  52.126  1.00  0.00     0.189 HD
HETATM   12  C   UNL     1      27.736  39.344  49.705  1.00  0.00     0.064 A 
HETATM   13  C   UNL     1      26.757  40.334  49.982  1.00  0.00     0.058 A 
BRANCH  12  14
HETATM   14  C   UNL     1      27.680  38.256  48.644  1.00  0.00    -0.005 C 
HETATM   15  C   UNL     1      27.008  37.000  49.235  1.00  0.00     0.021 C 
HETATM   16  C   UNL     1      29.086  37.862  48.141  1.00  0.00     0.021 C 
HETATM   17  C   UNL     1      26.864  38.728  47.423  1.00  0.00     0.021 C 
ENDBRANCH  12  14
ENDBRANCH   7   8
ENDBRANCH   1   7
BRANCH   3  18
HETATM   18  C   UNL     1      29.667  44.240  55.161  1.00  0.00     0.064 A 
HETATM   19  C   UNL     1      29.326  45.304  56.018  1.00  0.00     0.099 A 
HETATM   20 CL   UNL     1      28.036  46.386  55.613  1.00  0.00    -0.079 Cl
HETATM   21  C   UNL     1      30.018  45.489  57.218  1.00  0.00     0.143 A 
HETATM   22  F   UNL     1      29.689  46.491  58.047  1.00  0.00    -0.204 F 
HETATM   23  C   UNL     1      31.057  44.643  57.579  1.00  0.00     0.086 A 
HETATM   24  C   UNL     1      31.401  43.607  56.725  1.00  0.00     0.121 A 
HETATM   25  F   UNL     1      32.411  42.793  57.058  1.00  0.00    -0.206 F 
HETATM   26  C   UNL     1      30.722  43.397  55.525  1.00  0.00     0.073 A 
ENDBRANCH   3  18
TORSDOF 4
ENDMDL
MODEL 2
REMARK VINA RESULT:      -8.1      1.148      1.521
REMARK  4 active torsions:
REMARK  status: ('A' for Active; 'I' for Inactive)
REMARK    1  A    between atoms: C_2  and  C_3 
REMARK    2  A    between atoms: C_7  and  C_8 
REMARK    3  A    between atoms: C_8  and  N_9 
REMARK       I    between atoms: N_9  and  C_10 
REMARK       I    between atoms: C_10  and  N_11 
REMARK    4  A    between atoms: N_11  and  C_12 
ROOT
HETATM    1  N   UNL     1      27.373  43.573  52.251  1.00  0.00    -0.333 N 
HETATM    2  C   UNL     1      27.880  43.418  53.536  1.00  0.00     0.322 C 
HETATM    3  N   UNL     1      28.827  44.351  53.885  1.00  0.00    -0.307 N 
HETATM    4  O   UNL     1      27.459  42.537  54.286  1.00  0.00    -0.247 OA
HETATM    5  C   UNL     1      28.079  44.216  51.150  1.00  0.00     0.155 C 
HETATM    6  H   UNL     1      28.802  45.210  53.351  1.00  0.00     0.170 HD
ENDROOT
BRANCH   1   7
HETATM    7  C   UNL     1      26.108  42.924  51.932  1.00  0.00     0.185 C 
BRANCH   7   8
HETATM    8  C   UNL     1      26.315  41.797  50.994  1.00  0.00     0.047 A 
HETATM    9  N   UNL     1      25.649  41.719  49.803  1.00  0.00    -0.280 N 
HETATM   10  N   UNL     1      26.005  40.659  49.059  1.00  0.00    -0.178 NA
HETATM   11  H   UNL     1      24.946  42.364  49.448  1.00  0.00     0.189 HD
HETATM   12  C   UNL     1      26.938  40.033  49.789  1.00  0.00     0.064 A 
HETATM   13  C   UNL     1      27.161  40.712  51.016  1.00  0.00     0.058 A 
BRANCH  12  14
HETATM   14  C   UNL     1      27.657  38.797  49.269  1.00  0.00    -0.005 C 
HETATM   15  C   UNL     1      27.837  38.916  47.742  1.00  0.00     0.021 C 
HETATM   16  C   UNL     1      26.872  37.501  49.565  1.00  0.00     0.021 C 
HETATM   17  C   UNL     1      29.047  38.661  49.924  1.00  0.00     0.021 C 
ENDBRANCH  12  14
ENDBRANCH   7   8
ENDBRANCH   1   7
BRANCH   3  18
HETATM   18  C   UNL     1      29.562  44.422  55.093  1.00  0.00     0.064 A 
HETATM   19  C   UNL     1      29.279  45.466  55.994  1.00  0.00     0.099 A 
HETATM   20 CL   UNL     1      28.045  46.629  55.638  1.00  0.00    -0.079 Cl
HETATM   21  C   UNL     1      29.980  45.567  57.199  1.00  0.00     0.143 A 
HETATM   22  F   UNL     1      29.704  46.550  58.069  1.00  0.00    -0.204 F 
HETATM   23  C   UNL     1      30.974  44.654  57.522  1.00  0.00     0.086 A 
HETATM   24  C   UNL     1      31.263  43.637  56.625  1.00  0.00     0.121 A 
HETATM   25  F   UNL     1      32.230  42.759  56.922  1.00  0.00    -0.206 F 
HETATM   26  C   UNL     1      30.573  43.512  55.420  1.00  0.00     0.073 A 
ENDBRANCH   3  18
TORSDOF 4
ENDMDL
MODEL 3
REMARK VINA RESULT:      -8.0      3.879      6.196
REMARK  4 active torsions:
REMARK  status: ('A' for Active; 'I' for Inactive)
REMARK    1  A    between atoms: C_2  and  C_3 
REMARK    2  A    between atoms: C_7  and  C_8 
REMARK    3  A    between atoms: C_8  and  N_9 
REMARK       I    between atoms: N_9  and  C_10 
REMARK       I    between atoms: C_10  and  N_11 
REMARK    4  A    between atoms: N_11  and  C_12 
ROOT
HETATM    1  N   UNL     1      26.724  44.261  52.199  1.00  0.00    -0.333 N 
HETATM    2  C   UNL     1      27.130  44.292  53.528  1.00  0.00     0.322 C 
HETATM    3  N   UNL     1      28.436  44.680  53.710  1.00  0.00    -0.307 N 
HETATM    4  O   UNL     1      26.346  44.033  54.441  1.00  0.00    -0.247 OA
HETATM    5  C   UNL     1      27.616  44.073  51.061  1.00  0.00     0.155 C 
HETATM    6  H   UNL     1      28.836  45.214  52.949  1.00  0.00     0.170 HD
ENDROOT
BRANCH   1   7
HETATM    7  C   UNL     1      25.295  44.270  51.920  1.00  0.00     0.185 C 
BRANCH   7   8
HETATM    8  C   UNL     1      24.880  45.564  51.333  1.00  0.00     0.047 A 
HETATM    9  N   UNL     1      25.318  46.757  51.835  1.00  0.00    -0.280 N 
HETATM   10  N   UNL     1      24.885  47.822  51.141  1.00  0.00    -0.178 NA
HETATM   11  H   UNL     1      25.919  46.900  52.644  1.00  0.00     0.189 HD
HETATM   12  C   UNL     1      24.144  47.302  50.152  1.00  0.00     0.064 A 
HETATM   13  C   UNL     1      24.110  45.885  50.237  1.00  0.00     0.058 A 
BRANCH  12  14
HETATM   14  C   UNL     1      23.511  48.183  49.086  1.00  0.00    -0.005 C 
HETATM   15  C   UNL     1      24.612  48.995  48.374  1.00  0.00     0.021 C 
HETATM   16  C   UNL     1      22.487  49.173  49.683  1.00  0.00     0.021 C 
HETATM   17  C   UNL     1      22.772  47.324  48.040  1.00  0.00     0.021 C 
ENDBRANCH  12  14
ENDBRANCH   7   8
ENDBRANCH   1   7
BRANCH   3  18
HETATM   18  C   UNL     1      29.151  44.754  54.930  1.00  0.00     0.064 A 
HETATM   19  C   UNL     1      30.201  43.843  55.153  1.00  0.00     0.099 A 
HETATM   20 CL   UNL     1      30.618  42.666  53.952  1.00  0.00    -0.079 Cl
HETATM   21  C   UNL     1      30.932  43.888  56.343  1.00  0.00     0.143 A 
HETATM   22  F   UNL     1      31.944  43.033  56.555  1.00  0.00    -0.204 F 
HETATM   23  C   UNL     1      30.630  44.817  57.329  1.00  0.00     0.086 A 
HETATM   24  C   UNL     1      29.584  45.702  57.114  1.00  0.00     0.121 A 
HETATM   25  F   UNL     1      29.277  46.593  58.065  1.00  0.00    -0.206 F 
HETATM   26  C   UNL     1      28.844  45.681  55.933  1.00  0.00     0.073 A 
ENDBRANCH   3  18
TORSDOF 4
ENDMDL
MODEL 4
REMARK VINA RESULT:      -8.0      5.770      9.213
REMARK  4 active torsions:
REMARK  status: ('A' for Active; 'I' for Inactive)
REMARK    1  A    between atoms: C_2  and  C_3 
REMARK    2  A    between atoms: C_7  and  C_8 
REMARK    3  A    between atoms: C_8  and  N_9 
REMARK       I    between atoms: N_9  and  C_10 
REMARK       I    between atoms: C_10  and  N_11 
REMARK    4  A    between atoms: N_11  and  C_12 
ROOT
HETATM    1  N   UNL     1      26.174  45.398  52.043  1.00  0.00    -0.333 N 
HETATM    2  C   UNL     1      25.630  46.614  51.648  1.00  0.00     0.322 C 
HETATM    3  N   UNL     1      25.520  46.766  50.286  1.00  0.00    -0.307 N 
HETATM    4  O   UNL     1      25.247  47.441  52.475  1.00  0.00    -0.247 OA
HETATM    5  C   UNL     1      27.068  44.582  51.230  1.00  0.00     0.155 C 
HETATM    6  H   UNL     1      25.507  45.904  49.756  1.00  0.00     0.170 HD
ENDROOT
BRANCH   1   7
HETATM    7  C   UNL     1      25.960  44.967  53.418  1.00  0.00     0.185 C 
BRANCH   7   8
HETATM    8  C   UNL     1      27.096  45.365  54.280  1.00  0.00     0.047 A 
HETATM    9  N   UNL     1      27.208  46.628  54.788  1.00  0.00    -0.280 N 
HETATM   10  N   UNL     1      28.271  46.790  55.593  1.00  0.00    -0.178 NA
HETATM   11  H   UNL     1      26.584  47.415  54.622  1.00  0.00     0.189 HD
HETATM   12  C   UNL     1      28.865  45.588  55.612  1.00  0.00     0.064 A 
HETATM   13  C   UNL     1      28.163  44.663  54.795  1.00  0.00     0.058 A 
BRANCH  12  14
HETATM   14  C   UNL     1      30.093  45.323  56.470  1.00  0.00    -0.005 C 
HETATM   15  C   UNL     1      31.222  46.290  56.059  1.00  0.00     0.021 C 
HETATM   16  C   UNL     1      30.611  43.877  56.311  1.00  0.00     0.021 C 
HETATM   17  C   UNL     1      29.770  45.541  57.962  1.00  0.00     0.021 C 
ENDBRANCH  12  14
ENDBRANCH   7   8
ENDBRANCH   1   7
BRANCH   3  18
HETATM   18  C   UNL     1      25.062  47.905  49.581  1.00  0.00     0.064 A 
HETATM   19  C   UNL     1      26.012  48.764  48.997  1.00  0.00     0.099 A 
HETATM   20 CL   UNL     1      27.706  48.424  49.125  1.00  0.00    -0.079 Cl
HETATM   21  C   UNL     1      25.598  49.896  48.289  1.00  0.00     0.143 A 
HETATM   22  F   UNL     1      26.498  50.709  47.716  1.00  0.00    -0.204 F 
HETATM   23  C   UNL     1      24.251  50.202  48.161  1.00  0.00     0.086 A 
HETATM   24  C   UNL     1      23.317  49.364  48.753  1.00  0.00     0.121 A 
HETATM   25  F   UNL     1      22.015  49.658  48.647  1.00  0.00    -0.206 F 
HETATM   26  C   UNL     1      23.705  48.226  49.459  1.00  0.00     0.073 A 
ENDBRANCH   3  18
TORSDOF 4
ENDMDL
MODEL 5
REMARK VINA RESULT:      -7.9      1.662      2.568
REMARK  4 active torsions:
REMARK  status: ('A' for Active; 'I' for Inactive)
REMARK    1  A    between atoms: C_2  and  C_3 
REMARK    2  A    between atoms: C_7  and  C_8 
REMARK    3  A    between atoms: C_8  and  N_9 
REMARK       I    between atoms: N_9  and  C_10 
REMARK       I    between atoms: C_10  and  N_11 
REMARK    4  A    between atoms: N_11  and  C_12 
ROOT
HETATM    1  N   UNL     1      26.896  43.679  52.027  1.00  0.00    -0.333 N 
HETATM    2  C   UNL     1      27.386  43.607  53.325  1.00  0.00     0.322 C 
HETATM    3  N   UNL     1      28.243  44.628  53.662  1.00  0.00    -0.307 N 
HETATM    4  O   UNL     1      27.026  42.717  54.095  1.00  0.00    -0.247 OA
HETATM    5  C   UNL     1      27.569  44.346  50.918  1.00  0.00     0.155 C 
HETATM    6  H   UNL     1      28.157  45.465  53.100  1.00  0.00     0.170 HD
ENDROOT
BRANCH   1   7
HETATM    7  C   UNL     1      25.698  42.916  51.704  1.00  0.00     0.185 C 
BRANCH   7   8
HETATM    8  C   UNL     1      26.024  41.764  50.833  1.00  0.00     0.047 A 
HETATM    9  N   UNL     1      25.426  41.588  49.616  1.00  0.00    -0.280 N 
HETATM   10  N   UNL     1      25.888  40.523  48.942  1.00  0.00    -0.178 NA
HETATM   11  H   UNL     1      24.703  42.169  49.197  1.00  0.00     0.189 HD
HETATM   12  C   UNL     1      26.820  39.993  49.746  1.00  0.00     0.064 A 
HETATM   13  C   UNL     1      26.935  40.739  50.948  1.00  0.00     0.058 A 
BRANCH  12  14
HETATM   14  C   UNL     1      27.642  38.786  49.320  1.00  0.00    -0.005 C 
HETATM   15  C   UNL     1      28.019  38.923  47.832  1.00  0.00     0.021 C 
HETATM   16  C   UNL     1      26.868  37.462  49.504  1.00  0.00     0.021 C 
HETATM   17  C   UNL     1      28.936  38.688  50.154  1.00  0.00     0.021 C 
ENDBRANCH  12  14
ENDBRANCH   7   8
ENDBRANCH   1   7
BRANCH   3  18
HETATM   18  C   UNL     1      28.944  44.798  54.881  1.00  0.00     0.064 A 
HETATM   19  C   UNL     1      30.088  44.013  55.116  1.00  0.00     0.099 A 
HETATM   20 CL   UNL     1      30.636  42.873  53.931  1.00  0.00    -0.079 Cl
HETATM   21  C   UNL     1      30.808  44.156  56.305  1.00  0.00     0.143 A 
HETATM   22  F   UNL     1      31.909  43.423  56.529  1.00  0.00    -0.204 F 
HETATM   23  C   UNL     1      30.403  45.059  57.278  1.00  0.00     0.086 A 
HETATM   24  C   UNL     1      29.265  45.818  57.051  1.00  0.00     0.121 A 
HETATM   25  F   UNL     1      28.859  46.683  57.990  1.00  0.00    -0.206 F 
HETATM   26  C   UNL     1      28.534  45.698  55.870  1.00  0.00     0.073 A 
ENDBRANCH   3  18
TORSDOF 4
ENDMDL
MODEL 6
REMARK VINA RESULT:      -7.7      2.301      3.317
REMARK  4 active torsions:
REMARK  status: ('A' for Active; 'I' for Inactive)
REMARK    1  A    between atoms: C_2  and  C_3 
REMARK    2  A    between atoms: C_7  and  C_8 
REMARK    3  A    between atoms: C_8  and  N_9 
REMARK       I    between atoms: N_9  and  C_10 
REMARK       I    between atoms: C_10  and  N_11 
REMARK    4  A    between atoms: N_11  and  C_12 
ROOT
HETATM    1  N   UNL     1      25.874  43.229  50.613  1.00  0.00    -0.333 N 
HETATM    2  C   UNL     1      26.934  43.792  51.315  1.00  0.00     0.322 C 
HETATM    3  N   UNL     1      26.907  43.549  52.667  1.00  0.00    -0.307 N 
HETATM    4  O   UNL     1      27.827  44.409  50.735  1.00  0.00    -0.247 OA
HETATM    5  C   UNL     1      24.570  42.916  51.184  1.00  0.00     0.155 C 
HETATM    6  H   UNL     1      26.363  42.743  52.949  1.00  0.00     0.170 HD
ENDROOT
BRANCH   1   7
HETATM    7  C   UNL     1      26.015  43.070  49.172  1.00  0.00     0.185 C 
BRANCH   7   8
HETATM    8  C   UNL     1      26.647  41.772  48.843  1.00  0.00     0.047 A 
HETATM    9  N   UNL     1      27.207  41.532  47.619  1.00  0.00    -0.280 N 
HETATM   10  N   UNL     1      27.782  40.322  47.522  1.00  0.00    -0.178 NA
HETATM   11  H   UNL     1      27.229  42.161  46.819  1.00  0.00     0.189 HD
HETATM   12  C   UNL     1      27.594  39.761  48.725  1.00  0.00     0.064 A 
HETATM   13  C   UNL     1      26.880  40.636  49.585  1.00  0.00     0.058 A 
BRANCH  12  14
HETATM   14  C   UNL     1      28.158  38.388  49.058  1.00  0.00    -0.005 C 
HETATM   15  C   UNL     1      28.852  37.805  47.810  1.00  0.00     0.021 C 
HETATM   16  C   UNL     1      27.058  37.401  49.506  1.00  0.00     0.021 C 
HETATM   17  C   UNL     1      29.189  38.487  50.200  1.00  0.00     0.021 C 
ENDBRANCH  12  14
ENDBRANCH   7   8
ENDBRANCH   1   7
BRANCH   3  18
HETATM   18  C   UNL     1      27.808  44.031  53.648  1.00  0.00     0.064 A 
HETATM   19  C   UNL     1      28.951  43.266  53.946  1.00  0.00     0.099 A 
HETATM   20 CL   UNL     1      29.256  41.774  53.119  1.00  0.00    -0.079 Cl
HETATM   21  C   UNL     1      29.866  43.711  54.905  1.00  0.00     0.143 A 
HETATM   22  F   UNL     1      30.966  42.995  55.183  1.00  0.00    -0.204 F 
HETATM   23  C   UNL     1      29.659  44.901  55.587  1.00  0.00     0.086 A 
HETATM   24  C   UNL     1      28.522  45.643  55.304  1.00  0.00     0.121 A 
HETATM   25  F   UNL     1      28.306  46.787  55.968  1.00  0.00    -0.206 F 
HETATM   26  C   UNL     1      27.599  45.224  54.348  1.00  0.00     0.073 A 
ENDBRANCH   3  18
TORSDOF 4
ENDMDL
MODEL 7
REMARK VINA RESULT:      -7.6      5.219      7.238
REMARK  4 active torsions:
REMARK  status: ('A' for Active; 'I' for Inactive)
REMARK    1  A    between atoms: C_2  and  C_3 
REMARK    2  A    between atoms: C_7  and  C_8 
REMARK    3  A    between atoms: C_8  and  N_9 
REMARK       I    between atoms: N_9  and  C_10 
REMARK       I    between atoms: C_10  and  N_11 
REMARK    4  A    between atoms: N_11  and  C_12 
ROOT
HETATM    1  N   UNL     1      25.075  44.753  50.381  1.00  0.00    -0.333 N 
HETATM    2  C   UNL     1      25.420  44.774  51.728  1.00  0.00     0.322 C 
HETATM    3  N   UNL     1      26.738  45.080  51.967  1.00  0.00    -0.307 N 
HETATM    4  O   UNL     1      24.579  44.577  52.604  1.00  0.00    -0.247 OA
HETATM    5  C   UNL     1      26.004  44.494  49.288  1.00  0.00     0.155 C 
HETATM    6  H   UNL     1      27.207  45.579  51.221  1.00  0.00     0.170 HD
ENDROOT
BRANCH   1   7
HETATM    7  C   UNL     1      23.663  44.850  50.035  1.00  0.00     0.185 C 
BRANCH   7   8
HETATM    8  C   UNL     1      23.380  46.116  49.322  1.00  0.00     0.047 A 
HETATM    9  N   UNL     1      22.603  46.153  48.198  1.00  0.00    -0.280 N 
HETATM   10  N   UNL     1      22.409  47.394  47.722  1.00  0.00    -0.178 NA
HETATM   11  H   UNL     1      22.177  45.362  47.719  1.00  0.00     0.189 HD
HETATM   12  C   UNL     1      23.077  48.189  48.569  1.00  0.00     0.064 A 
HETATM   13  C   UNL     1      23.707  47.427  49.588  1.00  0.00     0.058 A 
BRANCH  12  14
HETATM   14  C   UNL     1      23.060  49.702  48.420  1.00  0.00    -0.005 C 
HETATM   15  C   UNL     1      22.623  50.342  49.753  1.00  0.00     0.021 C 
HETATM   16  C   UNL     1      22.084  50.166  47.316  1.00  0.00     0.021 C 
HETATM   17  C   UNL     1      24.462  50.228  48.052  1.00  0.00     0.021 C 
ENDBRANCH  12  14
ENDBRANCH   7   8
ENDBRANCH   1   7
BRANCH   3  18
HETATM   18  C   UNL     1      27.399  45.124  53.218  1.00  0.00     0.064 A 
HETATM   19  C   UNL     1      27.146  46.212  54.076  1.00  0.00     0.099 A 
HETATM   20 CL   UNL     1      26.037  47.461  53.615  1.00  0.00    -0.079 Cl
HETATM   21  C   UNL     1      27.776  46.288  55.321  1.00  0.00     0.143 A 
HETATM   22  F   UNL     1      27.527  47.313  56.150  1.00  0.00    -0.204 F 
HETATM   23  C   UNL     1      28.669  45.307  55.728  1.00  0.00     0.086 A 
HETATM   24  C   UNL     1      28.930  44.246  54.874  1.00  0.00     0.121 A 
HETATM   25  F   UNL     1      29.801  43.302  55.252  1.00  0.00    -0.206 F 
HETATM   26  C   UNL     1      28.309  44.145  53.630  1.00  0.00     0.073 A 
ENDBRANCH   3  18
TORSDOF 4
ENDMDL
MODEL 8
REMARK VINA RESULT:      -7.6     14.644     15.852
REMARK  4 active torsions:
REMARK  status: ('A' for Active; 'I' for Inactive)
REMARK    1  A    between atoms: C_2  and  C_3 
REMARK    2  A    between atoms: C_7  and  C_8 
REMARK    3  A    between atoms: C_8  and  N_9 
REMARK       I    between atoms: N_9  and  C_10 
REMARK       I    between atoms: C_10  and  N_11 
REMARK    4  A    between atoms: N_11  and  C_12 
ROOT
HETATM    1  N   UNL     1      35.751  44.576  66.167  1.00  0.00    -0.333 N 
HETATM    2  C   UNL     1      36.204  45.752  65.581  1.00  0.00     0.322 C 
HETATM    3  N   UNL     1      37.004  46.516  66.396  1.00  0.00    -0.307 N 
HETATM    4  O   UNL     1      35.932  46.028  64.413  1.00  0.00    -0.247 OA
HETATM    5  C   UNL     1      35.593  44.368  67.602  1.00  0.00     0.155 C 
HETATM    6  H   UNL     1      37.448  46.016  67.155  1.00  0.00     0.170 HD
ENDROOT
BRANCH   1   7
HETATM    7  C   UNL     1      35.259  43.520  65.292  1.00  0.00     0.185 C 
BRANCH   7   8
HETATM    8  C   UNL     1      36.382  42.791  64.660  1.00  0.00     0.047 A 
HETATM    9  N   UNL     1      36.907  43.177  63.459  1.00  0.00    -0.280 N 
HETATM   10  N   UNL     1      37.956  42.435  63.069  1.00  0.00    -0.178 NA
HETATM   11  H   UNL     1      36.591  43.943  62.867  1.00  0.00     0.189 HD
HETATM   12  C   UNL     1      38.121  41.540  64.054  1.00  0.00     0.064 A 
HETATM   13  C   UNL     1      37.149  41.725  65.073  1.00  0.00     0.058 A 
BRANCH  12  14
HETATM   14  C   UNL     1      39.261  40.535  64.032  1.00  0.00    -0.005 C 
HETATM   15  C   UNL     1      39.449  40.008  62.595  1.00  0.00     0.021 C 
HETATM   16  C   UNL     1      38.992  39.329  64.959  1.00  0.00     0.021 C 
HETATM   17  C   UNL     1      40.577  41.194  64.494  1.00  0.00     0.021 C 
ENDBRANCH  12  14
ENDBRANCH   7   8
ENDBRANCH   1   7
BRANCH   3  18
HETATM   18  C   UNL     1      37.567  47.783  66.107  1.00  0.00     0.064 A 
HETATM   19  C   UNL     1      37.146  48.896  66.861  1.00  0.00     0.099 A 
HETATM   20 CL   UNL     1      35.975  48.714  68.124  1.00  0.00    -0.079 Cl
HETATM   21  C   UNL     1      37.683  50.161  66.608  1.00  0.00     0.143 A 
HETATM   22  F   UNL     1      37.298  51.222  67.333  1.00  0.00    -0.204 F 
HETATM   23  C   UNL     1      38.624  50.348  65.607  1.00  0.00     0.086 A 
HETATM   24  C   UNL     1      39.025  49.254  64.854  1.00  0.00     0.121 A 
HETATM   25  F   UNL     1      39.923  49.426  63.876  1.00  0.00    -0.206 F 
HETATM   26  C   UNL     1      38.508  47.980  65.091  1.00  0.00     0.073 A 
ENDBRANCH   3  18
TORSDOF 4
ENDMDL
MODEL 9
REMARK VINA RESULT:      -7.5      5.704      9.138
REMARK  4 active torsions:
REMARK  status: ('A' for Active; 'I' for Inactive)
REMARK    1  A    between atoms: C_2  and  C_3 
REMARK    2  A    between atoms: C_7  and  C_8 
REMARK    3  A    between atoms: C_8  and  N_9 
REMARK       I    between atoms: N_9  and  C_10 
REMARK       I    between atoms: C_10  and  N_11 
REMARK    4  A    between atoms: N_11  and  C_12 
ROOT
HETATM    1  N   UNL     1      25.941  45.321  52.153  1.00  0.00    -0.333 N 
HETATM    2  C   UNL     1      25.674  46.594  51.662  1.00  0.00     0.322 C 
HETATM    3  N   UNL     1      25.538  46.653  50.296  1.00  0.00    -0.307 N 
HETATM    4  O   UNL     1      25.531  47.553  52.419  1.00  0.00    -0.247 OA
HETATM    5  C   UNL     1      26.585  44.254  51.395  1.00  0.00     0.155 C 
HETATM    6  H   UNL     1      25.302  45.777  49.848  1.00  0.00     0.170 HD
ENDROOT
BRANCH   1   7
HETATM    7  C   UNL     1      25.699  45.068  53.567  1.00  0.00     0.185 C 
BRANCH   7   8
HETATM    8  C   UNL     1      26.886  45.425  54.378  1.00  0.00     0.047 A 
HETATM    9  N   UNL     1      27.029  46.661  54.942  1.00  0.00    -0.280 N 
HETATM   10  N   UNL     1      28.138  46.784  55.689  1.00  0.00    -0.178 NA
HETATM   11  H   UNL     1      26.396  47.455  54.854  1.00  0.00     0.189 HD
HETATM   12  C   UNL     1      28.731  45.585  55.612  1.00  0.00     0.064 A 
HETATM   13  C   UNL     1      27.980  44.700  54.793  1.00  0.00     0.058 A 
BRANCH  12  14
HETATM   14  C   UNL     1      30.007  45.279  56.381  1.00  0.00    -0.005 C 
HETATM   15  C   UNL     1      31.090  46.310  56.004  1.00  0.00     0.021 C 
HETATM   16  C   UNL     1      30.551  43.868  56.067  1.00  0.00     0.021 C 
HETATM   17  C   UNL     1      29.757  45.355  57.901  1.00  0.00     0.021 C 
ENDBRANCH  12  14
ENDBRANCH   7   8
ENDBRANCH   1   7
BRANCH   3  18
HETATM   18  C   UNL     1      25.321  47.805  49.501  1.00  0.00     0.064 A 
HETATM   19  C   UNL     1      24.033  48.030  48.978  1.00  0.00     0.099 A 
HETATM   20 CL   UNL     1      22.739  46.928  49.313  1.00  0.00    -0.079 Cl
HETATM   21  C   UNL     1      23.779  49.158  48.193  1.00  0.00     0.143 A 
HETATM   22  F   UNL     1      22.551  49.387  47.704  1.00  0.00    -0.204 F 
HETATM   23  C   UNL     1      24.788  50.065  47.903  1.00  0.00     0.086 A 
HETATM   24  C   UNL     1      26.060  49.832  48.405  1.00  0.00     0.121 A 
HETATM   25  F   UNL     1      27.043  50.695  48.119  1.00  0.00    -0.206 F 
HETATM   26  C   UNL     1      26.336  48.718  49.195  1.00  0.00     0.073 A 
ENDBRANCH   3  18
TORSDOF 4
ENDMDL
MODEL 10
REMARK VINA RESULT:      -7.5      5.341      7.530
REMARK  4 active torsions:
REMARK  status: ('A' for Active; 'I' for Inactive)
REMARK    1  A    between atoms: C_2  and  C_3 
REMARK    2  A    between atoms: C_7  and  C_8 
REMARK    3  A    between atoms: C_8  and  N_9 
REMARK       I    between atoms: N_9  and  C_10 
REMARK       I    between atoms: C_10  and  N_11 
REMARK    4  A    between atoms: N_11  and  C_12 
ROOT
HETATM    1  N   UNL     1      24.878  44.594  50.213  1.00  0.00    -0.333 N 
HETATM    2  C   UNL     1      25.245  44.722  51.548  1.00  0.00     0.322 C 
HETATM    3  N   UNL     1      26.588  44.936  51.745  1.00  0.00    -0.307 N 
HETATM    4  O   UNL     1      24.405  44.687  52.446  1.00  0.00    -0.247 OA
HETATM    5  C   UNL     1      25.765  44.148  49.145  1.00  0.00     0.155 C 
HETATM    6  H   UNL     1      27.085  45.315  50.949  1.00  0.00     0.170 HD
ENDROOT
BRANCH   1   7
HETATM    7  C   UNL     1      23.474  44.776  49.869  1.00  0.00     0.185 C 
BRANCH   7   8
HETATM    8  C   UNL     1      23.261  46.074  49.189  1.00  0.00     0.047 A 
HETATM    9  N   UNL     1      22.545  46.171  48.029  1.00  0.00    -0.280 N 
HETATM   10  N   UNL     1      22.407  47.432  47.589  1.00  0.00    -0.178 NA
HETATM   11  H   UNL     1      22.123  45.410  47.501  1.00  0.00     0.189 HD
HETATM   12  C   UNL     1      23.052  48.179  48.497  1.00  0.00     0.064 A 
HETATM   13  C   UNL     1      23.609  47.365  49.518  1.00  0.00     0.058 A 
BRANCH  12  14
HETATM   14  C   UNL     1      23.082  49.696  48.400  1.00  0.00    -0.005 C 
HETATM   15  C   UNL     1      24.510  50.158  48.044  1.00  0.00     0.021 C 
HETATM   16  C   UNL     1      22.671  50.371  49.727  1.00  0.00     0.021 C 
HETATM   17  C   UNL     1      22.113  50.191  47.307  1.00  0.00     0.021 C 
ENDBRANCH  12  14
ENDBRANCH   7   8
ENDBRANCH   1   7
BRANCH   3  18
HETATM   18  C   UNL     1      27.270  45.050  52.981  1.00  0.00     0.064 A 
HETATM   19  C   UNL     1      28.233  44.077  53.311  1.00  0.00     0.099 A 
HETATM   20 CL   UNL     1      28.586  42.779  52.220  1.00  0.00    -0.079 Cl
HETATM   21  C   UNL     1      28.930  44.158  54.520  1.00  0.00     0.143 A 
HETATM   22  F   UNL     1      29.860  43.244  54.833  1.00  0.00    -0.204 F 
HETATM   23  C   UNL     1      28.678  45.183  55.420  1.00  0.00     0.086 A 
HETATM   24  C   UNL     1      27.716  46.130  55.100  1.00  0.00     0.121 A 
HETATM   25  F   UNL     1      27.456  47.116  55.968  1.00  0.00    -0.206 F 
HETATM   26  C   UNL     1      27.012  46.075  53.898  1.00  0.00     0.073 A 
ENDBRANCH   3  18
TORSDOF 4
ENDMDL
