MODEL 1
REMARK VINA RESULT:      -7.8      0.000      0.000
REMARK  5 active torsions:
REMARK  status: ('A' for Active; 'I' for Inactive)
REMARK    1  A    between atoms: C_2  and  C_3 
REMARK    2  A    between atoms: C_3  and  N_4 
REMARK    3  A    between atoms: C_3  and  C_14 
REMARK       I    between atoms: N_4  and  C_5 
REMARK    4  A    between atoms: C_5  and  C_6 
REMARK    5  A    between atoms: C_17  and  O_18 
ROOT
HETATM    1  C   UNL     1      28.153  43.392  52.103  1.00  0.00     0.117 C 
ENDROOT
BRANCH   1   2
HETATM    2  C   UNL     1      27.253  42.147  52.243  1.00  0.00     0.025 C 
HETATM    3  C   UNL     1      27.786  40.930  51.498  1.00  0.00     0.007 C 
ENDBRANCH   1   2
BRANCH   1   4
HETATM    4  N   UNL     1      27.395  44.564  51.677  1.00  0.00    -0.348 N 
HETATM    5  C   UNL     1      26.983  44.740  50.375  1.00  0.00     0.253 C 
HETATM    6  O   UNL     1      27.205  43.936  49.478  1.00  0.00    -0.268 OA
HETATM    7  H   UNL     1      27.328  45.324  52.336  1.00  0.00     0.163 HD
BRANCH   5   8
HETATM    8  C   UNL     1      26.258  45.996  50.072  1.00  0.00     0.050 A 
HETATM    9  C   UNL     1      24.889  46.050  50.318  1.00  0.00     0.133 A 
HETATM   10  N   UNL     1      24.117  47.140  50.078  1.00  0.00    -0.271 NA
HETATM   11  C   UNL     1      24.747  48.231  49.584  1.00  0.00     0.135 A 
HETATM   12  C   UNL     1      26.109  48.277  49.326  1.00  0.00     0.029 A 
HETATM   13 BR   UNL     1      26.908  49.847  48.652  1.00  0.00    -0.050 Br
HETATM   14  C   UNL     1      26.881  47.146  49.576  1.00  0.00     0.039 A 
ENDBRANCH   5   8
ENDBRANCH   1   4
BRANCH   1  15
HETATM   15  C   UNL     1      28.865  43.724  53.407  1.00  0.00    -0.035 A 
HETATM   16  C   UNL     1      29.987  42.980  53.795  1.00  0.00     0.012 A 
HETATM   17  C   UNL     1      30.673  43.289  54.973  1.00  0.00     0.037 A 
HETATM   18  C   UNL     1      30.263  44.352  55.780  1.00  0.00     0.068 A 
HETATM   19  C   UNL     1      29.150  45.101  55.402  1.00  0.00     0.037 A 
HETATM   20  C   UNL     1      28.458  44.791  54.225  1.00  0.00     0.012 A 
BRANCH  18  21
HETATM   21  O   UNL     1      31.027  44.551  56.896  1.00  0.00    -0.356 OA
HETATM   22  C   UNL     1      31.841  43.465  57.321  1.00  0.00     0.210 C 
ENDBRANCH  18  21
ENDBRANCH   1  15
TORSDOF 5
ENDMDL
MODEL 2
REMARK VINA RESULT:      -7.6      1.587      2.072
REMARK  5 active torsions:
REMARK  status: ('A' for Active; 'I' for Inactive)
REMARK    1  A    between atoms: C_2  and  C_3 
REMARK    2  A    between atoms: C_3  and  N_4 
REMARK    3  A    between atoms: C_3  and  C_14 
REMARK       I    between atoms: N_4  and  C_5 
REMARK    4  A    between atoms: C_5  and  C_6 
REMARK    5  A    between atoms: C_17  and  O_18 
ROOT
HETATM    1  C   UNL     1      28.282  43.253  52.199  1.00  0.00     0.117 C 
ENDROOT
BRANCH   1   2
HETATM    2  C   UNL     1      27.661  41.849  52.351  1.00  0.00     0.025 C 
HETATM    3  C   UNL     1      28.370  40.783  51.524  1.00  0.00     0.007 C 
ENDBRANCH   1   2
BRANCH   1   4
HETATM    4  N   UNL     1      27.280  44.252  51.843  1.00  0.00    -0.348 N 
HETATM    5  C   UNL     1      26.870  44.452  50.544  1.00  0.00     0.253 C 
HETATM    6  O   UNL     1      27.296  43.812  49.590  1.00  0.00    -0.268 OA
HETATM    7  H   UNL     1      27.020  44.909  52.562  1.00  0.00     0.163 HD
BRANCH   5   8
HETATM    8  C   UNL     1      25.876  45.529  50.319  1.00  0.00     0.050 A 
HETATM    9  C   UNL     1      26.082  46.762  50.931  1.00  0.00     0.133 A 
HETATM   10  N   UNL     1      25.243  47.822  50.804  1.00  0.00    -0.271 NA
HETATM   11  C   UNL     1      24.158  47.643  50.016  1.00  0.00     0.135 A 
HETATM   12  C   UNL     1      23.880  46.457  49.352  1.00  0.00     0.029 A 
HETATM   13 BR   UNL     1      22.351  46.301  48.260  1.00  0.00    -0.050 Br
HETATM   14  C   UNL     1      24.753  45.382  49.499  1.00  0.00     0.039 A 
ENDBRANCH   5   8
ENDBRANCH   1   4
BRANCH   1  15
HETATM   15  C   UNL     1      28.981  43.702  53.474  1.00  0.00    -0.035 A 
HETATM   16  C   UNL     1      28.465  44.779  54.207  1.00  0.00     0.012 A 
HETATM   17  C   UNL     1      29.075  45.188  55.397  1.00  0.00     0.037 A 
HETATM   18  C   UNL     1      30.201  44.524  55.885  1.00  0.00     0.068 A 
HETATM   19  C   UNL     1      30.721  43.450  55.167  1.00  0.00     0.037 A 
HETATM   20  C   UNL     1      30.116  43.041  53.972  1.00  0.00     0.012 A 
BRANCH  18  21
HETATM   21  O   UNL     1      30.691  45.019  57.062  1.00  0.00    -0.356 OA
HETATM   22  C   UNL     1      29.870  45.946  57.762  1.00  0.00     0.210 C 
ENDBRANCH  18  21
ENDBRANCH   1  15
TORSDOF 5
ENDMDL
MODEL 3
REMARK VINA RESULT:      -7.4      2.101      2.852
REMARK  5 active torsions:
REMARK  status: ('A' for Active; 'I' for Inactive)
REMARK    1  A    between atoms: C_2  and  C_3 
REMARK    2  A    between atoms: C_3  and  N_4 
REMARK    3  A    between atoms: C_3  and  C_14 
REMARK       I    between atoms: N_4  and  C_5 
REMARK    4  A    between atoms: C_5  and  C_6 
REMARK    5  A    between atoms: C_17  and  O_18 
ROOT
HETATM    1  C   UNL     1      26.513  45.036  52.125  1.00  0.00     0.117 C 
ENDROOT
BRANCH   1   2
HETATM    2  C   UNL     1      25.158  44.372  52.442  1.00  0.00     0.025 C 
HETATM    3  C   UNL     1      24.668  43.443  51.337  1.00  0.00     0.007 C 
ENDBRANCH   1   2
BRANCH   1   4
HETATM    4  N   UNL     1      26.346  46.289  51.397  1.00  0.00    -0.348 N 
HETATM    5  C   UNL     1      26.711  46.426  50.076  1.00  0.00     0.253 C 
HETATM    6  O   UNL     1      27.191  45.520  49.406  1.00  0.00    -0.268 OA
HETATM    7  H   UNL     1      26.108  47.102  51.943  1.00  0.00     0.163 HD
BRANCH   5   8
HETATM    8  C   UNL     1      26.524  47.767  49.471  1.00  0.00     0.050 A 
HETATM    9  C   UNL     1      27.653  48.495  49.108  1.00  0.00     0.133 A 
HETATM   10  N   UNL     1      27.611  49.732  48.550  1.00  0.00    -0.271 NA
HETATM   11  C   UNL     1      26.383  50.256  48.332  1.00  0.00     0.135 A 
HETATM   12  C   UNL     1      25.202  49.597  48.644  1.00  0.00     0.029 A 
HETATM   13 BR   UNL     1      23.532  50.397  48.291  1.00  0.00    -0.050 Br
HETATM   14  C   UNL     1      25.270  48.330  49.219  1.00  0.00     0.039 A 
ENDBRANCH   5   8
ENDBRANCH   1   4
BRANCH   1  15
HETATM   15  C   UNL     1      27.314  45.316  53.390  1.00  0.00    -0.035 A 
HETATM   16  C   UNL     1      27.030  46.455  54.154  1.00  0.00     0.012 A 
HETATM   17  C   UNL     1      27.732  46.713  55.335  1.00  0.00     0.037 A 
HETATM   18  C   UNL     1      28.721  45.835  55.783  1.00  0.00     0.068 A 
HETATM   19  C   UNL     1      29.010  44.698  55.032  1.00  0.00     0.037 A 
HETATM   20  C   UNL     1      28.312  44.438  53.847  1.00  0.00     0.012 A 
BRANCH  18  21
HETATM   21  O   UNL     1      29.323  46.201  56.955  1.00  0.00    -0.356 OA
HETATM   22  C   UNL     1      30.323  45.329  57.464  1.00  0.00     0.210 C 
ENDBRANCH  18  21
ENDBRANCH   1  15
TORSDOF 5
ENDMDL
MODEL 4
REMARK VINA RESULT:      -7.2      3.528      5.132
REMARK  5 active torsions:
REMARK  status: ('A' for Active; 'I' for Inactive)
REMARK    1  A    between atoms: C_2  and  C_3 
REMARK    2  A    between atoms: C_3  and  N_4 
REMARK    3  A    between atoms: C_3  and  C_14 
REMARK       I    between atoms: N_4  and  C_5 
REMARK    4  A    between atoms: C_5  and  C_6 
REMARK    5  A    between atoms: C_17  and  O_18 
ROOT
HETATM    1  C   UNL     1      27.033  43.933  52.848  1.00  0.00     0.117 C 
ENDROOT
BRANCH   1   2
HETATM    2  C   UNL     1      26.593  45.267  52.210  1.00  0.00     0.025 C 
HETATM    3  C   UNL     1      25.115  45.576  52.416  1.00  0.00     0.007 C 
ENDBRANCH   1   2
BRANCH   1   4
HETATM    4  N   UNL     1      27.543  42.998  51.852  1.00  0.00    -0.348 N 
HETATM    5  C   UNL     1      26.711  42.233  51.067  1.00  0.00     0.253 C 
HETATM    6  O   UNL     1      25.488  42.277  51.129  1.00  0.00    -0.268 OA
HETATM    7  H   UNL     1      28.533  42.808  51.874  1.00  0.00     0.163 HD
BRANCH   5   8
HETATM    8  C   UNL     1      27.364  41.293  50.124  1.00  0.00     0.050 A 
HETATM    9  C   UNL     1      27.226  41.519  48.758  1.00  0.00     0.133 A 
HETATM   10  N   UNL     1      27.773  40.729  47.799  1.00  0.00    -0.271 NA
HETATM   11  C   UNL     1      28.503  39.673  48.229  1.00  0.00     0.135 A 
HETATM   12  C   UNL     1      28.710  39.380  49.569  1.00  0.00     0.029 A 
HETATM   13 BR   UNL     1      29.756  37.896  50.079  1.00  0.00    -0.050 Br
HETATM   14  C   UNL     1      28.137  40.203  50.535  1.00  0.00     0.039 A 
ENDBRANCH   5   8
ENDBRANCH   1   4
BRANCH   1  15
HETATM   15  C   UNL     1      28.104  44.142  53.910  1.00  0.00    -0.035 A 
HETATM   16  C   UNL     1      29.102  43.175  54.088  1.00  0.00     0.012 A 
HETATM   17  C   UNL     1      30.113  43.361  55.036  1.00  0.00     0.037 A 
HETATM   18  C   UNL     1      30.156  44.519  55.813  1.00  0.00     0.068 A 
HETATM   19  C   UNL     1      29.171  45.489  55.642  1.00  0.00     0.037 A 
HETATM   20  C   UNL     1      28.155  45.304  54.698  1.00  0.00     0.012 A 
BRANCH  18  21
HETATM   21  O   UNL     1      31.201  44.579  56.693  1.00  0.00    -0.356 OA
HETATM   22  C   UNL     1      31.677  43.343  57.212  1.00  0.00     0.210 C 
ENDBRANCH  18  21
ENDBRANCH   1  15
TORSDOF 5
ENDMDL
MODEL 5
REMARK VINA RESULT:      -7.2      4.355      9.033
REMARK  5 active torsions:
REMARK  status: ('A' for Active; 'I' for Inactive)
REMARK    1  A    between atoms: C_2  and  C_3 
REMARK    2  A    between atoms: C_3  and  N_4 
REMARK    3  A    between atoms: C_3  and  C_14 
REMARK       I    between atoms: N_4  and  C_5 
REMARK    4  A    between atoms: C_5  and  C_6 
REMARK    5  A    between atoms: C_17  and  O_18 
ROOT
HETATM    1  C   UNL     1      24.726  48.680  48.791  1.00  0.00     0.117 C 
ENDROOT
BRANCH   1   2
HETATM    2  C   UNL     1      25.745  49.781  48.429  1.00  0.00     0.025 C 
HETATM    3  C   UNL     1      27.174  49.436  48.829  1.00  0.00     0.007 C 
ENDBRANCH   1   2
BRANCH   1   4
HETATM    4  N   UNL     1      24.995  48.104  50.103  1.00  0.00    -0.348 N 
HETATM    5  C   UNL     1      25.075  46.745  50.307  1.00  0.00     0.253 C 
HETATM    6  O   UNL     1      24.940  45.915  49.416  1.00  0.00    -0.268 OA
HETATM    7  H   UNL     1      24.954  48.732  50.891  1.00  0.00     0.163 HD
BRANCH   5   8
HETATM    8  C   UNL     1      25.312  46.294  51.700  1.00  0.00     0.050 A 
HETATM    9  C   UNL     1      24.812  45.056  52.092  1.00  0.00     0.133 A 
HETATM   10  N   UNL     1      24.960  44.538  53.338  1.00  0.00    -0.271 NA
HETATM   11  C   UNL     1      25.655  45.286  54.226  1.00  0.00     0.135 A 
HETATM   12  C   UNL     1      26.206  46.522  53.920  1.00  0.00     0.029 A 
HETATM   13 BR   UNL     1      27.173  47.492  55.217  1.00  0.00    -0.050 Br
HETATM   14  C   UNL     1      26.038  47.036  52.637  1.00  0.00     0.039 A 
ENDBRANCH   5   8
ENDBRANCH   1   4
BRANCH   1  15
HETATM   15  C   UNL     1      23.298  49.206  48.777  1.00  0.00    -0.035 A 
HETATM   16  C   UNL     1      23.065  50.582  48.653  1.00  0.00     0.012 A 
HETATM   17  C   UNL     1      21.760  51.082  48.606  1.00  0.00     0.037 A 
HETATM   18  C   UNL     1      20.664  50.221  48.669  1.00  0.00     0.068 A 
HETATM   19  C   UNL     1      20.883  48.850  48.789  1.00  0.00     0.037 A 
HETATM   20  C   UNL     1      22.188  48.347  48.841  1.00  0.00     0.012 A 
BRANCH  18  21
HETATM   21  O   UNL     1      19.446  50.840  48.604  1.00  0.00    -0.356 OA
HETATM   22  C   UNL     1      19.449  52.258  48.504  1.00  0.00     0.210 C 
ENDBRANCH  18  21
ENDBRANCH   1  15
TORSDOF 5
ENDMDL
MODEL 6
REMARK VINA RESULT:      -7.0      2.188      2.475
REMARK  5 active torsions:
REMARK  status: ('A' for Active; 'I' for Inactive)
REMARK    1  A    between atoms: C_2  and  C_3 
REMARK    2  A    between atoms: C_3  and  N_4 
REMARK    3  A    between atoms: C_3  and  C_14 
REMARK       I    between atoms: N_4  and  C_5 
REMARK    4  A    between atoms: C_5  and  C_6 
REMARK    5  A    between atoms: C_17  and  O_18 
ROOT
HETATM    1  C   UNL     1      28.407  42.536  52.249  1.00  0.00     0.117 C 
ENDROOT
BRANCH   1   2
HETATM    2  C   UNL     1      28.523  41.022  52.521  1.00  0.00     0.025 C 
HETATM    3  C   UNL     1      28.733  40.196  51.258  1.00  0.00     0.007 C 
ENDBRANCH   1   2
BRANCH   1   4
HETATM    4  N   UNL     1      27.049  42.917  51.876  1.00  0.00    -0.348 N 
HETATM    5  C   UNL     1      26.676  43.119  50.566  1.00  0.00     0.253 C 
HETATM    6  O   UNL     1      27.436  42.989  49.615  1.00  0.00    -0.268 OA
HETATM    7  H   UNL     1      26.434  43.192  52.626  1.00  0.00     0.163 HD
BRANCH   5   8
HETATM    8  C   UNL     1      25.275  43.544  50.333  1.00  0.00     0.050 A 
HETATM    9  C   UNL     1      24.247  42.693  50.729  1.00  0.00     0.133 A 
HETATM   10  N   UNL     1      22.928  42.969  50.565  1.00  0.00    -0.271 NA
HETATM   11  C   UNL     1      22.624  44.158  49.994  1.00  0.00     0.135 A 
HETATM   12  C   UNL     1      23.580  45.077  49.585  1.00  0.00     0.029 A 
HETATM   13 BR   UNL     1      23.066  46.718  48.811  1.00  0.00    -0.050 Br
HETATM   14  C   UNL     1      24.927  44.771  49.759  1.00  0.00     0.039 A 
ENDBRANCH   5   8
ENDBRANCH   1   4
BRANCH   1  15
HETATM   15  C   UNL     1      28.826  43.361  53.458  1.00  0.00    -0.035 A 
HETATM   16  C   UNL     1      29.953  42.983  54.200  1.00  0.00     0.012 A 
HETATM   17  C   UNL     1      30.373  43.745  55.295  1.00  0.00     0.037 A 
HETATM   18  C   UNL     1      29.686  44.903  55.663  1.00  0.00     0.068 A 
HETATM   19  C   UNL     1      28.565  45.290  54.931  1.00  0.00     0.037 A 
HETATM   20  C   UNL     1      28.140  44.527  53.837  1.00  0.00     0.012 A 
BRANCH  18  21
HETATM   21  O   UNL     1      30.207  45.557  56.745  1.00  0.00    -0.356 OA
HETATM   22  C   UNL     1      30.868  44.762  57.721  1.00  0.00     0.210 C 
ENDBRANCH  18  21
ENDBRANCH   1  15
TORSDOF 5
ENDMDL
MODEL 7
REMARK VINA RESULT:      -6.9      3.577      5.872
REMARK  5 active torsions:
REMARK  status: ('A' for Active; 'I' for Inactive)
REMARK    1  A    between atoms: C_2  and  C_3 
REMARK    2  A    between atoms: C_3  and  N_4 
REMARK    3  A    between atoms: C_3  and  C_14 
REMARK       I    between atoms: N_4  and  C_5 
REMARK    4  A    between atoms: C_5  and  C_6 
REMARK    5  A    between atoms: C_17  and  O_18 
ROOT
HETATM    1  C   UNL     1      27.565  43.135  52.129  1.00  0.00     0.117 C 
ENDROOT
BRANCH   1   2
HETATM    2  C   UNL     1      27.263  44.368  51.253  1.00  0.00     0.025 C 
HETATM    3  C   UNL     1      25.792  44.769  51.262  1.00  0.00     0.007 C 
ENDBRANCH   1   2
BRANCH   1   4
HETATM    4  N   UNL     1      28.123  42.038  51.345  1.00  0.00    -0.348 N 
HETATM    5  C   UNL     1      27.333  41.071  50.768  1.00  0.00     0.253 C 
HETATM    6  O   UNL     1      26.111  41.052  50.851  1.00  0.00    -0.268 OA
HETATM    7  H   UNL     1      29.124  41.919  51.382  1.00  0.00     0.163 HD
BRANCH   5   8
HETATM    8  C   UNL     1      28.034  39.990  50.034  1.00  0.00     0.050 A 
HETATM    9  C   UNL     1      28.982  39.231  50.714  1.00  0.00     0.133 A 
HETATM   10  N   UNL     1      29.691  38.220  50.151  1.00  0.00    -0.271 NA
HETATM   11  C   UNL     1      29.427  37.946  48.852  1.00  0.00     0.135 A 
HETATM   12  C   UNL     1      28.486  38.635  48.100  1.00  0.00     0.029 A 
HETATM   13 BR   UNL     1      28.171  38.175  46.299  1.00  0.00    -0.050 Br
HETATM   14  C   UNL     1      27.774  39.671  48.698  1.00  0.00     0.039 A 
ENDBRANCH   5   8
ENDBRANCH   1   4
BRANCH   1  15
HETATM   15  C   UNL     1      28.534  43.467  53.256  1.00  0.00    -0.035 A 
HETATM   16  C   UNL     1      28.242  44.516  54.137  1.00  0.00     0.012 A 
HETATM   17  C   UNL     1      29.103  44.816  55.197  1.00  0.00     0.037 A 
HETATM   18  C   UNL     1      30.263  44.070  55.406  1.00  0.00     0.068 A 
HETATM   19  C   UNL     1      30.562  43.021  54.538  1.00  0.00     0.037 A 
HETATM   20  C   UNL     1      29.704  42.721  53.473  1.00  0.00     0.012 A 
BRANCH  18  21
HETATM   21  O   UNL     1      31.009  44.462  56.483  1.00  0.00    -0.356 OA
HETATM   22  C   UNL     1      31.766  43.456  57.142  1.00  0.00     0.210 C 
ENDBRANCH  18  21
ENDBRANCH   1  15
TORSDOF 5
ENDMDL
MODEL 8
REMARK VINA RESULT:      -6.9      3.206      4.531
REMARK  5 active torsions:
REMARK  status: ('A' for Active; 'I' for Inactive)
REMARK    1  A    between atoms: C_2  and  C_3 
REMARK    2  A    between atoms: C_3  and  N_4 
REMARK    3  A    between atoms: C_3  and  C_14 
REMARK       I    between atoms: N_4  and  C_5 
REMARK    4  A    between atoms: C_5  and  C_6 
REMARK    5  A    between atoms: C_17  and  O_18 
ROOT
HETATM    1  C   UNL     1      26.194  45.630  53.002  1.00  0.00     0.117 C 
ENDROOT
BRANCH   1   2
HETATM    2  C   UNL     1      26.043  47.107  52.583  1.00  0.00     0.025 C 
HETATM    3  C   UNL     1      26.119  47.318  51.076  1.00  0.00     0.007 C 
ENDBRANCH   1   2
BRANCH   1   4
HETATM    4  N   UNL     1      26.326  44.750  51.845  1.00  0.00    -0.348 N 
HETATM    5  C   UNL     1      25.330  43.879  51.466  1.00  0.00     0.253 C 
HETATM    6  O   UNL     1      24.259  43.776  52.050  1.00  0.00    -0.268 OA
HETATM    7  H   UNL     1      27.244  44.681  51.431  1.00  0.00     0.163 HD
BRANCH   5   8
HETATM    8  C   UNL     1      25.614  43.013  50.296  1.00  0.00     0.050 A 
HETATM    9  C   UNL     1      26.940  42.821  49.918  1.00  0.00     0.133 A 
HETATM   10  N   UNL     1      27.324  42.055  48.865  1.00  0.00    -0.271 NA
HETATM   11  C   UNL     1      26.338  41.442  48.170  1.00  0.00     0.135 A 
HETATM   12  C   UNL     1      24.992  41.561  48.484  1.00  0.00     0.029 A 
HETATM   13 BR   UNL     1      23.684  40.658  47.469  1.00  0.00    -0.050 Br
HETATM   14  C   UNL     1      24.620  42.354  49.566  1.00  0.00     0.039 A 
ENDBRANCH   5   8
ENDBRANCH   1   4
BRANCH   1  15
HETATM   15  C   UNL     1      27.398  45.420  53.909  1.00  0.00    -0.035 A 
HETATM   16  C   UNL     1      27.718  46.386  54.873  1.00  0.00     0.012 A 
HETATM   17  C   UNL     1      28.801  46.197  55.737  1.00  0.00     0.037 A 
HETATM   18  C   UNL     1      29.576  45.039  55.667  1.00  0.00     0.068 A 
HETATM   19  C   UNL     1      29.265  44.070  54.715  1.00  0.00     0.037 A 
HETATM   20  C   UNL     1      28.185  44.257  53.845  1.00  0.00     0.012 A 
BRANCH  18  21
HETATM   21  O   UNL     1      30.597  44.978  56.575  1.00  0.00    -0.356 OA
HETATM   22  C   UNL     1      30.446  45.741  57.765  1.00  0.00     0.210 C 
ENDBRANCH  18  21
ENDBRANCH   1  15
TORSDOF 5
ENDMDL
MODEL 9
REMARK VINA RESULT:      -6.8      6.325     10.356
REMARK  5 active torsions:
REMARK  status: ('A' for Active; 'I' for Inactive)
REMARK    1  A    between atoms: C_2  and  C_3 
REMARK    2  A    between atoms: C_3  and  N_4 
REMARK    3  A    between atoms: C_3  and  C_14 
REMARK       I    between atoms: N_4  and  C_5 
REMARK    4  A    between atoms: C_5  and  C_6 
REMARK    5  A    between atoms: C_17  and  O_18 
ROOT
HETATM    1  C   UNL     1      22.230  49.657  47.940  1.00  0.00     0.117 C 
ENDROOT
BRANCH   1   2
HETATM    2  C   UNL     1      23.384  50.674  48.065  1.00  0.00     0.025 C 
HETATM    3  C   UNL     1      24.764  50.032  47.999  1.00  0.00     0.007 C 
ENDBRANCH   1   2
BRANCH   1   4
HETATM    4  N   UNL     1      22.548  48.395  48.599  1.00  0.00    -0.348 N 
HETATM    5  C   UNL     1      22.423  47.181  47.962  1.00  0.00     0.253 C 
HETATM    6  O   UNL     1      22.050  47.058  46.801  1.00  0.00    -0.268 OA
HETATM    7  H   UNL     1      22.702  48.430  49.595  1.00  0.00     0.163 HD
BRANCH   5   8
HETATM    8  C   UNL     1      22.739  45.974  48.762  1.00  0.00     0.050 A 
HETATM    9  C   UNL     1      21.931  44.850  48.618  1.00  0.00     0.133 A 
HETATM   10  N   UNL     1      22.117  43.690  49.298  1.00  0.00    -0.271 NA
HETATM   11  C   UNL     1      23.169  43.648  50.148  1.00  0.00     0.135 A 
HETATM   12  C   UNL     1      24.039  44.712  50.342  1.00  0.00     0.029 A 
HETATM   13 BR   UNL     1      25.491  44.561  51.537  1.00  0.00    -0.050 Br
HETATM   14  C   UNL     1      23.827  45.894  49.637  1.00  0.00     0.039 A 
ENDBRANCH   5   8
ENDBRANCH   1   4
BRANCH   1  15
HETATM   15  C   UNL     1      20.935  50.198  48.530  1.00  0.00    -0.035 A 
HETATM   16  C   UNL     1      20.114  49.356  49.291  1.00  0.00     0.012 A 
HETATM   17  C   UNL     1      18.936  49.841  49.868  1.00  0.00     0.037 A 
HETATM   18  C   UNL     1      18.561  51.175  49.707  1.00  0.00     0.068 A 
HETATM   19  C   UNL     1      19.371  52.023  48.955  1.00  0.00     0.037 A 
HETATM   20  C   UNL     1      20.549  51.539  48.373  1.00  0.00     0.012 A 
BRANCH  18  21
HETATM   21  O   UNL     1      17.393  51.520  50.330  1.00  0.00    -0.356 OA
HETATM   22  C   UNL     1      16.505  52.365  49.610  1.00  0.00     0.210 C 
ENDBRANCH  18  21
ENDBRANCH   1  15
TORSDOF 5
ENDMDL
MODEL 10
REMARK VINA RESULT:      -6.7      3.262      7.108
REMARK  5 active torsions:
REMARK  status: ('A' for Active; 'I' for Inactive)
REMARK    1  A    between atoms: C_2  and  C_3 
REMARK    2  A    between atoms: C_3  and  N_4 
REMARK    3  A    between atoms: C_3  and  C_14 
REMARK       I    between atoms: N_4  and  C_5 
REMARK    4  A    between atoms: C_5  and  C_6 
REMARK    5  A    between atoms: C_17  and  O_18 
ROOT
HETATM    1  C   UNL     1      25.397  44.265  51.958  1.00  0.00     0.117 C 
ENDROOT
BRANCH   1   2
HETATM    2  C   UNL     1      25.213  43.044  51.034  1.00  0.00     0.025 C 
HETATM    3  C   UNL     1      26.517  42.548  50.421  1.00  0.00     0.007 C 
ENDBRANCH   1   2
BRANCH   1   4
HETATM    4  N   UNL     1      26.682  44.233  52.648  1.00  0.00    -0.348 N 
HETATM    5  C   UNL     1      26.785  44.002  54.001  1.00  0.00     0.253 C 
HETATM    6  O   UNL     1      25.823  43.797  54.731  1.00  0.00    -0.268 OA
HETATM    7  H   UNL     1      27.484  44.554  52.127  1.00  0.00     0.163 HD
BRANCH   5   8
HETATM    8  C   UNL     1      28.149  44.039  54.580  1.00  0.00     0.050 A 
HETATM    9  C   UNL     1      29.125  43.209  54.036  1.00  0.00     0.133 A 
HETATM   10  N   UNL     1      30.406  43.151  54.481  1.00  0.00    -0.271 NA
HETATM   11  C   UNL     1      30.728  43.972  55.508  1.00  0.00     0.135 A 
HETATM   12  C   UNL     1      29.828  44.845  56.101  1.00  0.00     0.029 A 
HETATM   13 BR   UNL     1      30.367  45.966  57.519  1.00  0.00    -0.050 Br
HETATM   14  C   UNL     1      28.518  44.886  55.630  1.00  0.00     0.039 A 
ENDBRANCH   5   8
ENDBRANCH   1   4
BRANCH   1  15
HETATM   15  C   UNL     1      25.293  45.575  51.191  1.00  0.00    -0.035 A 
HETATM   16  C   UNL     1      26.303  46.537  51.318  1.00  0.00     0.012 A 
HETATM   17  C   UNL     1      26.242  47.734  50.598  1.00  0.00     0.037 A 
HETATM   18  C   UNL     1      25.181  47.989  49.728  1.00  0.00     0.068 A 
HETATM   19  C   UNL     1      24.172  47.038  49.591  1.00  0.00     0.037 A 
HETATM   20  C   UNL     1      24.228  45.841  50.314  1.00  0.00     0.012 A 
BRANCH  18  21
HETATM   21  O   UNL     1      25.249  49.191  49.080  1.00  0.00    -0.356 OA
HETATM   22  C   UNL     1      26.513  49.563  48.545  1.00  0.00     0.210 C 
ENDBRANCH  18  21
ENDBRANCH   1  15
TORSDOF 5
ENDMDL
