MODEL 1
REMARK VINA RESULT:      -9.7      0.000      0.000
REMARK  6 active torsions:
REMARK  status: ('A' for Active; 'I' for Inactive)
REMARK    1  A    between atoms: O_2  and  C_3 
REMARK    2  A    between atoms: C_7  and  O_8 
REMARK    3  A    between atoms: O_8  and  C_9 
REMARK    4  A    between atoms: C_9  and  C_10 
REMARK    5  A    between atoms: C_13  and  O_14 
REMARK    6  A    between atoms: C_17  and  C_23 
ROOT
HETATM    1  C   UNL     1      25.781  46.507  52.541  1.00  0.00     0.132 A 
HETATM    2  N   UNL     1      26.512  45.447  52.436  1.00  0.00    -0.229 NA
HETATM    3  C   UNL     1      27.467  45.182  53.443  1.00  0.00     0.108 A 
HETATM    4  C   UNL     1      28.254  44.016  53.383  1.00  0.00     0.098 A 
HETATM    5  C   UNL     1      29.220  43.769  54.371  1.00  0.00     0.051 A 
HETATM    6  C   UNL     1      29.410  44.659  55.443  1.00  0.00    -0.019 A 
HETATM    7  C   UNL     1      28.612  45.804  55.512  1.00  0.00     0.032 A 
HETATM    8  C   UNL     1      27.654  46.051  54.522  1.00  0.00     0.064 A 
HETATM    9  C   UNL     1      26.798  47.247  54.597  1.00  0.00     0.259 A 
HETATM   10  O   UNL     1      26.878  48.048  55.520  1.00  0.00    -0.267 OA
HETATM   11  N   UNL     1      25.902  47.399  53.574  1.00  0.00    -0.309 N 
HETATM   12  H   UNL     1      25.266  48.183  53.640  1.00  0.00     0.170 HD
ENDROOT
BRANCH   1  13
HETATM   13  C   UNL     1      24.753  46.861  51.483  1.00  0.00     0.254 C 
BRANCH  13  14
HETATM   14  O   UNL     1      25.377  46.695  50.210  1.00  0.00    -0.344 OA
BRANCH  14  15
HETATM   15  C   UNL     1      25.668  47.868  49.566  1.00  0.00     0.071 A 
HETATM   16  C   UNL     1      27.017  48.221  49.535  1.00  0.00     0.037 A 
HETATM   17  C   UNL     1      27.419  49.386  48.886  1.00  0.00     0.005 A 
HETATM   18  C   UNL     1      26.471  50.185  48.248  1.00  0.00     0.037 A 
HETATM   19  C   UNL     1      25.122  49.822  48.246  1.00  0.00     0.070 A 
HETATM   20  C   UNL     1      24.719  48.660  48.912  1.00  0.00     0.073 A 
BRANCH  19  21
HETATM   21  O   UNL     1      24.304  50.680  47.562  1.00  0.00    -0.356 OA
HETATM   22  C   UNL     1      22.904  50.445  47.650  1.00  0.00     0.210 C 
ENDBRANCH  19  21
ENDBRANCH  14  15
ENDBRANCH  13  14
ENDBRANCH   1  13
BRANCH   4  23
HETATM   23  O   UNL     1      28.026  43.189  52.309  1.00  0.00    -0.354 OA
HETATM   24  C   UNL     1      28.843  42.032  52.196  1.00  0.00     0.210 C 
ENDBRANCH   4  23
BRANCH   6  25
HETATM   25  C   UNL     1      30.426  44.386  56.447  1.00  0.00     0.010 A 
HETATM   26  C   UNL     1      30.709  45.025  57.679  1.00  0.00     0.152 A 
HETATM   27  N   UNL     1      31.744  44.479  58.322  1.00  0.00    -0.187 NA
HETATM   28  N   UNL     1      32.129  43.484  57.509  1.00  0.00    -0.289 N 
HETATM   29  H   UNL     1      32.917  42.909  57.791  1.00  0.00     0.188 HD
HETATM   30  C   UNL     1      31.376  43.388  56.374  1.00  0.00     0.123 A 
ENDBRANCH   6  25
TORSDOF 6
ENDMDL
MODEL 2
REMARK VINA RESULT:      -9.2      0.967      2.784
REMARK  6 active torsions:
REMARK  status: ('A' for Active; 'I' for Inactive)
REMARK    1  A    between atoms: O_2  and  C_3 
REMARK    2  A    between atoms: C_7  and  O_8 
REMARK    3  A    between atoms: O_8  and  C_9 
REMARK    4  A    between atoms: C_9  and  C_10 
REMARK    5  A    between atoms: C_13  and  O_14 
REMARK    6  A    between atoms: C_17  and  C_23 
ROOT
HETATM    1  C   UNL     1      25.783  45.532  52.183  1.00  0.00     0.132 A 
HETATM    2  N   UNL     1      26.123  46.401  53.077  1.00  0.00    -0.229 NA
HETATM    3  C   UNL     1      27.144  46.064  53.994  1.00  0.00     0.108 A 
HETATM    4  C   UNL     1      27.567  46.999  54.956  1.00  0.00     0.098 A 
HETATM    5  C   UNL     1      28.564  46.651  55.882  1.00  0.00     0.051 A 
HETATM    6  C   UNL     1      29.169  45.382  55.859  1.00  0.00    -0.019 A 
HETATM    7  C   UNL     1      28.762  44.463  54.889  1.00  0.00     0.032 A 
HETATM    8  C   UNL     1      27.764  44.811  53.971  1.00  0.00     0.064 A 
HETATM    9  C   UNL     1      27.341  43.854  52.934  1.00  0.00     0.259 A 
HETATM   10  O   UNL     1      27.848  42.745  52.826  1.00  0.00    -0.267 OA
HETATM   11  N   UNL     1      26.352  44.290  52.094  1.00  0.00    -0.309 N 
HETATM   12  H   UNL     1      26.091  43.668  51.340  1.00  0.00     0.170 HD
ENDROOT
BRANCH   1  13
HETATM   13  C   UNL     1      24.679  45.824  51.184  1.00  0.00     0.254 C 
BRANCH  13  14
HETATM   14  O   UNL     1      25.284  45.920  49.894  1.00  0.00    -0.344 OA
BRANCH  14  15
HETATM   15  C   UNL     1      25.621  47.194  49.522  1.00  0.00     0.071 A 
HETATM   16  C   UNL     1      26.988  47.451  49.419  1.00  0.00     0.037 A 
HETATM   17  C   UNL     1      27.434  48.711  49.026  1.00  0.00     0.005 A 
HETATM   18  C   UNL     1      26.508  49.706  48.713  1.00  0.00     0.037 A 
HETATM   19  C   UNL     1      25.137  49.447  48.783  1.00  0.00     0.070 A 
HETATM   20  C   UNL     1      24.693  48.186  49.192  1.00  0.00     0.073 A 
BRANCH  19  21
HETATM   21  O   UNL     1      24.341  50.502  48.425  1.00  0.00    -0.356 OA
HETATM   22  C   UNL     1      23.046  50.560  49.009  1.00  0.00     0.210 C 
ENDBRANCH  19  21
ENDBRANCH  14  15
ENDBRANCH  13  14
ENDBRANCH   1  13
BRANCH   4  23
HETATM   23  O   UNL     1      26.934  48.219  54.933  1.00  0.00    -0.354 OA
HETATM   24  C   UNL     1      26.333  48.663  56.141  1.00  0.00     0.210 C 
ENDBRANCH   4  23
BRANCH   6  25
HETATM   25  C   UNL     1      30.189  45.042  56.838  1.00  0.00     0.010 A 
HETATM   26  C   UNL     1      31.176  44.026  56.837  1.00  0.00     0.152 A 
HETATM   27  N   UNL     1      31.931  44.032  57.938  1.00  0.00    -0.187 NA
HETATM   28  N   UNL     1      31.437  45.055  58.651  1.00  0.00    -0.289 N 
HETATM   29  H   UNL     1      31.860  45.264  59.550  1.00  0.00     0.188 HD
HETATM   30  C   UNL     1      30.393  45.689  58.040  1.00  0.00     0.123 A 
ENDBRANCH   6  25
TORSDOF 6
ENDMDL
MODEL 3
REMARK VINA RESULT:      -8.6      2.026      3.739
REMARK  6 active torsions:
REMARK  status: ('A' for Active; 'I' for Inactive)
REMARK    1  A    between atoms: O_2  and  C_3 
REMARK    2  A    between atoms: C_7  and  O_8 
REMARK    3  A    between atoms: O_8  and  C_9 
REMARK    4  A    between atoms: C_9  and  C_10 
REMARK    5  A    between atoms: C_13  and  O_14 
REMARK    6  A    between atoms: C_17  and  C_23 
ROOT
HETATM    1  C   UNL     1      26.579  43.046  51.504  1.00  0.00     0.132 A 
HETATM    2  N   UNL     1      26.606  44.091  52.264  1.00  0.00    -0.229 NA
HETATM    3  C   UNL     1      27.566  44.149  53.299  1.00  0.00     0.108 A 
HETATM    4  C   UNL     1      27.650  45.288  54.122  1.00  0.00     0.098 A 
HETATM    5  C   UNL     1      28.588  45.331  55.166  1.00  0.00     0.051 A 
HETATM    6  C   UNL     1      29.468  44.260  55.400  1.00  0.00    -0.019 A 
HETATM    7  C   UNL     1      29.397  43.140  54.568  1.00  0.00     0.032 A 
HETATM    8  C   UNL     1      28.456  43.097  53.532  1.00  0.00     0.064 A 
HETATM    9  C   UNL     1      28.386  41.927  52.640  1.00  0.00     0.259 A 
HETATM   10  O   UNL     1      29.144  40.972  52.757  1.00  0.00    -0.267 OA
HETATM   11  N   UNL     1      27.426  41.982  51.667  1.00  0.00    -0.309 N 
HETATM   12  H   UNL     1      27.403  41.213  51.009  1.00  0.00     0.170 HD
ENDROOT
BRANCH   1  13
HETATM   13  C   UNL     1      25.559  42.912  50.389  1.00  0.00     0.254 C 
BRANCH  13  14
HETATM   14  O   UNL     1      25.901  43.860  49.379  1.00  0.00    -0.344 OA
BRANCH  14  15
HETATM   15  C   UNL     1      25.017  44.898  49.256  1.00  0.00     0.071 A 
HETATM   16  C   UNL     1      23.752  44.561  48.777  1.00  0.00     0.037 A 
HETATM   17  C   UNL     1      22.774  45.542  48.635  1.00  0.00     0.005 A 
HETATM   18  C   UNL     1      23.057  46.858  48.998  1.00  0.00     0.037 A 
HETATM   19  C   UNL     1      24.312  47.200  49.510  1.00  0.00     0.070 A 
HETATM   20  C   UNL     1      25.296  46.215  49.636  1.00  0.00     0.073 A 
BRANCH  19  21
HETATM   21  O   UNL     1      24.447  48.519  49.849  1.00  0.00    -0.356 OA
HETATM   22  C   UNL     1      24.177  49.477  48.834  1.00  0.00     0.210 C 
ENDBRANCH  19  21
ENDBRANCH  14  15
ENDBRANCH  13  14
ENDBRANCH   1  13
BRANCH   4  23
HETATM   23  O   UNL     1      26.760  46.299  53.848  1.00  0.00    -0.354 OA
HETATM   24  C   UNL     1      26.696  47.376  54.772  1.00  0.00     0.210 C 
ENDBRANCH   4  23
BRANCH   6  25
HETATM   25  C   UNL     1      30.421  44.325  56.497  1.00  0.00     0.010 A 
HETATM   26  C   UNL     1      31.511  43.484  56.831  1.00  0.00     0.152 A 
HETATM   27  N   UNL     1      32.151  43.877  57.935  1.00  0.00    -0.187 NA
HETATM   28  N   UNL     1      31.479  44.974  58.314  1.00  0.00    -0.289 N 
HETATM   29  H   UNL     1      31.788  45.464  59.148  1.00  0.00     0.188 HD
HETATM   30  C   UNL     1      30.435  45.283  57.490  1.00  0.00     0.123 A 
ENDBRANCH   6  25
TORSDOF 6
ENDMDL
MODEL 4
REMARK VINA RESULT:      -8.5      1.762      3.453
REMARK  6 active torsions:
REMARK  status: ('A' for Active; 'I' for Inactive)
REMARK    1  A    between atoms: O_2  and  C_3 
REMARK    2  A    between atoms: C_7  and  O_8 
REMARK    3  A    between atoms: O_8  and  C_9 
REMARK    4  A    between atoms: C_9  and  C_10 
REMARK    5  A    between atoms: C_13  and  O_14 
REMARK    6  A    between atoms: C_17  and  C_23 
ROOT
HETATM    1  C   UNL     1      25.136  46.026  50.925  1.00  0.00     0.132 A 
HETATM    2  N   UNL     1      25.411  46.613  52.044  1.00  0.00    -0.229 NA
HETATM    3  C   UNL     1      26.453  46.091  52.842  1.00  0.00     0.108 A 
HETATM    4  C   UNL     1      26.805  46.726  54.047  1.00  0.00     0.098 A 
HETATM    5  C   UNL     1      27.824  46.189  54.852  1.00  0.00     0.051 A 
HETATM    6  C   UNL     1      28.520  45.030  54.468  1.00  0.00    -0.019 A 
HETATM    7  C   UNL     1      28.183  44.414  53.261  1.00  0.00     0.032 A 
HETATM    8  C   UNL     1      27.163  44.947  52.464  1.00  0.00     0.064 A 
HETATM    9  C   UNL     1      26.812  44.314  51.181  1.00  0.00     0.259 A 
HETATM   10  O   UNL     1      27.399  43.324  50.762  1.00  0.00    -0.267 OA
HETATM   11  N   UNL     1      25.795  44.909  50.486  1.00  0.00    -0.309 N 
HETATM   12  H   UNL     1      25.581  44.522  49.575  1.00  0.00     0.170 HD
ENDROOT
BRANCH   1  13
HETATM   13  C   UNL     1      24.015  46.523  50.032  1.00  0.00     0.254 C 
BRANCH  13  14
HETATM   14  O   UNL     1      24.560  47.531  49.181  1.00  0.00    -0.344 OA
BRANCH  14  15
HETATM   15  C   UNL     1      23.729  48.597  48.963  1.00  0.00     0.071 A 
HETATM   16  C   UNL     1      24.301  49.683  48.301  1.00  0.00     0.037 A 
HETATM   17  C   UNL     1      23.533  50.809  48.014  1.00  0.00     0.005 A 
HETATM   18  C   UNL     1      22.185  50.835  48.368  1.00  0.00     0.037 A 
HETATM   19  C   UNL     1      21.595  49.739  49.002  1.00  0.00     0.070 A 
HETATM   20  C   UNL     1      22.373  48.617  49.303  1.00  0.00     0.073 A 
BRANCH  19  21
HETATM   21  O   UNL     1      20.261  49.887  49.270  1.00  0.00    -0.356 OA
HETATM   22  C   UNL     1      19.861  51.096  49.904  1.00  0.00     0.210 C 
ENDBRANCH  19  21
ENDBRANCH  14  15
ENDBRANCH  13  14
ENDBRANCH   1  13
BRANCH   4  23
HETATM   23  O   UNL     1      26.085  47.851  54.371  1.00  0.00    -0.354 OA
HETATM   24  C   UNL     1      26.402  48.495  55.597  1.00  0.00     0.210 C 
ENDBRANCH   4  23
BRANCH   6  25
HETATM   25  C   UNL     1      29.562  44.487  55.326  1.00  0.00     0.010 A 
HETATM   26  C   UNL     1      30.189  45.023  56.477  1.00  0.00     0.152 A 
HETATM   27  N   UNL     1      31.121  44.213  56.987  1.00  0.00    -0.187 NA
HETATM   28  N   UNL     1      31.094  43.151  56.168  1.00  0.00    -0.289 N 
HETATM   29  H   UNL     1      31.728  42.381  56.357  1.00  0.00     0.188 HD
HETATM   30  C   UNL     1      30.182  43.266  55.158  1.00  0.00     0.123 A 
ENDBRANCH   6  25
TORSDOF 6
ENDMDL
MODEL 5
REMARK VINA RESULT:      -8.1      3.497      5.343
REMARK  6 active torsions:
REMARK  status: ('A' for Active; 'I' for Inactive)
REMARK    1  A    between atoms: O_2  and  C_3 
REMARK    2  A    between atoms: C_7  and  O_8 
REMARK    3  A    between atoms: O_8  and  C_9 
REMARK    4  A    between atoms: C_9  and  C_10 
REMARK    5  A    between atoms: C_13  and  O_14 
REMARK    6  A    between atoms: C_17  and  C_23 
ROOT
HETATM    1  C   UNL     1      23.478  47.235  49.127  1.00  0.00     0.132 A 
HETATM    2  N   UNL     1      23.314  46.021  49.540  1.00  0.00    -0.229 NA
HETATM    3  C   UNL     1      24.304  45.450  50.370  1.00  0.00     0.108 A 
HETATM    4  C   UNL     1      24.140  44.145  50.871  1.00  0.00     0.098 A 
HETATM    5  C   UNL     1      25.139  43.570  51.674  1.00  0.00     0.051 A 
HETATM    6  C   UNL     1      26.304  44.282  52.008  1.00  0.00    -0.019 A 
HETATM    7  C   UNL     1      26.454  45.586  51.528  1.00  0.00     0.032 A 
HETATM    8  C   UNL     1      25.459  46.153  50.722  1.00  0.00     0.064 A 
HETATM    9  C   UNL     1      25.602  47.533  50.226  1.00  0.00     0.259 A 
HETATM   10  O   UNL     1      26.569  48.229  50.506  1.00  0.00    -0.267 OA
HETATM   11  N   UNL     1      24.579  47.987  49.439  1.00  0.00    -0.309 N 
HETATM   12  H   UNL     1      24.632  48.952  49.138  1.00  0.00     0.170 HD
ENDROOT
BRANCH   1  13
HETATM   13  C   UNL     1      22.463  47.898  48.216  1.00  0.00     0.254 C 
BRANCH  13  14
HETATM   14  O   UNL     1      21.208  47.889  48.896  1.00  0.00    -0.344 OA
BRANCH  14  15
HETATM   15  C   UNL     1      20.637  49.125  49.044  1.00  0.00     0.071 A 
HETATM   16  C   UNL     1      21.315  50.181  48.435  1.00  0.00     0.037 A 
HETATM   17  C   UNL     1      20.805  51.475  48.510  1.00  0.00     0.005 A 
HETATM   18  C   UNL     1      19.602  51.706  49.175  1.00  0.00     0.037 A 
HETATM   19  C   UNL     1      18.898  50.650  49.760  1.00  0.00     0.070 A 
HETATM   20  C   UNL     1      19.421  49.355  49.697  1.00  0.00     0.073 A 
BRANCH  19  21
HETATM   21  O   UNL     1      17.722  51.012  50.358  1.00  0.00    -0.356 OA
HETATM   22  C   UNL     1      16.906  51.946  49.661  1.00  0.00     0.210 C 
ENDBRANCH  19  21
ENDBRANCH  14  15
ENDBRANCH  13  14
ENDBRANCH   1  13
BRANCH   4  23
HETATM   23  O   UNL     1      22.984  43.497  50.504  1.00  0.00    -0.354 OA
HETATM   24  C   UNL     1      23.101  42.446  49.556  1.00  0.00     0.210 C 
ENDBRANCH   4  23
BRANCH   6  25
HETATM   25  C   UNL     1      27.329  43.660  52.831  1.00  0.00     0.010 A 
HETATM   26  C   UNL     1      27.722  42.305  52.956  1.00  0.00     0.152 A 
HETATM   27  N   UNL     1      28.711  42.130  53.836  1.00  0.00    -0.187 NA
HETATM   28  N   UNL     1      28.961  43.371  54.278  1.00  0.00    -0.289 N 
HETATM   29  H   UNL     1      29.693  43.498  54.970  1.00  0.00     0.188 HD
HETATM   30  C   UNL     1      28.160  44.321  53.711  1.00  0.00     0.123 A 
ENDBRANCH   6  25
TORSDOF 6
ENDMDL
MODEL 6
REMARK VINA RESULT:      -8.0      3.268      9.332
REMARK  6 active torsions:
REMARK  status: ('A' for Active; 'I' for Inactive)
REMARK    1  A    between atoms: O_2  and  C_3 
REMARK    2  A    between atoms: C_7  and  O_8 
REMARK    3  A    between atoms: O_8  and  C_9 
REMARK    4  A    between atoms: C_9  and  C_10 
REMARK    5  A    between atoms: C_13  and  O_14 
REMARK    6  A    between atoms: C_17  and  C_23 
ROOT
HETATM    1  C   UNL     1      25.416  43.911  50.692  1.00  0.00     0.132 A 
HETATM    2  N   UNL     1      25.617  45.186  50.622  1.00  0.00    -0.229 NA
HETATM    3  C   UNL     1      24.624  45.995  50.026  1.00  0.00     0.108 A 
HETATM    4  C   UNL     1      24.791  47.391  49.968  1.00  0.00     0.098 A 
HETATM    5  C   UNL     1      23.814  48.190  49.351  1.00  0.00     0.051 A 
HETATM    6  C   UNL     1      22.651  47.623  48.800  1.00  0.00    -0.019 A 
HETATM    7  C   UNL     1      22.478  46.239  48.878  1.00  0.00     0.032 A 
HETATM    8  C   UNL     1      23.457  45.445  49.488  1.00  0.00     0.064 A 
HETATM    9  C   UNL     1      23.274  43.987  49.591  1.00  0.00     0.259 A 
HETATM   10  O   UNL     1      22.271  43.425  49.168  1.00  0.00    -0.267 OA
HETATM   11  N   UNL     1      24.294  43.303  50.195  1.00  0.00    -0.309 N 
HETATM   12  H   UNL     1      24.158  42.309  50.326  1.00  0.00     0.170 HD
ENDROOT
BRANCH   1  13
HETATM   13  C   UNL     1      26.452  42.985  51.300  1.00  0.00     0.254 C 
BRANCH  13  14
HETATM   14  O   UNL     1      27.706  43.666  51.267  1.00  0.00    -0.344 OA
BRANCH  14  15
HETATM   15  C   UNL     1      28.353  43.716  52.473  1.00  0.00     0.071 A 
HETATM   16  C   UNL     1      29.494  42.922  52.580  1.00  0.00     0.037 A 
HETATM   17  C   UNL     1      30.236  42.919  53.759  1.00  0.00     0.005 A 
HETATM   18  C   UNL     1      29.845  43.731  54.823  1.00  0.00     0.037 A 
HETATM   19  C   UNL     1      28.722  44.555  54.713  1.00  0.00     0.070 A 
HETATM   20  C   UNL     1      27.971  44.543  53.534  1.00  0.00     0.073 A 
BRANCH  19  21
HETATM   21  O   UNL     1      28.467  45.318  55.821  1.00  0.00    -0.356 OA
HETATM   22  C   UNL     1      29.591  45.860  56.503  1.00  0.00     0.210 C 
ENDBRANCH  19  21
ENDBRANCH  14  15
ENDBRANCH  13  14
ENDBRANCH   1  13
BRANCH   4  23
HETATM   23  O   UNL     1      25.950  47.885  50.517  1.00  0.00    -0.354 OA
HETATM   24  C   UNL     1      26.916  48.421  49.624  1.00  0.00     0.210 C 
ENDBRANCH   4  23
BRANCH   6  25
HETATM   25  C   UNL     1      21.661  48.471  48.155  1.00  0.00     0.010 A 
HETATM   26  C   UNL     1      20.465  48.146  47.470  1.00  0.00     0.152 A 
HETATM   27  N   UNL     1      19.824  49.221  47.004  1.00  0.00    -0.187 NA
HETATM   28  N   UNL     1      20.603  50.242  47.390  1.00  0.00    -0.289 N 
HETATM   29  H   UNL     1      20.316  51.186  47.147  1.00  0.00     0.188 HD
HETATM   30  C   UNL     1      21.715  49.848  48.078  1.00  0.00     0.123 A 
ENDBRANCH   6  25
TORSDOF 6
ENDMDL
MODEL 7
REMARK VINA RESULT:      -8.0      2.134      2.855
REMARK  6 active torsions:
REMARK  status: ('A' for Active; 'I' for Inactive)
REMARK    1  A    between atoms: O_2  and  C_3 
REMARK    2  A    between atoms: C_7  and  O_8 
REMARK    3  A    between atoms: O_8  and  C_9 
REMARK    4  A    between atoms: C_9  and  C_10 
REMARK    5  A    between atoms: C_13  and  O_14 
REMARK    6  A    between atoms: C_17  and  C_23 
ROOT
HETATM    1  C   UNL     1      25.369  45.471  51.121  1.00  0.00     0.132 A 
HETATM    2  N   UNL     1      26.243  44.566  51.419  1.00  0.00    -0.229 NA
HETATM    3  C   UNL     1      27.017  44.733  52.589  1.00  0.00     0.108 A 
HETATM    4  C   UNL     1      27.950  43.749  52.966  1.00  0.00     0.098 A 
HETATM    5  C   UNL     1      28.735  43.931  54.116  1.00  0.00     0.051 A 
HETATM    6  C   UNL     1      28.597  45.076  54.919  1.00  0.00    -0.019 A 
HETATM    7  C   UNL     1      27.655  46.040  54.555  1.00  0.00     0.032 A 
HETATM    8  C   UNL     1      26.877  45.860  53.405  1.00  0.00     0.064 A 
HETATM    9  C   UNL     1      25.869  46.864  53.023  1.00  0.00     0.259 A 
HETATM   10  O   UNL     1      25.664  47.868  53.693  1.00  0.00    -0.267 OA
HETATM   11  N   UNL     1      25.172  46.596  51.877  1.00  0.00    -0.309 N 
HETATM   12  H   UNL     1      24.435  47.245  51.632  1.00  0.00     0.170 HD
ENDROOT
BRANCH   1  13
HETATM   13  C   UNL     1      24.523  45.363  49.867  1.00  0.00     0.254 C 
BRANCH  13  14
HETATM   14  O   UNL     1      24.429  46.670  49.301  1.00  0.00    -0.344 OA
BRANCH  14  15
HETATM   15  C   UNL     1      23.155  47.056  48.979  1.00  0.00     0.071 A 
HETATM   16  C   UNL     1      22.340  46.060  48.443  1.00  0.00     0.037 A 
HETATM   17  C   UNL     1      21.020  46.346  48.102  1.00  0.00     0.005 A 
HETATM   18  C   UNL     1      20.511  47.626  48.322  1.00  0.00     0.037 A 
HETATM   19  C   UNL     1      21.311  48.621  48.889  1.00  0.00     0.070 A 
HETATM   20  C   UNL     1      22.640  48.335  49.216  1.00  0.00     0.073 A 
BRANCH  19  21
HETATM   21  O   UNL     1      20.679  49.822  49.074  1.00  0.00    -0.356 OA
HETATM   22  C   UNL     1      21.471  50.995  48.936  1.00  0.00     0.210 C 
ENDBRANCH  19  21
ENDBRANCH  14  15
ENDBRANCH  13  14
ENDBRANCH   1  13
BRANCH   4  23
HETATM   23  O   UNL     1      28.044  42.657  52.137  1.00  0.00    -0.354 OA
HETATM   24  C   UNL     1      28.562  41.458  52.698  1.00  0.00     0.210 C 
ENDBRANCH   4  23
BRANCH   6  25
HETATM   25  C   UNL     1      29.433  45.245  56.098  1.00  0.00     0.010 A 
HETATM   26  C   UNL     1      30.722  44.744  56.402  1.00  0.00     0.152 A 
HETATM   27  N   UNL     1      31.155  45.119  57.608  1.00  0.00    -0.187 NA
HETATM   28  N   UNL     1      30.147  45.866  58.084  1.00  0.00    -0.289 N 
HETATM   29  H   UNL     1      30.246  46.275  59.009  1.00  0.00     0.188 HD
HETATM   30  C   UNL     1      29.094  45.970  57.222  1.00  0.00     0.123 A 
ENDBRANCH   6  25
TORSDOF 6
ENDMDL
MODEL 8
REMARK VINA RESULT:      -7.9      5.554      9.801
REMARK  6 active torsions:
REMARK  status: ('A' for Active; 'I' for Inactive)
REMARK    1  A    between atoms: O_2  and  C_3 
REMARK    2  A    between atoms: C_7  and  O_8 
REMARK    3  A    between atoms: O_8  and  C_9 
REMARK    4  A    between atoms: C_9  and  C_10 
REMARK    5  A    between atoms: C_13  and  O_14 
REMARK    6  A    between atoms: C_17  and  C_23 
ROOT
HETATM    1  C   UNL     1      28.753  40.371  51.704  1.00  0.00     0.132 A 
HETATM    2  N   UNL     1      28.197  40.817  50.626  1.00  0.00    -0.229 NA
HETATM    3  C   UNL     1      28.265  40.030  49.454  1.00  0.00     0.108 A 
HETATM    4  C   UNL     1      27.637  40.466  48.273  1.00  0.00     0.098 A 
HETATM    5  C   UNL     1      27.728  39.694  47.103  1.00  0.00     0.051 A 
HETATM    6  C   UNL     1      28.425  38.473  47.089  1.00  0.00    -0.019 A 
HETATM    7  C   UNL     1      29.029  38.032  48.269  1.00  0.00     0.032 A 
HETATM    8  C   UNL     1      28.941  38.807  49.432  1.00  0.00     0.064 A 
HETATM    9  C   UNL     1      29.560  38.341  50.685  1.00  0.00     0.259 A 
HETATM   10  O   UNL     1      30.151  37.271  50.761  1.00  0.00    -0.267 OA
HETATM   11  N   UNL     1      29.425  39.178  51.759  1.00  0.00    -0.309 N 
HETATM   12  H   UNL     1      29.793  38.847  52.641  1.00  0.00     0.170 HD
ENDROOT
BRANCH   1  13
HETATM   13  C   UNL     1      28.736  41.177  52.988  1.00  0.00     0.254 C 
BRANCH  13  14
HETATM   14  O   UNL     1      28.938  42.545  52.637  1.00  0.00    -0.344 OA
BRANCH  14  15
HETATM   15  C   UNL     1      29.225  43.364  53.697  1.00  0.00     0.071 A 
HETATM   16  C   UNL     1      30.353  43.018  54.439  1.00  0.00     0.037 A 
HETATM   17  C   UNL     1      30.743  43.799  55.525  1.00  0.00     0.005 A 
HETATM   18  C   UNL     1      30.013  44.942  55.851  1.00  0.00     0.037 A 
HETATM   19  C   UNL     1      28.900  45.315  55.093  1.00  0.00     0.070 A 
HETATM   20  C   UNL     1      28.504  44.520  54.013  1.00  0.00     0.073 A 
BRANCH  19  21
HETATM   21  O   UNL     1      28.293  46.470  55.506  1.00  0.00    -0.356 OA
HETATM   22  C   UNL     1      27.149  46.894  54.775  1.00  0.00     0.210 C 
ENDBRANCH  19  21
ENDBRANCH  14  15
ENDBRANCH  13  14
ENDBRANCH   1  13
BRANCH   4  23
HETATM   23  O   UNL     1      26.977  41.670  48.347  1.00  0.00    -0.354 OA
HETATM   24  C   UNL     1      25.558  41.638  48.296  1.00  0.00     0.210 C 
ENDBRANCH   4  23
BRANCH   6  25
HETATM   25  C   UNL     1      28.515  37.699  45.861  1.00  0.00     0.010 A 
HETATM   26  C   UNL     1      29.505  36.794  45.405  1.00  0.00     0.152 A 
HETATM   27  N   UNL     1      29.229  36.284  44.202  1.00  0.00    -0.187 NA
HETATM   28  N   UNL     1      28.059  36.856  43.881  1.00  0.00    -0.289 N 
HETATM   29  H   UNL     1      27.635  36.617  42.989  1.00  0.00     0.188 HD
HETATM   30  C   UNL     1      27.591  37.711  44.837  1.00  0.00     0.123 A 
ENDBRANCH   6  25
TORSDOF 6
ENDMDL
MODEL 9
REMARK VINA RESULT:      -7.9      3.747      9.492
REMARK  6 active torsions:
REMARK  status: ('A' for Active; 'I' for Inactive)
REMARK    1  A    between atoms: O_2  and  C_3 
REMARK    2  A    between atoms: C_7  and  O_8 
REMARK    3  A    between atoms: O_8  and  C_9 
REMARK    4  A    between atoms: C_9  and  C_10 
REMARK    5  A    between atoms: C_13  and  O_14 
REMARK    6  A    between atoms: C_17  and  C_23 
ROOT
HETATM    1  C   UNL     1      25.929  44.773  51.631  1.00  0.00     0.132 A 
HETATM    2  N   UNL     1      24.968  44.085  51.107  1.00  0.00    -0.229 NA
HETATM    3  C   UNL     1      24.066  44.738  50.238  1.00  0.00     0.108 A 
HETATM    4  C   UNL     1      23.031  44.013  49.619  1.00  0.00     0.098 A 
HETATM    5  C   UNL     1      22.120  44.671  48.776  1.00  0.00     0.051 A 
HETATM    6  C   UNL     1      22.229  46.048  48.519  1.00  0.00    -0.019 A 
HETATM    7  C   UNL     1      23.270  46.761  49.119  1.00  0.00     0.032 A 
HETATM    8  C   UNL     1      24.173  46.105  49.963  1.00  0.00     0.064 A 
HETATM    9  C   UNL     1      25.284  46.845  50.584  1.00  0.00     0.259 A 
HETATM   10  O   UNL     1      25.467  48.039  50.379  1.00  0.00    -0.267 OA
HETATM   11  N   UNL     1      26.102  46.112  51.400  1.00  0.00    -0.309 N 
HETATM   12  H   UNL     1      26.904  46.591  51.788  1.00  0.00     0.170 HD
ENDROOT
BRANCH   1  13
HETATM   13  C   UNL     1      26.918  44.137  52.589  1.00  0.00     0.254 C 
BRANCH  13  14
HETATM   14  O   UNL     1      27.324  45.144  53.515  1.00  0.00    -0.344 OA
BRANCH  14  15
HETATM   15  C   UNL     1      28.400  44.798  54.290  1.00  0.00     0.071 A 
HETATM   16  C   UNL     1      29.081  43.646  53.898  1.00  0.00     0.037 A 
HETATM   17  C   UNL     1      30.202  43.222  54.607  1.00  0.00     0.005 A 
HETATM   18  C   UNL     1      30.654  43.967  55.696  1.00  0.00     0.037 A 
HETATM   19  C   UNL     1      29.997  45.141  56.076  1.00  0.00     0.070 A 
HETATM   20  C   UNL     1      28.863  45.555  55.371  1.00  0.00     0.073 A 
BRANCH  19  21
HETATM   21  O   UNL     1      30.560  45.787  57.143  1.00  0.00    -0.356 OA
HETATM   22  C   UNL     1      30.942  44.986  58.254  1.00  0.00     0.210 C 
ENDBRANCH  19  21
ENDBRANCH  14  15
ENDBRANCH  13  14
ENDBRANCH   1  13
BRANCH   4  23
HETATM   23  O   UNL     1      22.972  42.672  49.914  1.00  0.00    -0.354 OA
HETATM   24  C   UNL     1      23.087  41.762  48.828  1.00  0.00     0.210 C 
ENDBRANCH   4  23
BRANCH   6  25
HETATM   25  C   UNL     1      21.264  46.708  47.653  1.00  0.00     0.010 A 
HETATM   26  C   UNL     1      20.598  46.253  46.489  1.00  0.00     0.152 A 
HETATM   27  N   UNL     1      19.783  47.170  45.964  1.00  0.00    -0.187 NA
HETATM   28  N   UNL     1      19.917  48.218  46.790  1.00  0.00    -0.289 N 
HETATM   29  H   UNL     1      19.381  49.058  46.593  1.00  0.00     0.188 HD
HETATM   30  C   UNL     1      20.793  47.995  47.814  1.00  0.00     0.123 A 
ENDBRANCH   6  25
TORSDOF 6
ENDMDL
MODEL 10
REMARK VINA RESULT:      -7.8      3.290      4.131
REMARK  6 active torsions:
REMARK  status: ('A' for Active; 'I' for Inactive)
REMARK    1  A    between atoms: O_2  and  C_3 
REMARK    2  A    between atoms: C_7  and  O_8 
REMARK    3  A    between atoms: O_8  and  C_9 
REMARK    4  A    between atoms: C_9  and  C_10 
REMARK    5  A    between atoms: C_13  and  O_14 
REMARK    6  A    between atoms: C_17  and  C_23 
ROOT
HETATM    1  C   UNL     1      24.605  44.690  50.674  1.00  0.00     0.132 A 
HETATM    2  N   UNL     1      25.427  43.770  51.062  1.00  0.00    -0.229 NA
HETATM    3  C   UNL     1      26.314  44.061  52.122  1.00  0.00     0.108 A 
HETATM    4  C   UNL     1      27.196  43.072  52.597  1.00  0.00     0.098 A 
HETATM    5  C   UNL     1      28.095  43.372  53.633  1.00  0.00     0.051 A 
HETATM    6  C   UNL     1      28.123  44.646  54.226  1.00  0.00    -0.019 A 
HETATM    7  C   UNL     1      27.232  45.619  53.767  1.00  0.00     0.032 A 
HETATM    8  C   UNL     1      26.341  45.319  52.730  1.00  0.00     0.064 A 
HETATM    9  C   UNL     1      25.387  46.334  52.252  1.00  0.00     0.259 A 
HETATM   10  O   UNL     1      25.326  47.454  52.745  1.00  0.00    -0.267 OA
HETATM   11  N   UNL     1      24.568  45.941  51.228  1.00  0.00    -0.309 N 
HETATM   12  H   UNL     1      23.867  46.606  50.928  1.00  0.00     0.170 HD
ENDROOT
BRANCH   1  13
HETATM   13  C   UNL     1      23.642  44.449  49.527  1.00  0.00     0.254 C 
BRANCH  13  14
HETATM   14  O   UNL     1      23.443  45.698  48.866  1.00  0.00    -0.344 OA
BRANCH  14  15
HETATM   15  C   UNL     1      22.140  45.963  48.537  1.00  0.00     0.071 A 
HETATM   16  C   UNL     1      21.831  47.306  48.326  1.00  0.00     0.037 A 
HETATM   17  C   UNL     1      20.538  47.677  47.967  1.00  0.00     0.005 A 
HETATM   18  C   UNL     1      19.560  46.698  47.794  1.00  0.00     0.037 A 
HETATM   19  C   UNL     1      19.869  45.347  47.971  1.00  0.00     0.070 A 
HETATM   20  C   UNL     1      21.164  44.979  48.347  1.00  0.00     0.073 A 
BRANCH  19  21
HETATM   21  O   UNL     1      18.825  44.491  47.746  1.00  0.00    -0.356 OA
HETATM   22  C   UNL     1      17.783  44.955  46.897  1.00  0.00     0.210 C 
ENDBRANCH  19  21
ENDBRANCH  14  15
ENDBRANCH  13  14
ENDBRANCH   1  13
BRANCH   4  23
HETATM   23  O   UNL     1      27.125  41.849  51.973  1.00  0.00    -0.354 OA
HETATM   24  C   UNL     1      28.338  41.305  51.470  1.00  0.00     0.210 C 
ENDBRANCH   4  23
BRANCH   6  25
HETATM   25  C   UNL     1      29.074  44.935  55.289  1.00  0.00     0.010 A 
HETATM   26  C   UNL     1      30.259  44.267  55.681  1.00  0.00     0.152 A 
HETATM   27  N   UNL     1      30.859  44.843  56.726  1.00  0.00    -0.187 NA
HETATM   28  N   UNL     1      30.065  45.886  57.007  1.00  0.00    -0.289 N 
HETATM   29  H   UNL     1      30.322  46.492  57.781  1.00  0.00     0.188 HD
HETATM   30  C   UNL     1      28.983  45.985  56.180  1.00  0.00     0.123 A 
ENDBRANCH   6  25
TORSDOF 6
ENDMDL
