MODEL 1
REMARK VINA RESULT:      -9.4      0.000      0.000
REMARK  6 active torsions:
REMARK  status: ('A' for Active; 'I' for Inactive)
REMARK    1  A    between atoms: C_8  and  C_9 
REMARK    2  A    between atoms: C_9  and  C_10 
REMARK    3  A    between atoms: C_10  and  N_11 
REMARK    4  A    between atoms: C_10  and  C_19 
REMARK       I    between atoms: N_11  and  C_12 
REMARK    5  A    between atoms: C_12  and  C_13 
REMARK       I    between atoms: C_19  and  N_20 
REMARK    6  A    between atoms: N_20  and  C_21 
ROOT
HETATM    1  C   UNL     1      26.264  45.222  52.183  1.00  0.00     0.181 C 
ENDROOT
BRANCH   1   2
HETATM    2  C   UNL     1      26.042  45.036  53.698  1.00  0.00     0.075 C 
BRANCH   2   3
HETATM    3  C   UNL     1      27.240  45.418  54.519  1.00  0.00    -0.028 A 
HETATM    4  C   UNL     1      28.410  44.631  54.779  1.00  0.00    -0.002 A 
HETATM    5  C   UNL     1      28.838  43.340  54.405  1.00  0.00     0.014 A 
HETATM    6  C   UNL     1      29.251  45.392  55.592  1.00  0.00     0.042 A 
HETATM    7  C   UNL     1      30.066  42.854  54.870  1.00  0.00     0.001 A 
HETATM    8  C   UNL     1      30.876  43.637  55.686  1.00  0.00     0.002 A 
HETATM    9  C   UNL     1      30.486  44.926  56.058  1.00  0.00     0.030 A 
HETATM   10  N   UNL     1      28.629  46.599  55.803  1.00  0.00    -0.365 N 
HETATM   11  H   UNL     1      29.018  47.354  56.351  1.00  0.00     0.165 HD
HETATM   12  C   UNL     1      27.420  46.627  55.165  1.00  0.00     0.096 A 
ENDBRANCH   2   3
ENDBRANCH   1   2
BRANCH   1  13
HETATM   13  N   UNL     1      25.607  44.198  51.360  1.00  0.00    -0.343 N 
HETATM   14  C   UNL     1      26.098  43.716  50.168  1.00  0.00     0.259 C 
HETATM   15  O   UNL     1      27.186  44.102  49.740  1.00  0.00    -0.267 OA
HETATM   16  H   UNL     1      24.753  43.788  51.717  1.00  0.00     0.163 HD
BRANCH  14  17
HETATM   17  C   UNL     1      25.271  42.734  49.482  1.00  0.00     0.072 A 
HETATM   18  S   UNL     1      23.558  42.841  49.446  1.00  0.00    -0.097 SA
HETATM   19  C   UNL     1      23.415  41.421  48.508  1.00  0.00     0.050 A 
HETATM   20  C   UNL     1      24.642  40.866  48.222  1.00  0.00     0.009 A 
HETATM   21  C   UNL     1      25.711  41.624  48.785  1.00  0.00     0.025 A 
ENDBRANCH  14  17
ENDBRANCH   1  13
BRANCH   1  22
HETATM   22  C   UNL     1      25.875  46.632  51.685  1.00  0.00     0.245 C 
HETATM   23  N   UNL     1      26.266  46.905  50.387  1.00  0.00    -0.324 N 
HETATM   24  H   UNL     1      26.901  46.231  49.955  1.00  0.00     0.169 HD
HETATM   25  O   UNL     1      25.286  47.418  52.425  1.00  0.00    -0.271 OA
BRANCH  23  26
HETATM   26  C   UNL     1      25.918  48.025  49.609  1.00  0.00     0.052 A 
HETATM   27  C   UNL     1      24.625  48.358  49.213  1.00  0.00     0.145 A 
HETATM   28  N   UNL     1      24.322  49.422  48.422  1.00  0.00    -0.271 NA
HETATM   29  C   UNL     1      25.352  50.189  48.012  1.00  0.00     0.116 A 
HETATM   30  C   UNL     1      26.672  49.947  48.353  1.00  0.00     0.021 A 
HETATM   31  C   UNL     1      26.954  48.848  49.163  1.00  0.00     0.032 A 
ENDBRANCH  23  26
ENDBRANCH   1  22
TORSDOF 6
ENDMDL
MODEL 2
REMARK VINA RESULT:      -9.2      2.715      5.812
REMARK  6 active torsions:
REMARK  status: ('A' for Active; 'I' for Inactive)
REMARK    1  A    between atoms: C_8  and  C_9 
REMARK    2  A    between atoms: C_9  and  C_10 
REMARK    3  A    between atoms: C_10  and  N_11 
REMARK    4  A    between atoms: C_10  and  C_19 
REMARK       I    between atoms: N_11  and  C_12 
REMARK    5  A    between atoms: C_12  and  C_13 
REMARK       I    between atoms: C_19  and  N_20 
REMARK    6  A    between atoms: N_20  and  C_21 
ROOT
HETATM    1  C   UNL     1      27.616  43.226  53.086  1.00  0.00     0.181 C 
ENDROOT
BRANCH   1   2
HETATM    2  C   UNL     1      29.013  43.824  53.348  1.00  0.00     0.075 C 
BRANCH   2   3
HETATM    3  C   UNL     1      29.071  44.659  54.594  1.00  0.00    -0.028 A 
HETATM    4  C   UNL     1      29.945  44.493  55.719  1.00  0.00    -0.002 A 
HETATM    5  C   UNL     1      30.970  43.584  56.051  1.00  0.00     0.014 A 
HETATM    6  C   UNL     1      29.633  45.496  56.639  1.00  0.00     0.042 A 
HETATM    7  C   UNL     1      31.625  43.695  57.284  1.00  0.00     0.001 A 
HETATM    8  C   UNL     1      31.284  44.703  58.180  1.00  0.00     0.002 A 
HETATM    9  C   UNL     1      30.284  45.628  57.872  1.00  0.00     0.030 A 
HETATM   10  N   UNL     1      28.626  46.253  56.089  1.00  0.00    -0.365 N 
HETATM   11  H   UNL     1      28.209  47.058  56.535  1.00  0.00     0.165 HD
HETATM   12  C   UNL     1      28.279  45.759  54.862  1.00  0.00     0.096 A 
ENDBRANCH   2   3
ENDBRANCH   1   2
BRANCH   1  13
HETATM   13  N   UNL     1      26.809  44.002  52.135  1.00  0.00    -0.343 N 
HETATM   14  C   UNL     1      25.527  44.443  52.370  1.00  0.00     0.259 C 
HETATM   15  O   UNL     1      24.989  44.241  53.459  1.00  0.00    -0.267 OA
HETATM   16  H   UNL     1      27.244  44.268  51.260  1.00  0.00     0.163 HD
BRANCH  14  17
HETATM   17  C   UNL     1      24.882  45.159  51.279  1.00  0.00     0.072 A 
HETATM   18  S   UNL     1      23.922  44.363  50.101  1.00  0.00    -0.097 SA
HETATM   19  C   UNL     1      23.584  45.823  49.282  1.00  0.00     0.050 A 
HETATM   20  C   UNL     1      24.185  46.904  49.887  1.00  0.00     0.009 A 
HETATM   21  C   UNL     1      24.934  46.520  51.038  1.00  0.00     0.025 A 
ENDBRANCH  14  17
ENDBRANCH   1  13
BRANCH   1  22
HETATM   22  C   UNL     1      27.667  41.744  52.652  1.00  0.00     0.245 C 
HETATM   23  N   UNL     1      27.422  41.537  51.306  1.00  0.00    -0.324 N 
HETATM   24  H   UNL     1      27.077  42.343  50.780  1.00  0.00     0.169 HD
HETATM   25  O   UNL     1      27.889  40.857  53.473  1.00  0.00    -0.271 OA
BRANCH  23  26
HETATM   26  C   UNL     1      27.561  40.333  50.589  1.00  0.00     0.052 A 
HETATM   27  C   UNL     1      26.520  39.632  49.987  1.00  0.00     0.145 A 
HETATM   28  N   UNL     1      26.676  38.446  49.340  1.00  0.00    -0.271 NA
HETATM   29  C   UNL     1      27.925  37.940  49.287  1.00  0.00     0.116 A 
HETATM   30  C   UNL     1      29.027  38.561  49.849  1.00  0.00     0.021 A 
HETATM   31  C   UNL     1      28.838  39.774  50.508  1.00  0.00     0.032 A 
ENDBRANCH  23  26
ENDBRANCH   1  22
TORSDOF 6
ENDMDL
MODEL 3
REMARK VINA RESULT:      -8.9      2.754      5.013
REMARK  6 active torsions:
REMARK  status: ('A' for Active; 'I' for Inactive)
REMARK    1  A    between atoms: C_8  and  C_9 
REMARK    2  A    between atoms: C_9  and  C_10 
REMARK    3  A    between atoms: C_10  and  N_11 
REMARK    4  A    between atoms: C_10  and  C_19 
REMARK       I    between atoms: N_11  and  C_12 
REMARK    5  A    between atoms: C_12  and  C_13 
REMARK       I    between atoms: C_19  and  N_20 
REMARK    6  A    between atoms: N_20  and  C_21 
ROOT
HETATM    1  C   UNL     1      24.947  44.763  50.544  1.00  0.00     0.181 C 
ENDROOT
BRANCH   1   2
HETATM    2  C   UNL     1      25.912  43.834  49.779  1.00  0.00     0.075 C 
BRANCH   2   3
HETATM    3  C   UNL     1      26.402  42.683  50.609  1.00  0.00    -0.028 A 
HETATM    4  C   UNL     1      27.544  42.653  51.476  1.00  0.00    -0.002 A 
HETATM    5  C   UNL     1      28.534  43.588  51.843  1.00  0.00     0.014 A 
HETATM    6  C   UNL     1      27.610  41.375  52.032  1.00  0.00     0.042 A 
HETATM    7  C   UNL     1      29.554  43.210  52.724  1.00  0.00     0.001 A 
HETATM    8  C   UNL     1      29.594  41.924  53.254  1.00  0.00     0.002 A 
HETATM    9  C   UNL     1      28.617  40.982  52.922  1.00  0.00     0.030 A 
HETATM   10  N   UNL     1      26.543  40.662  51.540  1.00  0.00    -0.365 N 
HETATM   11  H   UNL     1      26.336  39.703  51.783  1.00  0.00     0.165 HD
HETATM   12  C   UNL     1      25.811  41.436  50.683  1.00  0.00     0.096 A 
ENDBRANCH   2   3
ENDBRANCH   1   2
BRANCH   1  13
HETATM   13  N   UNL     1      25.589  45.525  51.622  1.00  0.00    -0.343 N 
HETATM   14  C   UNL     1      25.438  45.266  52.965  1.00  0.00     0.259 C 
HETATM   15  O   UNL     1      24.764  44.307  53.342  1.00  0.00    -0.267 OA
HETATM   16  H   UNL     1      26.224  46.268  51.356  1.00  0.00     0.163 HD
BRANCH  14  17
HETATM   17  C   UNL     1      26.126  46.168  53.876  1.00  0.00     0.072 A 
HETATM   18  S   UNL     1      27.450  45.662  54.843  1.00  0.00    -0.097 SA
HETATM   19  C   UNL     1      27.633  47.213  55.536  1.00  0.00     0.050 A 
HETATM   20  C   UNL     1      26.708  48.108  55.047  1.00  0.00     0.009 A 
HETATM   21  C   UNL     1      25.839  47.504  54.091  1.00  0.00     0.025 A 
ENDBRANCH  14  17
ENDBRANCH   1  13
BRANCH   1  22
HETATM   22  C   UNL     1      24.165  45.717  49.613  1.00  0.00     0.245 C 
HETATM   23  N   UNL     1      24.110  47.026  50.058  1.00  0.00    -0.324 N 
HETATM   24  H   UNL     1      24.438  47.194  51.011  1.00  0.00     0.169 HD
HETATM   25  O   UNL     1      23.636  45.298  48.586  1.00  0.00    -0.271 OA
BRANCH  23  26
HETATM   26  C   UNL     1      23.620  48.145  49.357  1.00  0.00     0.052 A 
HETATM   27  C   UNL     1      22.279  48.398  49.084  1.00  0.00     0.145 A 
HETATM   28  N   UNL     1      21.837  49.463  48.365  1.00  0.00    -0.271 NA
HETATM   29  C   UNL     1      22.773  50.317  47.902  1.00  0.00     0.116 A 
HETATM   30  C   UNL     1      24.130  50.158  48.122  1.00  0.00     0.021 A 
HETATM   31  C   UNL     1      24.555  49.055  48.861  1.00  0.00     0.032 A 
ENDBRANCH  23  26
ENDBRANCH   1  22
TORSDOF 6
ENDMDL
MODEL 4
REMARK VINA RESULT:      -8.8      2.498      3.038
REMARK  6 active torsions:
REMARK  status: ('A' for Active; 'I' for Inactive)
REMARK    1  A    between atoms: C_8  and  C_9 
REMARK    2  A    between atoms: C_9  and  C_10 
REMARK    3  A    between atoms: C_10  and  N_11 
REMARK    4  A    between atoms: C_10  and  C_19 
REMARK       I    between atoms: N_11  and  C_12 
REMARK    5  A    between atoms: C_12  and  C_13 
REMARK       I    between atoms: C_19  and  N_20 
REMARK    6  A    between atoms: N_20  and  C_21 
ROOT
HETATM    1  C   UNL     1      27.367  43.449  51.443  1.00  0.00     0.181 C 
ENDROOT
BRANCH   1   2
HETATM    2  C   UNL     1      26.760  43.496  52.861  1.00  0.00     0.075 C 
BRANCH   2   3
HETATM    3  C   UNL     1      27.456  44.469  53.766  1.00  0.00    -0.028 A 
HETATM    4  C   UNL     1      28.665  44.263  54.511  1.00  0.00    -0.002 A 
HETATM    5  C   UNL     1      29.563  43.187  54.660  1.00  0.00     0.014 A 
HETATM    6  C   UNL     1      28.927  45.440  55.213  1.00  0.00     0.042 A 
HETATM    7  C   UNL     1      30.666  43.316  55.513  1.00  0.00     0.001 A 
HETATM    8  C   UNL     1      30.893  44.502  56.205  1.00  0.00     0.002 A 
HETATM    9  C   UNL     1      30.030  45.591  56.063  1.00  0.00     0.030 A 
HETATM   10  N   UNL     1      27.931  46.333  54.896  1.00  0.00    -0.365 N 
HETATM   11  H   UNL     1      27.875  47.276  55.255  1.00  0.00     0.165 HD
HETATM   12  C   UNL     1      27.041  45.762  54.029  1.00  0.00     0.096 A 
ENDBRANCH   2   3
ENDBRANCH   1   2
BRANCH   1  13
HETATM   13  N   UNL     1      27.342  42.114  50.833  1.00  0.00    -0.343 N 
HETATM   14  C   UNL     1      28.229  41.102  51.122  1.00  0.00     0.259 C 
HETATM   15  O   UNL     1      29.096  41.261  51.983  1.00  0.00    -0.267 OA
HETATM   16  H   UNL     1      26.592  41.909  50.184  1.00  0.00     0.163 HD
BRANCH  14  17
HETATM   17  C   UNL     1      28.062  39.865  50.374  1.00  0.00     0.072 A 
HETATM   18  S   UNL     1      26.636  39.517  49.485  1.00  0.00    -0.097 SA
HETATM   19  C   UNL     1      27.243  38.008  48.961  1.00  0.00     0.050 A 
HETATM   20  C   UNL     1      28.507  37.764  49.448  1.00  0.00     0.009 A 
HETATM   21  C   UNL     1      28.978  38.835  50.263  1.00  0.00     0.025 A 
ENDBRANCH  14  17
ENDBRANCH   1  13
BRANCH   1  22
HETATM   22  C   UNL     1      26.735  44.482  50.483  1.00  0.00     0.245 C 
HETATM   23  N   UNL     1      25.382  44.692  50.684  1.00  0.00    -0.324 N 
HETATM   24  H   UNL     1      24.913  44.041  51.317  1.00  0.00     0.169 HD
HETATM   25  O   UNL     1      27.413  45.029  49.616  1.00  0.00    -0.271 OA
BRANCH  23  26
HETATM   26  C   UNL     1      24.574  45.678  50.087  1.00  0.00     0.052 A 
HETATM   27  C   UNL     1      23.624  45.447  49.097  1.00  0.00     0.145 A 
HETATM   28  N   UNL     1      22.889  46.426  48.504  1.00  0.00    -0.271 NA
HETATM   29  C   UNL     1      23.109  47.690  48.921  1.00  0.00     0.116 A 
HETATM   30  C   UNL     1      24.027  48.024  49.901  1.00  0.00     0.021 A 
HETATM   31  C   UNL     1      24.767  47.001  50.490  1.00  0.00     0.032 A 
ENDBRANCH  23  26
ENDBRANCH   1  22
TORSDOF 6
ENDMDL
MODEL 5
REMARK VINA RESULT:      -8.7      2.885      6.970
REMARK  6 active torsions:
REMARK  status: ('A' for Active; 'I' for Inactive)
REMARK    1  A    between atoms: C_8  and  C_9 
REMARK    2  A    between atoms: C_9  and  C_10 
REMARK    3  A    between atoms: C_10  and  N_11 
REMARK    4  A    between atoms: C_10  and  C_19 
REMARK       I    between atoms: N_11  and  C_12 
REMARK    5  A    between atoms: C_12  and  C_13 
REMARK       I    between atoms: C_19  and  N_20 
REMARK    6  A    between atoms: N_20  and  C_21 
ROOT
HETATM    1  C   UNL     1      27.204  43.178  51.613  1.00  0.00     0.181 C 
ENDROOT
BRANCH   1   2
HETATM    2  C   UNL     1      27.360  44.453  50.757  1.00  0.00     0.075 C 
BRANCH   2   3
HETATM    3  C   UNL     1      26.059  45.160  50.514  1.00  0.00    -0.028 A 
HETATM    4  C   UNL     1      25.865  46.489  50.011  1.00  0.00    -0.002 A 
HETATM    5  C   UNL     1      26.726  47.525  49.596  1.00  0.00     0.014 A 
HETATM    6  C   UNL     1      24.489  46.717  49.958  1.00  0.00     0.042 A 
HETATM    7  C   UNL     1      26.189  48.746  49.170  1.00  0.00     0.001 A 
HETATM    8  C   UNL     1      24.812  48.943  49.138  1.00  0.00     0.002 A 
HETATM    9  C   UNL     1      23.934  47.928  49.526  1.00  0.00     0.030 A 
HETATM   10  N   UNL     1      23.870  45.570  50.393  1.00  0.00    -0.365 N 
HETATM   11  H   UNL     1      22.868  45.448  50.450  1.00  0.00     0.165 HD
HETATM   12  C   UNL     1      24.801  44.628  50.732  1.00  0.00     0.096 A 
ENDBRANCH   2   3
ENDBRANCH   1   2
BRANCH   1  13
HETATM   13  N   UNL     1      27.958  42.027  51.102  1.00  0.00    -0.343 N 
HETATM   14  C   UNL     1      27.403  40.817  50.754  1.00  0.00     0.259 C 
HETATM   15  O   UNL     1      26.184  40.651  50.811  1.00  0.00    -0.267 OA
HETATM   16  H   UNL     1      28.953  42.147  50.955  1.00  0.00     0.163 HD
BRANCH  14  17
HETATM   17  C   UNL     1      28.331  39.786  50.311  1.00  0.00     0.072 A 
HETATM   18  S   UNL     1      28.480  39.334  48.663  1.00  0.00    -0.097 SA
HETATM   19  C   UNL     1      29.685  38.175  49.013  1.00  0.00     0.050 A 
HETATM   20  C   UNL     1      29.977  38.125  50.358  1.00  0.00     0.009 A 
HETATM   21  C   UNL     1      29.194  39.054  51.105  1.00  0.00     0.025 A 
ENDBRANCH  14  17
ENDBRANCH   1  13
BRANCH   1  22
HETATM   22  C   UNL     1      27.536  43.410  53.105  1.00  0.00     0.245 C 
HETATM   23  N   UNL     1      28.860  43.729  53.349  1.00  0.00    -0.324 N 
HETATM   24  H   UNL     1      29.504  43.619  52.563  1.00  0.00     0.169 HD
HETATM   25  O   UNL     1      26.668  43.289  53.967  1.00  0.00    -0.271 OA
BRANCH  23  26
HETATM   26  C   UNL     1      29.424  44.153  54.567  1.00  0.00     0.052 A 
HETATM   27  C   UNL     1      29.102  45.330  55.237  1.00  0.00     0.145 A 
HETATM   28  N   UNL     1      29.697  45.737  56.390  1.00  0.00    -0.271 NA
HETATM   29  C   UNL     1      30.650  44.932  56.901  1.00  0.00     0.116 A 
HETATM   30  C   UNL     1      31.040  43.739  56.316  1.00  0.00     0.021 A 
HETATM   31  C   UNL     1      30.415  43.348  55.133  1.00  0.00     0.032 A 
ENDBRANCH  23  26
ENDBRANCH   1  22
TORSDOF 6
ENDMDL
MODEL 6
REMARK VINA RESULT:      -8.4      3.277      6.410
REMARK  6 active torsions:
REMARK  status: ('A' for Active; 'I' for Inactive)
REMARK    1  A    between atoms: C_8  and  C_9 
REMARK    2  A    between atoms: C_9  and  C_10 
REMARK    3  A    between atoms: C_10  and  N_11 
REMARK    4  A    between atoms: C_10  and  C_19 
REMARK       I    between atoms: N_11  and  C_12 
REMARK    5  A    between atoms: C_12  and  C_13 
REMARK       I    between atoms: C_19  and  N_20 
REMARK    6  A    between atoms: N_20  and  C_21 
ROOT
HETATM    1  C   UNL     1      26.758  43.179  51.808  1.00  0.00     0.181 C 
ENDROOT
BRANCH   1   2
HETATM    2  C   UNL     1      27.346  42.686  50.469  1.00  0.00     0.075 C 
BRANCH   2   3
HETATM    3  C   UNL     1      27.966  41.323  50.567  1.00  0.00    -0.028 A 
HETATM    4  C   UNL     1      28.150  40.367  49.514  1.00  0.00    -0.002 A 
HETATM    5  C   UNL     1      27.854  40.343  48.135  1.00  0.00     0.014 A 
HETATM    6  C   UNL     1      28.761  39.244  50.073  1.00  0.00     0.042 A 
HETATM    7  C   UNL     1      28.154  39.203  47.380  1.00  0.00     0.001 A 
HETATM    8  C   UNL     1      28.757  38.098  47.972  1.00  0.00     0.002 A 
HETATM    9  C   UNL     1      29.078  38.099  49.331  1.00  0.00     0.030 A 
HETATM   10  N   UNL     1      28.958  39.511  51.407  1.00  0.00    -0.365 N 
HETATM   11  H   UNL     1      29.395  38.873  52.059  1.00  0.00     0.165 HD
HETATM   12  C   UNL     1      28.484  40.755  51.716  1.00  0.00     0.096 A 
ENDBRANCH   2   3
ENDBRANCH   1   2
BRANCH   1  13
HETATM   13  N   UNL     1      27.763  43.717  52.733  1.00  0.00    -0.343 N 
HETATM   14  C   UNL     1      27.804  43.459  54.084  1.00  0.00     0.259 C 
HETATM   15  O   UNL     1      26.992  42.689  54.596  1.00  0.00    -0.267 OA
HETATM   16  H   UNL     1      28.504  44.285  52.340  1.00  0.00     0.163 HD
BRANCH  14  17
HETATM   17  C   UNL     1      28.857  44.127  54.835  1.00  0.00     0.072 A 
HETATM   18  S   UNL     1      28.675  45.719  55.452  1.00  0.00    -0.097 SA
HETATM   19  C   UNL     1      30.239  45.710  56.139  1.00  0.00     0.050 A 
HETATM   20  C   UNL     1      30.896  44.522  55.910  1.00  0.00     0.009 A 
HETATM   21  C   UNL     1      30.099  43.611  55.157  1.00  0.00     0.025 A 
ENDBRANCH  14  17
ENDBRANCH   1  13
BRANCH   1  22
HETATM   22  C   UNL     1      25.610  44.197  51.622  1.00  0.00     0.245 C 
HETATM   23  N   UNL     1      25.837  45.136  50.632  1.00  0.00    -0.324 N 
HETATM   24  H   UNL     1      26.783  45.167  50.247  1.00  0.00     0.169 HD
HETATM   25  O   UNL     1      24.607  44.148  52.332  1.00  0.00    -0.271 OA
BRANCH  23  26
HETATM   26  C   UNL     1      24.921  46.076  50.123  1.00  0.00     0.052 A 
HETATM   27  C   UNL     1      24.901  47.432  50.439  1.00  0.00     0.145 A 
HETATM   28  N   UNL     1      23.976  48.310  49.968  1.00  0.00    -0.271 NA
HETATM   29  C   UNL     1      23.033  47.815  49.141  1.00  0.00     0.116 A 
HETATM   30  C   UNL     1      22.967  46.486  48.761  1.00  0.00     0.021 A 
HETATM   31  C   UNL     1      23.927  45.608  49.261  1.00  0.00     0.032 A 
ENDBRANCH  23  26
ENDBRANCH   1  22
TORSDOF 6
ENDMDL
MODEL 7
REMARK VINA RESULT:      -8.4      1.746      2.246
REMARK  6 active torsions:
REMARK  status: ('A' for Active; 'I' for Inactive)
REMARK    1  A    between atoms: C_8  and  C_9 
REMARK    2  A    between atoms: C_9  and  C_10 
REMARK    3  A    between atoms: C_10  and  N_11 
REMARK    4  A    between atoms: C_10  and  C_19 
REMARK       I    between atoms: N_11  and  C_12 
REMARK    5  A    between atoms: C_12  and  C_13 
REMARK       I    between atoms: C_19  and  N_20 
REMARK    6  A    between atoms: N_20  and  C_21 
ROOT
HETATM    1  C   UNL     1      25.495  45.554  51.230  1.00  0.00     0.181 C 
ENDROOT
BRANCH   1   2
HETATM    2  C   UNL     1      25.016  45.820  52.672  1.00  0.00     0.075 C 
BRANCH   2   3
HETATM    3  C   UNL     1      26.120  46.264  53.586  1.00  0.00    -0.028 A 
HETATM    4  C   UNL     1      27.247  45.498  54.035  1.00  0.00    -0.002 A 
HETATM    5  C   UNL     1      27.699  44.181  53.815  1.00  0.00     0.014 A 
HETATM    6  C   UNL     1      28.002  46.320  54.873  1.00  0.00     0.042 A 
HETATM    7  C   UNL     1      28.864  43.731  54.449  1.00  0.00     0.001 A 
HETATM    8  C   UNL     1      29.588  44.576  55.284  1.00  0.00     0.002 A 
HETATM    9  C   UNL     1      29.173  45.891  55.508  1.00  0.00     0.030 A 
HETATM   10  N   UNL     1      27.373  47.541  54.918  1.00  0.00    -0.365 N 
HETATM   11  H   UNL     1      27.707  48.337  55.444  1.00  0.00     0.165 HD
HETATM   12  C   UNL     1      26.241  47.520  54.150  1.00  0.00     0.096 A 
ENDBRANCH   2   3
ENDBRANCH   1   2
BRANCH   1  13
HETATM   13  N   UNL     1      25.618  44.128  50.901  1.00  0.00    -0.343 N 
HETATM   14  C   UNL     1      26.647  43.577  50.173  1.00  0.00     0.259 C 
HETATM   15  O   UNL     1      27.583  44.278  49.787  1.00  0.00    -0.267 OA
HETATM   16  H   UNL     1      24.917  43.500  51.273  1.00  0.00     0.163 HD
BRANCH  14  17
HETATM   17  C   UNL     1      26.560  42.146  49.917  1.00  0.00     0.072 A 
HETATM   18  S   UNL     1      26.551  41.498  48.328  1.00  0.00    -0.097 SA
HETATM   19  C   UNL     1      26.444  39.894  48.904  1.00  0.00     0.050 A 
HETATM   20  C   UNL     1      26.415  39.841  50.279  1.00  0.00     0.009 A 
HETATM   21  C   UNL     1      26.481  41.140  50.862  1.00  0.00     0.025 A 
ENDBRANCH  14  17
ENDBRANCH   1  13
BRANCH   1  22
HETATM   22  C   UNL     1      24.632  46.271  50.167  1.00  0.00     0.245 C 
HETATM   23  N   UNL     1      24.685  47.652  50.229  1.00  0.00    -0.324 N 
HETATM   24  H   UNL     1      25.142  48.050  51.051  1.00  0.00     0.169 HD
HETATM   25  O   UNL     1      23.957  45.625  49.368  1.00  0.00    -0.271 OA
BRANCH  23  26
HETATM   26  C   UNL     1      24.148  48.568  49.305  1.00  0.00     0.052 A 
HETATM   27  C   UNL     1      24.884  49.310  48.386  1.00  0.00     0.145 A 
HETATM   28  N   UNL     1      24.343  50.222  47.536  1.00  0.00    -0.271 NA
HETATM   29  C   UNL     1      23.008  50.400  47.602  1.00  0.00     0.116 A 
HETATM   30  C   UNL     1      22.186  49.709  48.475  1.00  0.00     0.021 A 
HETATM   31  C   UNL     1      22.768  48.781  49.337  1.00  0.00     0.032 A 
ENDBRANCH  23  26
ENDBRANCH   1  22
TORSDOF 6
ENDMDL
MODEL 8
REMARK VINA RESULT:      -8.4      6.078     10.450
REMARK  6 active torsions:
REMARK  status: ('A' for Active; 'I' for Inactive)
REMARK    1  A    between atoms: C_8  and  C_9 
REMARK    2  A    between atoms: C_9  and  C_10 
REMARK    3  A    between atoms: C_10  and  N_11 
REMARK    4  A    between atoms: C_10  and  C_19 
REMARK       I    between atoms: N_11  and  C_12 
REMARK    5  A    between atoms: C_12  and  C_13 
REMARK       I    between atoms: C_19  and  N_20 
REMARK    6  A    between atoms: N_20  and  C_21 
ROOT
HETATM    1  C   UNL     1      20.674  50.470  49.268  1.00  0.00     0.181 C 
ENDROOT
BRANCH   1   2
HETATM    2  C   UNL     1      20.335  51.682  48.375  1.00  0.00     0.075 C 
BRANCH   2   3
HETATM    3  C   UNL     1      18.923  51.661  47.868  1.00  0.00    -0.028 A 
HETATM    4  C   UNL     1      17.744  52.123  48.541  1.00  0.00    -0.002 A 
HETATM    5  C   UNL     1      17.487  52.708  49.798  1.00  0.00     0.014 A 
HETATM    6  C   UNL     1      16.663  51.898  47.688  1.00  0.00     0.042 A 
HETATM    7  C   UNL     1      16.172  53.024  50.161  1.00  0.00     0.001 A 
HETATM    8  C   UNL     1      15.116  52.779  49.288  1.00  0.00     0.002 A 
HETATM    9  C   UNL     1      15.343  52.216  48.030  1.00  0.00     0.030 A 
HETATM   10  N   UNL     1      17.163  51.340  46.536  1.00  0.00    -0.365 N 
HETATM   11  H   UNL     1      16.602  51.082  45.736  1.00  0.00     0.165 HD
HETATM   12  C   UNL     1      18.519  51.192  46.632  1.00  0.00     0.096 A 
ENDBRANCH   2   3
ENDBRANCH   1   2
BRANCH   1  13
HETATM   13  N   UNL     1      20.220  49.186  48.719  1.00  0.00    -0.343 N 
HETATM   14  C   UNL     1      19.414  48.289  49.383  1.00  0.00     0.259 C 
HETATM   15  O   UNL     1      18.975  48.556  50.502  1.00  0.00    -0.267 OA
HETATM   16  H   UNL     1      20.484  48.963  47.767  1.00  0.00     0.163 HD
BRANCH  14  17
HETATM   17  C   UNL     1      19.114  47.050  48.681  1.00  0.00     0.072 A 
HETATM   18  S   UNL     1      17.536  46.671  48.122  1.00  0.00    -0.097 SA
HETATM   19  C   UNL     1      18.046  45.178  47.469  1.00  0.00     0.050 A 
HETATM   20  C   UNL     1      19.392  44.962  47.665  1.00  0.00     0.009 A 
HETATM   21  C   UNL     1      20.006  46.041  48.365  1.00  0.00     0.025 A 
ENDBRANCH  14  17
ENDBRANCH   1  13
BRANCH   1  22
HETATM   22  C   UNL     1      22.174  50.390  49.631  1.00  0.00     0.245 C 
HETATM   23  N   UNL     1      22.911  49.543  48.822  1.00  0.00    -0.324 N 
HETATM   24  H   UNL     1      22.376  48.943  48.191  1.00  0.00     0.169 HD
HETATM   25  O   UNL     1      22.625  51.029  50.580  1.00  0.00    -0.271 OA
BRANCH  23  26
HETATM   26  C   UNL     1      24.310  49.389  48.799  1.00  0.00     0.052 A 
HETATM   27  C   UNL     1      25.188  50.133  48.017  1.00  0.00     0.145 A 
HETATM   28  N   UNL     1      26.532  49.931  47.980  1.00  0.00    -0.271 NA
HETATM   29  C   UNL     1      27.023  48.948  48.762  1.00  0.00     0.116 A 
HETATM   30  C   UNL     1      26.236  48.155  49.579  1.00  0.00     0.021 A 
HETATM   31  C   UNL     1      24.861  48.382  49.595  1.00  0.00     0.032 A 
ENDBRANCH  23  26
ENDBRANCH   1  22
TORSDOF 6
ENDMDL
MODEL 9
REMARK VINA RESULT:      -8.1      2.275      6.476
REMARK  6 active torsions:
REMARK  status: ('A' for Active; 'I' for Inactive)
REMARK    1  A    between atoms: C_8  and  C_9 
REMARK    2  A    between atoms: C_9  and  C_10 
REMARK    3  A    between atoms: C_10  and  N_11 
REMARK    4  A    between atoms: C_10  and  C_19 
REMARK       I    between atoms: N_11  and  C_12 
REMARK    5  A    between atoms: C_12  and  C_13 
REMARK       I    between atoms: C_19  and  N_20 
REMARK    6  A    between atoms: N_20  and  C_21 
ROOT
HETATM    1  C   UNL     1      26.700  44.678  51.892  1.00  0.00     0.181 C 
ENDROOT
BRANCH   1   2
HETATM    2  C   UNL     1      27.187  43.906  50.648  1.00  0.00     0.075 C 
BRANCH   2   3
HETATM    3  C   UNL     1      26.224  42.845  50.201  1.00  0.00    -0.028 A 
HETATM    4  C   UNL     1      25.063  43.006  49.375  1.00  0.00    -0.002 A 
HETATM    5  C   UNL     1      24.448  44.102  48.736  1.00  0.00     0.014 A 
HETATM    6  C   UNL     1      24.476  41.748  49.232  1.00  0.00     0.042 A 
HETATM    7  C   UNL     1      23.271  43.908  48.003  1.00  0.00     0.001 A 
HETATM    8  C   UNL     1      22.708  42.641  47.887  1.00  0.00     0.002 A 
HETATM    9  C   UNL     1      23.305  41.534  48.495  1.00  0.00     0.030 A 
HETATM   10  N   UNL     1      25.257  40.854  49.925  1.00  0.00    -0.365 N 
HETATM   11  H   UNL     1      25.073  39.862  49.984  1.00  0.00     0.165 HD
HETATM   12  C   UNL     1      26.309  41.500  50.513  1.00  0.00     0.096 A 
ENDBRANCH   2   3
ENDBRANCH   1   2
BRANCH   1  13
HETATM   13  N   UNL     1      27.729  44.841  52.927  1.00  0.00    -0.343 N 
HETATM   14  C   UNL     1      28.047  43.895  53.874  1.00  0.00     0.259 C 
HETATM   15  O   UNL     1      27.491  42.796  53.868  1.00  0.00    -0.267 OA
HETATM   16  H   UNL     1      28.274  45.695  52.915  1.00  0.00     0.163 HD
BRANCH  14  17
HETATM   17  C   UNL     1      29.068  44.269  54.842  1.00  0.00     0.072 A 
HETATM   18  S   UNL     1      30.419  43.268  55.183  1.00  0.00    -0.097 SA
HETATM   19  C   UNL     1      31.048  44.378  56.319  1.00  0.00     0.050 A 
HETATM   20  C   UNL     1      30.252  45.494  56.444  1.00  0.00     0.009 A 
HETATM   21  C   UNL     1      29.110  45.429  55.593  1.00  0.00     0.025 A 
ENDBRANCH  14  17
ENDBRANCH   1  13
BRANCH   1  22
HETATM   22  C   UNL     1      26.076  46.049  51.545  1.00  0.00     0.245 C 
HETATM   23  N   UNL     1      26.495  46.574  50.336  1.00  0.00    -0.324 N 
HETATM   24  H   UNL     1      27.279  46.099  49.885  1.00  0.00     0.169 HD
HETATM   25  O   UNL     1      25.294  46.596  52.320  1.00  0.00    -0.271 OA
BRANCH  23  26
HETATM   26  C   UNL     1      25.987  47.710  49.679  1.00  0.00     0.052 A 
HETATM   27  C   UNL     1      24.639  47.974  49.453  1.00  0.00     0.145 A 
HETATM   28  N   UNL     1      24.179  49.057  48.774  1.00  0.00    -0.271 NA
HETATM   29  C   UNL     1      25.103  49.919  48.303  1.00  0.00     0.116 A 
HETATM   30  C   UNL     1      26.466  49.752  48.477  1.00  0.00     0.021 A 
HETATM   31  C   UNL     1      26.910  48.630  49.176  1.00  0.00     0.032 A 
ENDBRANCH  23  26
ENDBRANCH   1  22
TORSDOF 6
ENDMDL
MODEL 10
REMARK VINA RESULT:      -8.1      2.391      5.793
REMARK  6 active torsions:
REMARK  status: ('A' for Active; 'I' for Inactive)
REMARK    1  A    between atoms: C_8  and  C_9 
REMARK    2  A    between atoms: C_9  and  C_10 
REMARK    3  A    between atoms: C_10  and  N_11 
REMARK    4  A    between atoms: C_10  and  C_19 
REMARK       I    between atoms: N_11  and  C_12 
REMARK    5  A    between atoms: C_12  and  C_13 
REMARK       I    between atoms: C_19  and  N_20 
REMARK    6  A    between atoms: N_20  and  C_21 
ROOT
HETATM    1  C   UNL     1      26.483  44.102  50.629  1.00  0.00     0.181 C 
ENDROOT
BRANCH   1   2
HETATM    2  C   UNL     1      27.675  43.585  51.462  1.00  0.00     0.075 C 
BRANCH   2   3
HETATM    3  C   UNL     1      27.826  44.296  52.775  1.00  0.00    -0.028 A 
HETATM    4  C   UNL     1      28.856  44.112  53.757  1.00  0.00    -0.002 A 
HETATM    5  C   UNL     1      29.995  43.287  53.854  1.00  0.00     0.014 A 
HETATM    6  C   UNL     1      28.583  44.982  54.813  1.00  0.00     0.042 A 
HETATM    7  C   UNL     1      30.798  43.344  54.999  1.00  0.00     0.001 A 
HETATM    8  C   UNL     1      30.493  44.218  56.037  1.00  0.00     0.002 A 
HETATM    9  C   UNL     1      29.381  45.060  55.961  1.00  0.00     0.030 A 
HETATM   10  N   UNL     1      27.447  45.681  54.482  1.00  0.00    -0.365 N 
HETATM   11  H   UNL     1      27.023  46.391  55.063  1.00  0.00     0.165 HD
HETATM   12  C   UNL     1      26.982  45.276  53.261  1.00  0.00     0.096 A 
ENDBRANCH   2   3
ENDBRANCH   1   2
BRANCH   1  13
HETATM   13  N   UNL     1      26.669  45.464  50.112  1.00  0.00    -0.343 N 
HETATM   14  C   UNL     1      25.729  46.465  50.181  1.00  0.00     0.259 C 
HETATM   15  O   UNL     1      24.654  46.273  50.750  1.00  0.00    -0.267 OA
HETATM   16  H   UNL     1      27.572  45.694  49.713  1.00  0.00     0.163 HD
BRANCH  14  17
HETATM   17  C   UNL     1      26.093  47.734  49.566  1.00  0.00     0.072 A 
HETATM   18  S   UNL     1      24.922  48.809  48.918  1.00  0.00    -0.097 SA
HETATM   19  C   UNL     1      26.112  49.942  48.453  1.00  0.00     0.050 A 
HETATM   20  C   UNL     1      27.381  49.520  48.780  1.00  0.00     0.009 A 
HETATM   21  C   UNL     1      27.369  48.247  49.421  1.00  0.00     0.025 A 
ENDBRANCH  14  17
ENDBRANCH   1  13
BRANCH   1  22
HETATM   22  C   UNL     1      26.092  43.147  49.479  1.00  0.00     0.245 C 
HETATM   23  N   UNL     1      27.043  42.185  49.192  1.00  0.00    -0.324 N 
HETATM   24  H   UNL     1      27.954  42.301  49.640  1.00  0.00     0.169 HD
HETATM   25  O   UNL     1      25.023  43.283  48.887  1.00  0.00    -0.271 OA
BRANCH  23  26
HETATM   26  C   UNL     1      26.909  41.086  48.322  1.00  0.00     0.052 A 
HETATM   27  C   UNL     1      26.021  40.028  48.495  1.00  0.00     0.145 A 
HETATM   28  N   UNL     1      25.944  38.955  47.662  1.00  0.00    -0.271 NA
HETATM   29  C   UNL     1      26.786  38.940  46.609  1.00  0.00     0.116 A 
HETATM   30  C   UNL     1      27.702  39.943  46.346  1.00  0.00     0.021 A 
HETATM   31  C   UNL     1      27.761  41.030  47.217  1.00  0.00     0.032 A 
ENDBRANCH  23  26
ENDBRANCH   1  22
TORSDOF 6
ENDMDL
