MODEL 1
REMARK VINA RESULT:      -9.0      0.000      0.000
REMARK  3 active torsions:
REMARK  status: ('A' for Active; 'I' for Inactive)
REMARK    1  A    between atoms: C_7  and  C_8 
REMARK       I    between atoms: C_8  and  N_9 
REMARK    2  A    between atoms: N_9  and  N_10 
REMARK    3  A    between atoms: C_11  and  C_12 
ROOT
HETATM    1  N   UNL     1      26.732  41.231  51.106  1.00  0.00    -0.184 NA
HETATM    2  C   UNL     1      27.639  41.212  52.028  1.00  0.00     0.148 C 
ENDROOT
BRANCH   1   3
HETATM    3  N   UNL     1      26.054  42.394  50.889  1.00  0.00    -0.243 N 
HETATM    4  C   UNL     1      26.208  43.113  49.708  1.00  0.00     0.280 C 
HETATM    5  O   UNL     1      26.981  42.775  48.815  1.00  0.00    -0.265 OA
HETATM    6  H   UNL     1      25.415  42.744  51.593  1.00  0.00     0.192 HD
BRANCH   4   7
HETATM    7  C   UNL     1      25.351  44.285  49.599  1.00  0.00     0.102 A 
HETATM    8  C   UNL     1      24.222  44.454  48.812  1.00  0.00     0.056 A 
HETATM    9  C   UNL     1      23.624  43.462  47.877  1.00  0.00     0.072 C 
HETATM   10  N   UNL     1      23.596  45.687  48.943  1.00  0.00    -0.228 NA
HETATM   11  C   UNL     1      24.230  46.432  49.810  1.00  0.00     0.165 A 
HETATM   12  N   UNL     1      23.837  47.672  50.135  1.00  0.00    -0.378 N 
HETATM   13  S   UNL     1      25.624  45.722  50.506  1.00  0.00    -0.045 SA
HETATM   14  H   UNL     1      23.165  48.091  49.502  1.00  0.00     0.158 HD
HETATM   15  H   UNL     1      24.527  48.319  50.495  1.00  0.00     0.158 HD
ENDBRANCH   4   7
ENDBRANCH   1   3
BRANCH   2  16
HETATM   16  C   UNL     1      28.031  42.262  53.003  1.00  0.00    -0.014 C 
HETATM   17  C   UNL     1      27.111  43.434  53.151  1.00  0.00     0.216 C 
HETATM   18  O   UNL     1      27.702  44.606  53.735  1.00  0.00    -0.344 OA
HETATM   19  C   UNL     1      28.750  44.415  54.598  1.00  0.00     0.101 A 
HETATM   20  C   UNL     1      29.519  43.242  54.587  1.00  0.00     0.001 A 
HETATM   21  C   UNL     1      29.086  45.453  55.478  1.00  0.00     0.069 A 
HETATM   22  C   UNL     1      30.595  43.105  55.469  1.00  0.00     0.038 A 
HETATM   23  C   UNL     1      29.202  42.178  53.641  1.00  0.00     0.025 C 
HETATM   24  C   UNL     1      30.902  44.139  56.354  1.00  0.00     0.036 A 
HETATM   25  C   UNL     1      30.156  45.314  56.361  1.00  0.00     0.050 A 
HETATM   26 CL   UNL     1      32.218  43.957  57.447  1.00  0.00    -0.084 Cl
HETATM   27 CL   UNL     1      28.184  46.926  55.512  1.00  0.00    -0.081 Cl
ENDBRANCH   2  16
TORSDOF 3
ENDMDL
MODEL 2
REMARK VINA RESULT:      -8.8      2.614      4.163
REMARK  3 active torsions:
REMARK  status: ('A' for Active; 'I' for Inactive)
REMARK    1  A    between atoms: C_7  and  C_8 
REMARK       I    between atoms: C_8  and  N_9 
REMARK    2  A    between atoms: N_9  and  N_10 
REMARK    3  A    between atoms: C_11  and  C_12 
ROOT
HETATM    1  N   UNL     1      25.309  47.727  53.150  1.00  0.00    -0.184 NA
HETATM    2  C   UNL     1      26.166  47.594  54.111  1.00  0.00     0.148 C 
ENDROOT
BRANCH   1   3
HETATM    3  N   UNL     1      25.154  46.694  52.274  1.00  0.00    -0.243 N 
HETATM    4  C   UNL     1      24.908  46.921  50.923  1.00  0.00     0.280 C 
HETATM    5  O   UNL     1      24.777  48.046  50.447  1.00  0.00    -0.265 OA
HETATM    6  H   UNL     1      25.227  45.739  52.603  1.00  0.00     0.192 HD
BRANCH   4   7
HETATM    7  C   UNL     1      24.851  45.715  50.110  1.00  0.00     0.102 A 
HETATM    8  C   UNL     1      25.898  44.898  49.710  1.00  0.00     0.056 A 
HETATM    9  C   UNL     1      27.343  45.076  50.019  1.00  0.00     0.072 C 
HETATM   10  N   UNL     1      25.524  43.795  48.953  1.00  0.00    -0.228 NA
HETATM   11  C   UNL     1      24.228  43.773  48.787  1.00  0.00     0.165 A 
HETATM   12  N   UNL     1      23.595  42.812  48.098  1.00  0.00    -0.378 N 
HETATM   13  S   UNL     1      23.375  45.074  49.501  1.00  0.00    -0.045 SA
HETATM   14  H   UNL     1      24.191  42.236  47.514  1.00  0.00     0.158 HD
HETATM   15  H   UNL     1      22.694  43.024  47.690  1.00  0.00     0.158 HD
ENDBRANCH   4   7
ENDBRANCH   1   3
BRANCH   2  16
HETATM   16  C   UNL     1      27.121  46.492  54.390  1.00  0.00    -0.014 C 
HETATM   17  C   UNL     1      28.059  46.676  55.543  1.00  0.00     0.216 C 
HETATM   18  O   UNL     1      29.228  45.841  55.520  1.00  0.00    -0.344 OA
HETATM   19  C   UNL     1      29.123  44.634  54.878  1.00  0.00     0.101 A 
HETATM   20  C   UNL     1      28.135  44.387  53.914  1.00  0.00     0.001 A 
HETATM   21  C   UNL     1      30.070  43.641  55.167  1.00  0.00     0.069 A 
HETATM   22  C   UNL     1      28.086  43.148  53.267  1.00  0.00     0.038 A 
HETATM   23  C   UNL     1      27.177  45.432  53.576  1.00  0.00     0.025 C 
HETATM   24  C   UNL     1      29.022  42.163  53.583  1.00  0.00     0.036 A 
HETATM   25  C   UNL     1      30.016  42.404  54.526  1.00  0.00     0.050 A 
HETATM   26 CL   UNL     1      28.945  40.636  52.794  1.00  0.00    -0.084 Cl
HETATM   27 CL   UNL     1      31.320  43.906  56.330  1.00  0.00    -0.081 Cl
ENDBRANCH   2  16
TORSDOF 3
ENDMDL
MODEL 3
REMARK VINA RESULT:      -8.8      4.067      7.646
REMARK  3 active torsions:
REMARK  status: ('A' for Active; 'I' for Inactive)
REMARK    1  A    between atoms: C_7  and  C_8 
REMARK       I    between atoms: C_8  and  N_9 
REMARK    2  A    between atoms: N_9  and  N_10 
REMARK    3  A    between atoms: C_11  and  C_12 
ROOT
HETATM    1  N   UNL     1      25.746  43.201  51.477  1.00  0.00    -0.184 NA
HETATM    2  C   UNL     1      25.124  43.794  50.510  1.00  0.00     0.148 C 
ENDROOT
BRANCH   1   3
HETATM    3  N   UNL     1      26.564  43.946  52.273  1.00  0.00    -0.243 N 
HETATM    4  C   UNL     1      26.124  44.454  53.491  1.00  0.00     0.280 C 
HETATM    5  O   UNL     1      24.976  44.301  53.903  1.00  0.00    -0.265 OA
HETATM    6  H   UNL     1      27.518  44.130  51.985  1.00  0.00     0.192 HD
BRANCH   4   7
HETATM    7  C   UNL     1      27.144  45.155  54.257  1.00  0.00     0.102 A 
HETATM    8  C   UNL     1      27.152  46.480  54.667  1.00  0.00     0.056 A 
HETATM    9  C   UNL     1      26.106  47.506  54.405  1.00  0.00     0.072 C 
HETATM   10  N   UNL     1      28.262  46.856  55.411  1.00  0.00    -0.228 NA
HETATM   11  C   UNL     1      29.073  45.842  55.567  1.00  0.00     0.165 A 
HETATM   12  N   UNL     1      30.223  45.924  56.253  1.00  0.00    -0.378 N 
HETATM   13  S   UNL     1      28.577  44.385  54.818  1.00  0.00    -0.045 SA
HETATM   14  H   UNL     1      30.546  46.866  56.441  1.00  0.00     0.158 HD
HETATM   15  H   UNL     1      30.961  45.266  56.037  1.00  0.00     0.158 HD
ENDBRANCH   4   7
ENDBRANCH   1   3
BRANCH   2  16
HETATM   16  C   UNL     1      25.217  45.198  50.035  1.00  0.00    -0.014 C 
HETATM   17  C   UNL     1      26.573  45.700  49.648  1.00  0.00     0.216 C 
HETATM   18  O   UNL     1      26.714  47.130  49.626  1.00  0.00    -0.344 OA
HETATM   19  C   UNL     1      25.586  47.865  49.368  1.00  0.00     0.101 A 
HETATM   20  C   UNL     1      24.298  47.347  49.563  1.00  0.00     0.001 A 
HETATM   21  C   UNL     1      25.739  49.193  48.945  1.00  0.00     0.069 A 
HETATM   22  C   UNL     1      23.178  48.146  49.311  1.00  0.00     0.038 A 
HETATM   23  C   UNL     1      24.133  45.981  50.047  1.00  0.00     0.025 C 
HETATM   24  C   UNL     1      23.348  49.458  48.869  1.00  0.00     0.036 A 
HETATM   25  C   UNL     1      24.622  49.988  48.688  1.00  0.00     0.050 A 
HETATM   26 CL   UNL     1      21.966  50.430  48.546  1.00  0.00    -0.084 Cl
HETATM   27 CL   UNL     1      27.305  49.885  48.713  1.00  0.00    -0.081 Cl
ENDBRANCH   2  16
TORSDOF 3
ENDMDL
MODEL 4
REMARK VINA RESULT:      -8.6      5.739      9.846
REMARK  3 active torsions:
REMARK  status: ('A' for Active; 'I' for Inactive)
REMARK    1  A    between atoms: C_7  and  C_8 
REMARK       I    between atoms: C_8  and  N_9 
REMARK    2  A    between atoms: N_9  and  N_10 
REMARK    3  A    between atoms: C_11  and  C_12 
ROOT
HETATM    1  N   UNL     1      25.953  49.147  49.107  1.00  0.00    -0.184 NA
HETATM    2  C   UNL     1      25.078  49.770  48.385  1.00  0.00     0.148 C 
ENDROOT
BRANCH   1   3
HETATM    3  N   UNL     1      25.520  48.156  49.937  1.00  0.00    -0.243 N 
HETATM    4  C   UNL     1      26.162  46.922  49.990  1.00  0.00     0.280 C 
HETATM    5  O   UNL     1      27.120  46.636  49.275  1.00  0.00    -0.265 OA
HETATM    6  H   UNL     1      24.722  48.316  50.539  1.00  0.00     0.192 HD
BRANCH   4   7
HETATM    7  C   UNL     1      25.628  46.006  50.987  1.00  0.00     0.102 A 
HETATM    8  C   UNL     1      24.559  45.130  50.864  1.00  0.00     0.056 A 
HETATM    9  C   UNL     1      23.696  44.931  49.668  1.00  0.00     0.072 C 
HETATM   10  N   UNL     1      24.301  44.361  51.991  1.00  0.00    -0.228 NA
HETATM   11  C   UNL     1      25.153  44.641  52.941  1.00  0.00     0.165 A 
HETATM   12  N   UNL     1      25.137  44.039  54.139  1.00  0.00    -0.378 N 
HETATM   13  S   UNL     1      26.300  45.854  52.563  1.00  0.00    -0.045 SA
HETATM   14  H   UNL     1      24.288  43.528  54.354  1.00  0.00     0.158 HD
HETATM   15  H   UNL     1      25.540  44.524  54.930  1.00  0.00     0.158 HD
ENDBRANCH   4   7
ENDBRANCH   1   3
BRANCH   2  16
HETATM   16  C   UNL     1      23.598  49.649  48.367  1.00  0.00    -0.014 C 
HETATM   17  C   UNL     1      23.026  48.277  48.187  1.00  0.00     0.216 C 
HETATM   18  O   UNL     1      21.663  48.237  47.735  1.00  0.00    -0.344 OA
HETATM   19  C   UNL     1      20.862  49.300  48.064  1.00  0.00     0.101 A 
HETATM   20  C   UNL     1      21.392  50.553  48.404  1.00  0.00     0.001 A 
HETATM   21  C   UNL     1      19.472  49.130  48.004  1.00  0.00     0.069 A 
HETATM   22  C   UNL     1      20.533  51.615  48.706  1.00  0.00     0.038 A 
HETATM   23  C   UNL     1      22.837  50.747  48.423  1.00  0.00     0.025 C 
HETATM   24  C   UNL     1      19.152  51.423  48.664  1.00  0.00     0.036 A 
HETATM   25  C   UNL     1      18.616  50.188  48.311  1.00  0.00     0.050 A 
HETATM   26 CL   UNL     1      18.102  52.730  49.052  1.00  0.00    -0.084 Cl
HETATM   27 CL   UNL     1      18.772  47.613  47.567  1.00  0.00    -0.081 Cl
ENDBRANCH   2  16
TORSDOF 3
ENDMDL
MODEL 5
REMARK VINA RESULT:      -8.6      2.350      3.714
REMARK  3 active torsions:
REMARK  status: ('A' for Active; 'I' for Inactive)
REMARK    1  A    between atoms: C_7  and  C_8 
REMARK       I    between atoms: C_8  and  N_9 
REMARK    2  A    between atoms: N_9  and  N_10 
REMARK    3  A    between atoms: C_11  and  C_12 
ROOT
HETATM    1  N   UNL     1      25.334  47.699  53.042  1.00  0.00    -0.184 NA
HETATM    2  C   UNL     1      26.252  47.429  53.913  1.00  0.00     0.148 C 
ENDROOT
BRANCH   1   3
HETATM    3  N   UNL     1      25.022  46.750  52.115  1.00  0.00    -0.243 N 
HETATM    4  C   UNL     1      24.876  47.072  50.769  1.00  0.00     0.280 C 
HETATM    5  O   UNL     1      24.978  48.219  50.342  1.00  0.00    -0.265 OA
HETATM    6  H   UNL     1      24.902  45.786  52.402  1.00  0.00     0.192 HD
BRANCH   4   7
HETATM    7  C   UNL     1      24.626  45.931  49.900  1.00  0.00     0.102 A 
HETATM    8  C   UNL     1      23.604  45.761  48.978  1.00  0.00     0.056 A 
HETATM    9  C   UNL     1      22.507  46.718  48.668  1.00  0.00     0.072 C 
HETATM   10  N   UNL     1      23.644  44.565  48.274  1.00  0.00    -0.228 NA
HETATM   11  C   UNL     1      24.671  43.848  48.648  1.00  0.00     0.165 A 
HETATM   12  N   UNL     1      24.953  42.646  48.125  1.00  0.00    -0.378 N 
HETATM   13  S   UNL     1      25.640  44.541  49.877  1.00  0.00    -0.045 SA
HETATM   14  H   UNL     1      24.201  42.217  47.597  1.00  0.00     0.158 HD
HETATM   15  H   UNL     1      25.497  41.995  48.676  1.00  0.00     0.158 HD
ENDBRANCH   4   7
ENDBRANCH   1   3
BRANCH   2  16
HETATM   16  C   UNL     1      27.133  46.238  54.032  1.00  0.00    -0.014 C 
HETATM   17  C   UNL     1      26.915  45.127  53.053  1.00  0.00     0.216 C 
HETATM   18  O   UNL     1      27.444  43.851  53.448  1.00  0.00    -0.344 OA
HETATM   19  C   UNL     1      28.530  43.855  54.285  1.00  0.00     0.101 A 
HETATM   20  C   UNL     1      28.848  44.961  55.086  1.00  0.00     0.001 A 
HETATM   21  C   UNL     1      29.309  42.692  54.371  1.00  0.00     0.069 A 
HETATM   22  C   UNL     1      29.951  44.907  55.944  1.00  0.00     0.038 A 
HETATM   23  C   UNL     1      28.013  46.155  55.035  1.00  0.00     0.025 C 
HETATM   24  C   UNL     1      30.729  43.750  56.001  1.00  0.00     0.036 A 
HETATM   25  C   UNL     1      30.412  42.641  55.222  1.00  0.00     0.050 A 
HETATM   26 CL   UNL     1      32.094  43.697  57.047  1.00  0.00    -0.084 Cl
HETATM   27 CL   UNL     1      28.943  41.296  53.422  1.00  0.00    -0.081 Cl
ENDBRANCH   2  16
TORSDOF 3
ENDMDL
MODEL 6
REMARK VINA RESULT:      -8.5      5.523      9.136
REMARK  3 active torsions:
REMARK  status: ('A' for Active; 'I' for Inactive)
REMARK    1  A    between atoms: C_7  and  C_8 
REMARK       I    between atoms: C_8  and  N_9 
REMARK    2  A    between atoms: N_9  and  N_10 
REMARK    3  A    between atoms: C_11  and  C_12 
ROOT
HETATM    1  N   UNL     1      26.207  48.780  49.179  1.00  0.00    -0.184 NA
HETATM    2  C   UNL     1      25.338  49.513  48.561  1.00  0.00     0.148 C 
ENDROOT
BRANCH   1   3
HETATM    3  N   UNL     1      25.755  47.841  50.059  1.00  0.00    -0.243 N 
HETATM    4  C   UNL     1      26.283  46.554  50.080  1.00  0.00     0.280 C 
HETATM    5  O   UNL     1      27.148  46.174  49.295  1.00  0.00    -0.265 OA
HETATM    6  H   UNL     1      25.027  48.081  50.721  1.00  0.00     0.192 HD
BRANCH   4   7
HETATM    7  C   UNL     1      25.751  45.701  51.132  1.00  0.00     0.102 A 
HETATM    8  C   UNL     1      24.617  44.902  51.100  1.00  0.00     0.056 A 
HETATM    9  C   UNL     1      23.668  44.739  49.967  1.00  0.00     0.072 C 
HETATM   10  N   UNL     1      24.379  44.178  52.261  1.00  0.00    -0.228 NA
HETATM   11  C   UNL     1      25.308  44.418  53.148  1.00  0.00     0.165 A 
HETATM   12  N   UNL     1      25.327  43.845  54.361  1.00  0.00    -0.378 N 
HETATM   13  S   UNL     1      26.511  45.536  52.667  1.00  0.00    -0.045 SA
HETATM   14  H   UNL     1      24.459  43.401  54.642  1.00  0.00     0.158 HD
HETATM   15  H   UNL     1      25.813  44.318  55.112  1.00  0.00     0.158 HD
ENDBRANCH   4   7
ENDBRANCH   1   3
BRANCH   2  16
HETATM   16  C   UNL     1      23.862  49.575  48.716  1.00  0.00    -0.014 C 
HETATM   17  C   UNL     1      23.264  50.911  49.029  1.00  0.00     0.216 C 
HETATM   18  O   UNL     1      21.945  50.872  49.599  1.00  0.00    -0.344 OA
HETATM   19  C   UNL     1      21.154  49.800  49.275  1.00  0.00     0.101 A 
HETATM   20  C   UNL     1      21.693  48.591  48.813  1.00  0.00     0.001 A 
HETATM   21  C   UNL     1      19.770  49.912  49.466  1.00  0.00     0.069 A 
HETATM   22  C   UNL     1      20.846  47.516  48.521  1.00  0.00     0.038 A 
HETATM   23  C   UNL     1      23.136  48.454  48.658  1.00  0.00     0.025 C 
HETATM   24  C   UNL     1      19.469  47.652  48.694  1.00  0.00     0.036 A 
HETATM   25  C   UNL     1      18.926  48.842  49.169  1.00  0.00     0.050 A 
HETATM   26 CL   UNL     1      18.432  46.331  48.318  1.00  0.00    -0.084 Cl
HETATM   27 CL   UNL     1      19.061  51.373  50.055  1.00  0.00    -0.081 Cl
ENDBRANCH   2  16
TORSDOF 3
ENDMDL
MODEL 7
REMARK VINA RESULT:      -8.5      4.238      6.213
REMARK  3 active torsions:
REMARK  status: ('A' for Active; 'I' for Inactive)
REMARK    1  A    between atoms: C_7  and  C_8 
REMARK       I    between atoms: C_8  and  N_9 
REMARK    2  A    between atoms: N_9  and  N_10 
REMARK    3  A    between atoms: C_11  and  C_12 
ROOT
HETATM    1  N   UNL     1      25.712  49.243  48.844  1.00  0.00    -0.184 NA
HETATM    2  C   UNL     1      26.639  48.505  49.362  1.00  0.00     0.148 C 
ENDROOT
BRANCH   1   3
HETATM    3  N   UNL     1      24.411  48.907  49.076  1.00  0.00    -0.243 N 
HETATM    4  C   UNL     1      23.389  49.348  48.241  1.00  0.00     0.280 C 
HETATM    5  O   UNL     1      23.583  50.090  47.281  1.00  0.00    -0.265 OA
HETATM    6  H   UNL     1      24.176  48.315  49.863  1.00  0.00     0.192 HD
BRANCH   4   7
HETATM    7  C   UNL     1      22.070  48.831  48.577  1.00  0.00     0.102 A 
HETATM    8  C   UNL     1      20.997  49.511  49.136  1.00  0.00     0.056 A 
HETATM    9  C   UNL     1      20.953  50.944  49.532  1.00  0.00     0.072 C 
HETATM   10  N   UNL     1      19.852  48.747  49.319  1.00  0.00    -0.228 NA
HETATM   11  C   UNL     1      20.048  47.522  48.906  1.00  0.00     0.165 A 
HETATM   12  N   UNL     1      19.104  46.572  48.961  1.00  0.00    -0.378 N 
HETATM   13  S   UNL     1      21.614  47.196  48.297  1.00  0.00    -0.045 SA
HETATM   14  H   UNL     1      18.310  46.786  49.554  1.00  0.00     0.158 HD
HETATM   15  H   UNL     1      19.394  45.603  48.990  1.00  0.00     0.158 HD
ENDBRANCH   4   7
ENDBRANCH   1   3
BRANCH   2  16
HETATM   16  C   UNL     1      26.531  47.239  50.131  1.00  0.00    -0.014 C 
HETATM   17  C   UNL     1      26.081  47.340  51.555  1.00  0.00     0.216 C 
HETATM   18  O   UNL     1      26.403  46.210  52.382  1.00  0.00    -0.344 OA
HETATM   19  C   UNL     1      26.519  44.993  51.761  1.00  0.00     0.101 A 
HETATM   20  C   UNL     1      26.772  44.880  50.386  1.00  0.00     0.001 A 
HETATM   21  C   UNL     1      26.432  43.834  52.545  1.00  0.00     0.069 A 
HETATM   22  C   UNL     1      26.908  43.616  49.803  1.00  0.00     0.038 A 
HETATM   23  C   UNL     1      26.910  46.083  49.574  1.00  0.00     0.025 C 
HETATM   24  C   UNL     1      26.796  42.472  50.594  1.00  0.00     0.036 A 
HETATM   25  C   UNL     1      26.562  42.574  51.962  1.00  0.00     0.050 A 
HETATM   26 CL   UNL     1      26.950  40.921  49.867  1.00  0.00    -0.084 Cl
HETATM   27 CL   UNL     1      26.146  43.923  54.246  1.00  0.00    -0.081 Cl
ENDBRANCH   2  16
TORSDOF 3
ENDMDL
MODEL 8
REMARK VINA RESULT:      -8.3      1.597      2.708
REMARK  3 active torsions:
REMARK  status: ('A' for Active; 'I' for Inactive)
REMARK    1  A    between atoms: C_7  and  C_8 
REMARK       I    between atoms: C_8  and  N_9 
REMARK    2  A    between atoms: N_9  and  N_10 
REMARK    3  A    between atoms: C_11  and  C_12 
ROOT
HETATM    1  N   UNL     1      28.261  41.628  51.236  1.00  0.00    -0.184 NA
HETATM    2  C   UNL     1      29.068  41.913  52.207  1.00  0.00     0.148 C 
ENDROOT
BRANCH   1   3
HETATM    3  N   UNL     1      27.249  42.499  50.959  1.00  0.00    -0.243 N 
HETATM    4  C   UNL     1      26.793  42.690  49.658  1.00  0.00     0.280 C 
HETATM    5  O   UNL     1      27.290  42.125  48.686  1.00  0.00    -0.265 OA
HETATM    6  H   UNL     1      26.808  43.015  51.710  1.00  0.00     0.192 HD
BRANCH   4   7
HETATM    7  C   UNL     1      25.654  43.588  49.544  1.00  0.00     0.102 A 
HETATM    8  C   UNL     1      24.336  43.272  49.249  1.00  0.00     0.056 A 
HETATM    9  C   UNL     1      23.779  41.921  48.969  1.00  0.00     0.072 C 
HETATM   10  N   UNL     1      23.464  44.353  49.235  1.00  0.00    -0.228 NA
HETATM   11  C   UNL     1      24.101  45.459  49.516  1.00  0.00     0.165 A 
HETATM   12  N   UNL     1      23.499  46.655  49.576  1.00  0.00    -0.378 N 
HETATM   13  S   UNL     1      25.782  45.286  49.792  1.00  0.00    -0.045 SA
HETATM   14  H   UNL     1      22.574  46.694  49.162  1.00  0.00     0.158 HD
HETATM   15  H   UNL     1      24.057  47.486  49.425  1.00  0.00     0.158 HD
ENDBRANCH   4   7
ENDBRANCH   1   3
BRANCH   2  16
HETATM   16  C   UNL     1      29.031  43.036  53.179  1.00  0.00    -0.014 C 
HETATM   17  C   UNL     1      30.148  43.115  54.172  1.00  0.00     0.216 C 
HETATM   18  O   UNL     1      29.872  43.904  55.341  1.00  0.00    -0.344 OA
HETATM   19  C   UNL     1      28.968  44.926  55.208  1.00  0.00     0.101 A 
HETATM   20  C   UNL     1      28.021  44.952  54.174  1.00  0.00     0.001 A 
HETATM   21  C   UNL     1      28.968  45.945  56.171  1.00  0.00     0.069 A 
HETATM   22  C   UNL     1      27.102  46.004  54.096  1.00  0.00     0.038 A 
HETATM   23  C   UNL     1      27.988  43.871  53.196  1.00  0.00     0.025 C 
HETATM   24  C   UNL     1      27.130  47.021  55.049  1.00  0.00     0.036 A 
HETATM   25  C   UNL     1      28.055  46.996  56.089  1.00  0.00     0.050 A 
HETATM   26 CL   UNL     1      26.006  48.319  54.938  1.00  0.00    -0.084 Cl
HETATM   27 CL   UNL     1      30.099  45.944  57.477  1.00  0.00    -0.081 Cl
ENDBRANCH   2  16
TORSDOF 3
ENDMDL
MODEL 9
REMARK VINA RESULT:      -8.2     12.074     14.050
REMARK  3 active torsions:
REMARK  status: ('A' for Active; 'I' for Inactive)
REMARK    1  A    between atoms: C_7  and  C_8 
REMARK       I    between atoms: C_8  and  N_9 
REMARK    2  A    between atoms: N_9  and  N_10 
REMARK    3  A    between atoms: C_11  and  C_12 
ROOT
HETATM    1  N   UNL     1      27.579  51.866  37.907  1.00  0.00    -0.184 NA
HETATM    2  C   UNL     1      28.824  52.120  38.152  1.00  0.00     0.148 C 
ENDROOT
BRANCH   1   3
HETATM    3  N   UNL     1      26.938  50.954  38.692  1.00  0.00    -0.243 N 
HETATM    4  C   UNL     1      26.427  49.774  38.162  1.00  0.00     0.280 C 
HETATM    5  O   UNL     1      26.483  49.499  36.966  1.00  0.00    -0.265 OA
HETATM    6  H   UNL     1      26.836  51.127  39.685  1.00  0.00     0.192 HD
BRANCH   4   7
HETATM    7  C   UNL     1      25.848  48.871  39.146  1.00  0.00     0.102 A 
HETATM    8  C   UNL     1      24.512  48.713  39.487  1.00  0.00     0.056 A 
HETATM    9  C   UNL     1      23.349  49.447  38.919  1.00  0.00     0.072 C 
HETATM   10  N   UNL     1      24.266  47.747  40.454  1.00  0.00    -0.228 NA
HETATM   11  C   UNL     1      25.383  47.184  40.834  1.00  0.00     0.165 A 
HETATM   12  N   UNL     1      25.435  46.212  41.756  1.00  0.00    -0.378 N 
HETATM   13  S   UNL     1      26.799  47.784  40.082  1.00  0.00    -0.045 SA
HETATM   14  H   UNL     1      24.596  46.100  42.313  1.00  0.00     0.158 HD
HETATM   15  H   UNL     1      26.296  46.080  42.271  1.00  0.00     0.158 HD
ENDBRANCH   4   7
ENDBRANCH   1   3
BRANCH   2  16
HETATM   16  C   UNL     1      29.749  51.495  39.131  1.00  0.00    -0.014 C 
HETATM   17  C   UNL     1      30.446  50.239  38.708  1.00  0.00     0.216 C 
HETATM   18  O   UNL     1      30.963  49.435  39.780  1.00  0.00    -0.344 OA
HETATM   19  C   UNL     1      31.312  50.084  40.937  1.00  0.00     0.101 A 
HETATM   20  C   UNL     1      30.798  51.346  41.267  1.00  0.00     0.001 A 
HETATM   21  C   UNL     1      32.172  49.432  41.833  1.00  0.00     0.069 A 
HETATM   22  C   UNL     1      31.164  51.955  42.472  1.00  0.00     0.038 A 
HETATM   23  C   UNL     1      29.868  52.008  40.360  1.00  0.00     0.025 C 
HETATM   24  C   UNL     1      32.037  51.302  43.341  1.00  0.00     0.036 A 
HETATM   25  C   UNL     1      32.540  50.043  43.031  1.00  0.00     0.050 A 
HETATM   26 CL   UNL     1      32.495  52.065  44.814  1.00  0.00    -0.084 Cl
HETATM   27 CL   UNL     1      32.812  47.867  41.482  1.00  0.00    -0.081 Cl
ENDBRANCH   2  16
TORSDOF 3
ENDMDL
MODEL 10
REMARK VINA RESULT:      -8.2     12.726     14.459
REMARK  3 active torsions:
REMARK  status: ('A' for Active; 'I' for Inactive)
REMARK    1  A    between atoms: C_7  and  C_8 
REMARK       I    between atoms: C_8  and  N_9 
REMARK    2  A    between atoms: N_9  and  N_10 
REMARK    3  A    between atoms: C_11  and  C_12 
ROOT
HETATM    1  N   UNL     1      28.148  51.151  37.933  1.00  0.00    -0.184 NA
HETATM    2  C   UNL     1      28.965  52.040  38.400  1.00  0.00     0.148 C 
ENDROOT
BRANCH   1   3
HETATM    3  N   UNL     1      28.345  49.847  38.276  1.00  0.00    -0.243 N 
HETATM    4  C   UNL     1      27.666  49.267  39.344  1.00  0.00     0.280 C 
HETATM    5  O   UNL     1      26.887  49.893  40.059  1.00  0.00    -0.265 OA
HETATM    6  H   UNL     1      28.990  49.277  37.742  1.00  0.00     0.192 HD
BRANCH   4   7
HETATM    7  C   UNL     1      27.926  47.847  39.524  1.00  0.00     0.102 A 
HETATM    8  C   UNL     1      29.081  47.237  39.992  1.00  0.00     0.056 A 
HETATM    9  C   UNL     1      30.340  47.908  40.415  1.00  0.00     0.072 C 
HETATM   10  N   UNL     1      29.019  45.853  40.078  1.00  0.00    -0.228 NA
HETATM   11  C   UNL     1      27.847  45.423  39.690  1.00  0.00     0.165 A 
HETATM   12  N   UNL     1      27.512  44.124  39.676  1.00  0.00    -0.378 N 
HETATM   13  S   UNL     1      26.754  46.636  39.177  1.00  0.00    -0.045 SA
HETATM   14  H   UNL     1      28.289  43.477  39.756  1.00  0.00     0.158 HD
HETATM   15  H   UNL     1      26.781  43.820  39.046  1.00  0.00     0.158 HD
ENDBRANCH   4   7
ENDBRANCH   1   3
BRANCH   2  16
HETATM   16  C   UNL     1      30.196  51.869  39.213  1.00  0.00    -0.014 C 
HETATM   17  C   UNL     1      31.477  51.637  38.473  1.00  0.00     0.216 C 
HETATM   18  O   UNL     1      32.533  51.047  39.248  1.00  0.00    -0.344 OA
HETATM   19  C   UNL     1      32.528  51.287  40.598  1.00  0.00     0.101 A 
HETATM   20  C   UNL     1      31.366  51.675  41.281  1.00  0.00     0.001 A 
HETATM   21  C   UNL     1      33.716  51.084  41.315  1.00  0.00     0.069 A 
HETATM   22  C   UNL     1      31.406  51.882  42.664  1.00  0.00     0.038 A 
HETATM   23  C   UNL     1      30.118  51.841  40.548  1.00  0.00     0.025 C 
HETATM   24  C   UNL     1      32.602  51.698  43.358  1.00  0.00     0.036 A 
HETATM   25  C   UNL     1      33.756  51.297  42.693  1.00  0.00     0.050 A 
HETATM   26 CL   UNL     1      32.646  51.970  45.057  1.00  0.00    -0.084 Cl
HETATM   27 CL   UNL     1      35.167  50.584  40.522  1.00  0.00    -0.081 Cl
ENDBRANCH   2  16
TORSDOF 3
ENDMDL
