MODEL 1
REMARK VINA RESULT:      -9.4      0.000      0.000
REMARK  6 active torsions:
REMARK  status: ('A' for Active; 'I' for Inactive)
REMARK    1  A    between atoms: C_2  and  O_3 
REMARK    2  A    between atoms: C_2  and  C_4 
REMARK    3  A    between atoms: C_6  and  N_7 
REMARK       I    between atoms: N_7  and  C_8 
REMARK    4  A    between atoms: C_8  and  C_9 
REMARK    5  A    between atoms: C_12  and  C_13 
REMARK    6  A    between atoms: C_18  and  C_19 
ROOT
HETATM    1  C   UNL     1      25.392  45.145  51.093  1.00  0.00     0.096 C 
HETATM    2  C   UNL     1      26.302  44.491  51.903  1.00  0.00     0.138 C 
HETATM    3  N   UNL     1      26.254  43.167  51.529  1.00  0.00    -0.240 N 
HETATM    4  C   UNL     1      27.029  42.106  52.148  1.00  0.00     0.221 C 
HETATM    5  C   UNL     1      28.156  42.691  53.019  1.00  0.00     0.067 C 
HETATM    6  C   UNL     1      27.642  43.885  53.836  1.00  0.00     0.125 C 
HETATM    7  N   UNL     1      27.126  44.905  52.907  1.00  0.00    -0.365 N 
HETATM    8  N   UNL     1      25.258  42.892  50.674  1.00  0.00    -0.181 NA
HETATM    9  C   UNL     1      24.759  44.097  50.383  1.00  0.00     0.160 C 
HETATM   10  H   UNL     1      26.857  45.751  53.417  1.00  0.00     0.162 HD
ENDROOT
BRANCH   1  11
HETATM   11  C   UNL     1      25.085  46.563  50.991  1.00  0.00     0.261 C 
HETATM   12  N   UNL     1      24.415  46.898  49.829  1.00  0.00    -0.323 N 
HETATM   13  H   UNL     1      24.139  46.115  49.246  1.00  0.00     0.169 HD
HETATM   14  O   UNL     1      25.381  47.327  51.901  1.00  0.00    -0.267 OA
BRANCH  12  15
HETATM   15  C   UNL     1      23.975  48.174  49.424  1.00  0.00     0.035 A 
HETATM   16  C   UNL     1      22.656  48.618  49.547  1.00  0.00     0.039 A 
HETATM   17  C   UNL     1      22.277  49.902  49.111  1.00  0.00    -0.028 A 
HETATM   18  C   UNL     1      23.247  50.734  48.537  1.00  0.00     0.010 A 
HETATM   19  C   UNL     1      24.568  50.305  48.423  1.00  0.00     0.003 A 
HETATM   20  C   UNL     1      24.929  49.033  48.868  1.00  0.00     0.029 A 
BRANCH  17  21
HETATM   21  C   UNL     1      20.833  50.341  49.233  1.00  0.00     0.147 C 
HETATM   22  C   UNL     1      20.565  51.633  48.474  1.00  0.00     0.044 C 
BRANCH  21  23
HETATM   23  O   UNL     1      20.483  50.529  50.603  1.00  0.00    -0.391 OA
HETATM   24  H   UNL     1      20.242  51.466  50.702  1.00  0.00     0.210 HD
ENDBRANCH  21  23
ENDBRANCH  17  21
ENDBRANCH  12  15
ENDBRANCH   1  11
BRANCH   4  25
HETATM   25  C   UNL     1      27.622  41.172  51.115  1.00  0.00     0.409 C 
HETATM   26  F   UNL     1      26.809  40.153  50.773  1.00  0.00    -0.169 F 
HETATM   27  F   UNL     1      27.989  41.821  49.987  1.00  0.00    -0.169 F 
HETATM   28  F   UNL     1      28.751  40.601  51.616  1.00  0.00    -0.169 F 
ENDBRANCH   4  25
BRANCH   6  29
HETATM   29  C   UNL     1      28.737  44.417  54.728  1.00  0.00     0.005 A 
HETATM   30  S   UNL     1      28.563  45.948  55.483  1.00  0.00    -0.104 SA
HETATM   31  C   UNL     1      30.082  45.813  56.254  1.00  0.00     0.050 A 
HETATM   32  C   UNL     1      30.715  44.630  55.947  1.00  0.00     0.008 A 
HETATM   33  C   UNL     1      29.942  43.826  55.063  1.00  0.00     0.017 A 
ENDBRANCH   6  29
TORSDOF 6
ENDMDL
MODEL 2
REMARK VINA RESULT:      -9.1      5.198      8.246
REMARK  6 active torsions:
REMARK  status: ('A' for Active; 'I' for Inactive)
REMARK    1  A    between atoms: C_2  and  O_3 
REMARK    2  A    between atoms: C_2  and  C_4 
REMARK    3  A    between atoms: C_6  and  N_7 
REMARK       I    between atoms: N_7  and  C_8 
REMARK    4  A    between atoms: C_8  and  C_9 
REMARK    5  A    between atoms: C_12  and  C_13 
REMARK    6  A    between atoms: C_18  and  C_19 
ROOT
HETATM    1  C   UNL     1      27.192  43.437  52.349  1.00  0.00     0.096 C 
HETATM    2  C   UNL     1      27.749  44.207  53.353  1.00  0.00     0.138 C 
HETATM    3  N   UNL     1      27.110  45.426  53.290  1.00  0.00    -0.240 N 
HETATM    4  C   UNL     1      27.409  46.559  54.147  1.00  0.00     0.221 C 
HETATM    5  C   UNL     1      28.267  46.122  55.349  1.00  0.00     0.067 C 
HETATM    6  C   UNL     1      29.365  45.147  54.904  1.00  0.00     0.125 C 
HETATM    7  N   UNL     1      28.730  43.977  54.271  1.00  0.00    -0.365 N 
HETATM    8  N   UNL     1      26.321  45.557  52.214  1.00  0.00    -0.181 NA
HETATM    9  C   UNL     1      26.344  44.339  51.663  1.00  0.00     0.160 C 
HETATM   10  H   UNL     1      29.432  43.269  54.042  1.00  0.00     0.162 HD
ENDROOT
BRANCH   1  11
HETATM   11  C   UNL     1      27.423  42.044  52.005  1.00  0.00     0.261 C 
HETATM   12  N   UNL     1      27.375  41.797  50.645  1.00  0.00    -0.323 N 
HETATM   13  H   UNL     1      27.283  42.619  50.059  1.00  0.00     0.169 HD
HETATM   14  O   UNL     1      27.673  41.223  52.879  1.00  0.00    -0.267 OA
BRANCH  12  15
HETATM   15  C   UNL     1      27.554  40.566  49.984  1.00  0.00     0.035 A 
HETATM   16  C   UNL     1      28.616  39.694  50.236  1.00  0.00     0.039 A 
HETATM   17  C   UNL     1      28.746  38.482  49.531  1.00  0.00    -0.028 A 
HETATM   18  C   UNL     1      27.792  38.162  48.557  1.00  0.00     0.010 A 
HETATM   19  C   UNL     1      26.721  39.018  48.309  1.00  0.00     0.003 A 
HETATM   20  C   UNL     1      26.602  40.212  49.022  1.00  0.00     0.029 A 
BRANCH  17  21
HETATM   21  C   UNL     1      29.925  37.574  49.808  1.00  0.00     0.147 C 
HETATM   22  C   UNL     1      29.903  37.028  51.228  1.00  0.00     0.044 C 
BRANCH  21  23
HETATM   23  O   UNL     1      31.152  38.272  49.602  1.00  0.00    -0.391 OA
HETATM   24  H   UNL     1      31.256  38.880  50.354  1.00  0.00     0.210 HD
ENDBRANCH  21  23
ENDBRANCH  17  21
ENDBRANCH  12  15
ENDBRANCH   1  11
BRANCH   4  25
HETATM   25  C   UNL     1      26.148  47.232  54.644  1.00  0.00     0.409 C 
HETATM   26  F   UNL     1      26.314  47.916  55.793  1.00  0.00    -0.169 F 
HETATM   27  F   UNL     1      25.616  48.068  53.724  1.00  0.00    -0.169 F 
HETATM   28  F   UNL     1      25.202  46.288  54.901  1.00  0.00    -0.169 F 
ENDBRANCH   4  25
BRANCH   6  29
HETATM   29  C   UNL     1      30.235  44.767  56.077  1.00  0.00     0.005 A 
HETATM   30  S   UNL     1      30.228  45.728  57.499  1.00  0.00    -0.104 SA
HETATM   31  C   UNL     1      31.357  44.707  58.274  1.00  0.00     0.050 A 
HETATM   32  C   UNL     1      31.738  43.654  57.472  1.00  0.00     0.008 A 
HETATM   33  C   UNL     1      31.094  43.691  56.203  1.00  0.00     0.017 A 
ENDBRANCH   6  29
TORSDOF 6
ENDMDL
MODEL 3
REMARK VINA RESULT:      -9.1      1.562      1.977
REMARK  6 active torsions:
REMARK  status: ('A' for Active; 'I' for Inactive)
REMARK    1  A    between atoms: C_2  and  O_3 
REMARK    2  A    between atoms: C_2  and  C_4 
REMARK    3  A    between atoms: C_6  and  N_7 
REMARK       I    between atoms: N_7  and  C_8 
REMARK    4  A    between atoms: C_8  and  C_9 
REMARK    5  A    between atoms: C_12  and  C_13 
REMARK    6  A    between atoms: C_18  and  C_19 
ROOT
HETATM    1  C   UNL     1      25.894  44.090  50.781  1.00  0.00     0.096 C 
HETATM    2  C   UNL     1      26.789  43.489  51.648  1.00  0.00     0.138 C 
HETATM    3  N   UNL     1      26.801  42.154  51.308  1.00  0.00    -0.240 N 
HETATM    4  C   UNL     1      27.584  41.138  51.989  1.00  0.00     0.221 C 
HETATM    5  C   UNL     1      28.650  41.785  52.892  1.00  0.00     0.067 C 
HETATM    6  C   UNL     1      28.061  42.981  53.653  1.00  0.00     0.125 C 
HETATM    7  N   UNL     1      27.553  43.958  52.674  1.00  0.00    -0.365 N 
HETATM    8  N   UNL     1      25.854  41.824  50.419  1.00  0.00    -0.181 NA
HETATM    9  C   UNL     1      25.328  43.002  50.074  1.00  0.00     0.160 C 
HETATM   10  H   UNL     1      27.233  44.807  53.149  1.00  0.00     0.162 HD
ENDROOT
BRANCH   1  11
HETATM   11  C   UNL     1      25.543  45.492  50.627  1.00  0.00     0.261 C 
HETATM   12  N   UNL     1      26.368  46.172  49.750  1.00  0.00    -0.323 N 
HETATM   13  H   UNL     1      27.043  45.598  49.256  1.00  0.00     0.169 HD
HETATM   14  O   UNL     1      24.573  45.956  51.214  1.00  0.00    -0.267 OA
BRANCH  12  15
HETATM   15  C   UNL     1      26.303  47.530  49.381  1.00  0.00     0.035 A 
HETATM   16  C   UNL     1      25.109  48.221  49.158  1.00  0.00     0.039 A 
HETATM   17  C   UNL     1      25.112  49.576  48.779  1.00  0.00    -0.028 A 
HETATM   18  C   UNL     1      26.341  50.230  48.615  1.00  0.00     0.010 A 
HETATM   19  C   UNL     1      27.536  49.553  48.848  1.00  0.00     0.003 A 
HETATM   20  C   UNL     1      27.516  48.211  49.233  1.00  0.00     0.029 A 
BRANCH  17  21
HETATM   21  C   UNL     1      23.801  50.287  48.517  1.00  0.00     0.147 C 
HETATM   22  C   UNL     1      22.627  49.576  49.174  1.00  0.00     0.044 C 
BRANCH  21  23
HETATM   23  O   UNL     1      23.556  50.383  47.115  1.00  0.00    -0.391 OA
HETATM   24  H   UNL     1      23.252  51.291  46.948  1.00  0.00     0.210 HD
ENDBRANCH  21  23
ENDBRANCH  17  21
ENDBRANCH  12  15
ENDBRANCH   1  11
BRANCH   4  25
HETATM   25  C   UNL     1      28.253  40.199  51.010  1.00  0.00     0.409 C 
HETATM   26  F   UNL     1      27.437  39.235  50.537  1.00  0.00    -0.169 F 
HETATM   27  F   UNL     1      28.792  40.854  49.957  1.00  0.00    -0.169 F 
HETATM   28  F   UNL     1      29.279  39.554  51.629  1.00  0.00    -0.169 F 
ENDBRANCH   4  25
BRANCH   6  29
HETATM   29  C   UNL     1      29.097  43.574  54.577  1.00  0.00     0.005 A 
HETATM   30  S   UNL     1      28.873  45.147  55.223  1.00  0.00    -0.104 SA
HETATM   31  C   UNL     1      30.341  45.070  56.094  1.00  0.00     0.050 A 
HETATM   32  C   UNL     1      30.995  43.875  55.900  1.00  0.00     0.008 A 
HETATM   33  C   UNL     1      30.281  43.012  55.021  1.00  0.00     0.017 A 
ENDBRANCH   6  29
TORSDOF 6
ENDMDL
MODEL 4
REMARK VINA RESULT:      -8.8      4.718      7.588
REMARK  6 active torsions:
REMARK  status: ('A' for Active; 'I' for Inactive)
REMARK    1  A    between atoms: C_2  and  O_3 
REMARK    2  A    between atoms: C_2  and  C_4 
REMARK    3  A    between atoms: C_6  and  N_7 
REMARK       I    between atoms: N_7  and  C_8 
REMARK    4  A    between atoms: C_8  and  C_9 
REMARK    5  A    between atoms: C_12  and  C_13 
REMARK    6  A    between atoms: C_18  and  C_19 
ROOT
HETATM    1  C   UNL     1      26.158  45.267  52.547  1.00  0.00     0.096 C 
HETATM    2  C   UNL     1      27.040  45.625  53.550  1.00  0.00     0.138 C 
HETATM    3  N   UNL     1      26.755  46.939  53.848  1.00  0.00    -0.240 N 
HETATM    4  C   UNL     1      27.469  47.736  54.831  1.00  0.00     0.221 C 
HETATM    5  C   UNL     1      28.335  46.839  55.734  1.00  0.00     0.067 C 
HETATM    6  C   UNL     1      29.053  45.766  54.903  1.00  0.00     0.125 C 
HETATM    7  N   UNL     1      28.040  44.962  54.196  1.00  0.00    -0.365 N 
HETATM    8  N   UNL     1      25.888  47.501  52.994  1.00  0.00    -0.181 NA
HETATM    9  C   UNL     1      25.500  46.478  52.227  1.00  0.00     0.160 C 
HETATM   10  H   UNL     1      28.483  44.182  53.702  1.00  0.00     0.162 HD
ENDROOT
BRANCH   1  11
HETATM   11  C   UNL     1      25.951  43.979  51.905  1.00  0.00     0.261 C 
HETATM   12  N   UNL     1      26.967  43.627  51.036  1.00  0.00    -0.323 N 
HETATM   13  H   UNL     1      27.766  44.253  51.027  1.00  0.00     0.169 HD
HETATM   14  O   UNL     1      24.970  43.300  52.181  1.00  0.00    -0.267 OA
BRANCH  12  15
HETATM   15  C   UNL     1      27.074  42.456  50.260  1.00  0.00     0.035 A 
HETATM   16  C   UNL     1      27.917  41.387  50.574  1.00  0.00     0.039 A 
HETATM   17  C   UNL     1      27.986  40.249  49.750  1.00  0.00    -0.028 A 
HETATM   18  C   UNL     1      27.198  40.203  48.593  1.00  0.00     0.010 A 
HETATM   19  C   UNL     1      26.343  41.257  48.279  1.00  0.00     0.003 A 
HETATM   20  C   UNL     1      26.279  42.376  49.111  1.00  0.00     0.029 A 
BRANCH  17  21
HETATM   21  C   UNL     1      28.933  39.121  50.104  1.00  0.00     0.147 C 
HETATM   22  C   UNL     1      28.346  37.758  49.768  1.00  0.00     0.044 C 
BRANCH  21  23
HETATM   23  O   UNL     1      29.252  39.155  51.494  1.00  0.00    -0.391 OA
HETATM   24  H   UNL     1      29.904  38.450  51.647  1.00  0.00     0.210 HD
ENDBRANCH  21  23
ENDBRANCH  17  21
ENDBRANCH  12  15
ENDBRANCH   1  11
BRANCH   4  25
HETATM   25  C   UNL     1      26.522  48.550  55.685  1.00  0.00     0.409 C 
HETATM   26  F   UNL     1      25.251  48.551  55.237  1.00  0.00    -0.169 F 
HETATM   27  F   UNL     1      26.518  48.144  56.975  1.00  0.00    -0.169 F 
HETATM   28  F   UNL     1      26.922  49.851  55.691  1.00  0.00    -0.169 F 
ENDBRANCH   4  25
BRANCH   6  29
HETATM   29  C   UNL     1      29.943  44.928  55.788  1.00  0.00     0.005 A 
HETATM   30  S   UNL     1      30.327  45.460  57.372  1.00  0.00    -0.104 SA
HETATM   31  C   UNL     1      31.271  44.070  57.682  1.00  0.00     0.050 A 
HETATM   32  C   UNL     1      31.299  43.214  56.604  1.00  0.00     0.008 A 
HETATM   33  C   UNL     1      30.537  43.710  55.509  1.00  0.00     0.017 A 
ENDBRANCH   6  29
TORSDOF 6
ENDMDL
MODEL 5
REMARK VINA RESULT:      -8.6      1.693      2.291
REMARK  6 active torsions:
REMARK  status: ('A' for Active; 'I' for Inactive)
REMARK    1  A    between atoms: C_2  and  O_3 
REMARK    2  A    between atoms: C_2  and  C_4 
REMARK    3  A    between atoms: C_6  and  N_7 
REMARK       I    between atoms: N_7  and  C_8 
REMARK    4  A    between atoms: C_8  and  C_9 
REMARK    5  A    between atoms: C_12  and  C_13 
REMARK    6  A    between atoms: C_18  and  C_19 
ROOT
HETATM    1  C   UNL     1      25.148  43.474  50.643  1.00  0.00     0.096 C 
HETATM    2  C   UNL     1      26.183  43.013  51.435  1.00  0.00     0.138 C 
HETATM    3  N   UNL     1      26.409  41.714  51.037  1.00  0.00    -0.240 N 
HETATM    4  C   UNL     1      27.396  40.829  51.631  1.00  0.00     0.221 C 
HETATM    5  C   UNL     1      28.383  41.624  52.506  1.00  0.00     0.067 C 
HETATM    6  C   UNL     1      27.639  42.669  53.349  1.00  0.00     0.125 C 
HETATM    7  N   UNL     1      26.911  43.574  52.442  1.00  0.00    -0.365 N 
HETATM    8  N   UNL     1      25.485  41.251  50.183  1.00  0.00    -0.181 NA
HETATM    9  C   UNL     1      24.741  42.329  49.918  1.00  0.00     0.160 C 
HETATM   10  H   UNL     1      26.475  44.335  52.969  1.00  0.00     0.162 HD
ENDROOT
BRANCH   1  11
HETATM   11  C   UNL     1      24.549  44.797  50.569  1.00  0.00     0.261 C 
HETATM   12  N   UNL     1      23.925  45.053  49.362  1.00  0.00    -0.323 N 
HETATM   13  H   UNL     1      23.878  44.266  48.724  1.00  0.00     0.169 HD
HETATM   14  O   UNL     1      24.590  45.551  51.534  1.00  0.00    -0.267 OA
BRANCH  12  15
HETATM   15  C   UNL     1      23.255  46.227  48.968  1.00  0.00     0.035 A 
HETATM   16  C   UNL     1      23.850  47.490  48.933  1.00  0.00     0.039 A 
HETATM   17  C   UNL     1      23.121  48.628  48.541  1.00  0.00    -0.028 A 
HETATM   18  C   UNL     1      21.772  48.479  48.190  1.00  0.00     0.010 A 
HETATM   19  C   UNL     1      21.174  47.221  48.207  1.00  0.00     0.003 A 
HETATM   20  C   UNL     1      21.913  46.101  48.591  1.00  0.00     0.029 A 
BRANCH  17  21
HETATM   21  C   UNL     1      23.789  49.987  48.543  1.00  0.00     0.147 C 
HETATM   22  C   UNL     1      22.816  51.100  48.907  1.00  0.00     0.044 C 
BRANCH  21  23
HETATM   23  O   UNL     1      24.353  50.268  47.263  1.00  0.00    -0.391 OA
HETATM   24  H   UNL     1      23.745  49.892  46.603  1.00  0.00     0.210 HD
ENDBRANCH  21  23
ENDBRANCH  17  21
ENDBRANCH  12  15
ENDBRANCH   1  11
BRANCH   4  25
HETATM   25  C   UNL     1      28.162  40.058  50.578  1.00  0.00     0.409 C 
HETATM   26  F   UNL     1      28.543  40.809  49.526  1.00  0.00    -0.169 F 
HETATM   27  F   UNL     1      29.256  39.447  51.085  1.00  0.00    -0.169 F 
HETATM   28  F   UNL     1      27.370  39.074  50.072  1.00  0.00    -0.169 F 
ENDBRANCH   4  25
BRANCH   6  29
HETATM   29  C   UNL     1      28.606  43.404  54.244  1.00  0.00     0.005 A 
HETATM   30  S   UNL     1      28.201  44.953  54.859  1.00  0.00    -0.104 SA
HETATM   31  C   UNL     1      29.678  45.075  55.710  1.00  0.00     0.050 A 
HETATM   32  C   UNL     1      30.469  43.962  55.533  1.00  0.00     0.008 A 
HETATM   33  C   UNL     1      29.854  42.999  54.684  1.00  0.00     0.017 A 
ENDBRANCH   6  29
TORSDOF 6
ENDMDL
MODEL 6
REMARK VINA RESULT:      -8.4      3.558      8.547
REMARK  6 active torsions:
REMARK  status: ('A' for Active; 'I' for Inactive)
REMARK    1  A    between atoms: C_2  and  O_3 
REMARK    2  A    between atoms: C_2  and  C_4 
REMARK    3  A    between atoms: C_6  and  N_7 
REMARK       I    between atoms: N_7  and  C_8 
REMARK    4  A    between atoms: C_8  and  C_9 
REMARK    5  A    between atoms: C_12  and  C_13 
REMARK    6  A    between atoms: C_18  and  C_19 
ROOT
HETATM    1  C   UNL     1      25.401  45.692  51.009  1.00  0.00     0.096 C 
HETATM    2  C   UNL     1      24.408  46.192  50.187  1.00  0.00     0.138 C 
HETATM    3  N   UNL     1      24.046  45.152  49.360  1.00  0.00    -0.240 N 
HETATM    4  C   UNL     1      23.050  45.244  48.307  1.00  0.00     0.221 C 
HETATM    5  C   UNL     1      22.210  46.525  48.461  1.00  0.00     0.067 C 
HETATM    6  C   UNL     1      23.106  47.720  48.818  1.00  0.00     0.125 C 
HETATM    7  N   UNL     1      23.819  47.416  50.072  1.00  0.00    -0.365 N 
HETATM    8  N   UNL     1      24.851  44.086  49.465  1.00  0.00    -0.181 NA
HETATM    9  C   UNL     1      25.651  44.399  50.488  1.00  0.00     0.160 C 
HETATM   10  H   UNL     1      24.358  48.228  50.383  1.00  0.00     0.162 HD
ENDROOT
BRANCH   1  11
HETATM   11  C   UNL     1      26.093  46.319  52.124  1.00  0.00     0.261 C 
HETATM   12  N   UNL     1      26.724  45.415  52.958  1.00  0.00    -0.323 N 
HETATM   13  H   UNL     1      26.711  44.451  52.642  1.00  0.00     0.169 HD
HETATM   14  O   UNL     1      26.111  47.538  52.234  1.00  0.00    -0.267 OA
BRANCH  12  15
HETATM   15  C   UNL     1      27.475  45.689  54.118  1.00  0.00     0.035 A 
HETATM   16  C   UNL     1      28.653  45.022  54.460  1.00  0.00     0.039 A 
HETATM   17  C   UNL     1      29.351  45.335  55.641  1.00  0.00    -0.028 A 
HETATM   18  C   UNL     1      28.839  46.329  56.485  1.00  0.00     0.010 A 
HETATM   19  C   UNL     1      27.672  47.011  56.146  1.00  0.00     0.003 A 
HETATM   20  C   UNL     1      26.996  46.694  54.966  1.00  0.00     0.029 A 
BRANCH  17  21
HETATM   21  C   UNL     1      30.609  44.571  55.996  1.00  0.00     0.147 C 
HETATM   22  C   UNL     1      30.620  43.176  55.388  1.00  0.00     0.044 C 
BRANCH  21  23
HETATM   23  O   UNL     1      30.742  44.458  57.412  1.00  0.00    -0.391 OA
HETATM   24  H   UNL     1      31.227  45.246  57.709  1.00  0.00     0.210 HD
ENDBRANCH  21  23
ENDBRANCH  17  21
ENDBRANCH  12  15
ENDBRANCH   1  11
BRANCH   4  25
HETATM   25  C   UNL     1      22.136  44.039  48.295  1.00  0.00     0.409 C 
HETATM   26  F   UNL     1      22.545  43.054  47.472  1.00  0.00    -0.169 F 
HETATM   27  F   UNL     1      21.961  43.516  49.530  1.00  0.00    -0.169 F 
HETATM   28  F   UNL     1      20.903  44.410  47.855  1.00  0.00    -0.169 F 
ENDBRANCH   4  25
BRANCH   6  29
HETATM   29  C   UNL     1      22.283  48.981  48.913  1.00  0.00     0.005 A 
HETATM   30  S   UNL     1      20.602  48.887  49.242  1.00  0.00    -0.104 SA
HETATM   31  C   UNL     1      20.433  50.587  49.203  1.00  0.00     0.050 A 
HETATM   32  C   UNL     1      21.628  51.220  48.944  1.00  0.00     0.008 A 
HETATM   33  C   UNL     1      22.695  50.294  48.772  1.00  0.00     0.017 A 
ENDBRANCH   6  29
TORSDOF 6
ENDMDL
MODEL 7
REMARK VINA RESULT:      -8.4      3.889      8.617
REMARK  6 active torsions:
REMARK  status: ('A' for Active; 'I' for Inactive)
REMARK    1  A    between atoms: C_2  and  O_3 
REMARK    2  A    between atoms: C_2  and  C_4 
REMARK    3  A    between atoms: C_6  and  N_7 
REMARK       I    between atoms: N_7  and  C_8 
REMARK    4  A    between atoms: C_8  and  C_9 
REMARK    5  A    between atoms: C_12  and  C_13 
REMARK    6  A    between atoms: C_18  and  C_19 
ROOT
HETATM    1  C   UNL     1      24.808  46.219  50.018  1.00  0.00     0.096 C 
HETATM    2  C   UNL     1      23.685  46.717  49.383  1.00  0.00     0.138 C 
HETATM    3  N   UNL     1      23.254  45.714  48.543  1.00  0.00    -0.240 N 
HETATM    4  C   UNL     1      22.113  45.821  47.650  1.00  0.00     0.221 C 
HETATM    5  C   UNL     1      21.248  47.042  48.013  1.00  0.00     0.067 C 
HETATM    6  C   UNL     1      22.133  48.257  48.324  1.00  0.00     0.125 C 
HETATM    7  N   UNL     1      23.032  47.912  49.440  1.00  0.00    -0.365 N 
HETATM    8  N   UNL     1      24.111  44.689  48.456  1.00  0.00    -0.181 NA
HETATM    9  C   UNL     1      25.036  44.978  49.376  1.00  0.00     0.160 C 
HETATM   10  H   UNL     1      23.574  48.731  49.730  1.00  0.00     0.162 HD
ENDROOT
BRANCH   1  11
HETATM   11  C   UNL     1      25.625  46.809  51.066  1.00  0.00     0.261 C 
HETATM   12  N   UNL     1      25.774  45.993  52.173  1.00  0.00    -0.323 N 
HETATM   13  H   UNL     1      25.384  45.061  52.080  1.00  0.00     0.169 HD
HETATM   14  O   UNL     1      26.138  47.909  50.906  1.00  0.00    -0.267 OA
BRANCH  12  15
HETATM   15  C   UNL     1      26.496  46.262  53.352  1.00  0.00     0.035 A 
HETATM   16  C   UNL     1      27.495  45.428  53.861  1.00  0.00     0.039 A 
HETATM   17  C   UNL     1      28.172  45.746  55.053  1.00  0.00    -0.028 A 
HETATM   18  C   UNL     1      27.823  46.918  55.736  1.00  0.00     0.010 A 
HETATM   19  C   UNL     1      26.838  47.764  55.229  1.00  0.00     0.003 A 
HETATM   20  C   UNL     1      26.181  47.438  54.041  1.00  0.00     0.029 A 
BRANCH  17  21
HETATM   21  C   UNL     1      29.229  44.805  55.591  1.00  0.00     0.147 C 
HETATM   22  C   UNL     1      30.421  45.557  56.166  1.00  0.00     0.044 C 
BRANCH  21  23
HETATM   23  O   UNL     1      29.687  43.929  54.563  1.00  0.00    -0.391 OA
HETATM   24  H   UNL     1      29.317  44.262  53.728  1.00  0.00     0.210 HD
ENDBRANCH  21  23
ENDBRANCH  17  21
ENDBRANCH  12  15
ENDBRANCH   1  11
BRANCH   4  25
HETATM   25  C   UNL     1      21.260  44.571  47.681  1.00  0.00     0.409 C 
HETATM   26  F   UNL     1      21.350  43.881  48.836  1.00  0.00    -0.169 F 
HETATM   27  F   UNL     1      19.956  44.834  47.443  1.00  0.00    -0.169 F 
HETATM   28  F   UNL     1      21.668  43.720  46.701  1.00  0.00    -0.169 F 
ENDBRANCH   4  25
BRANCH   6  29
HETATM   29  C   UNL     1      21.277  49.464  48.624  1.00  0.00     0.005 A 
HETATM   30  S   UNL     1      19.918  49.317  49.660  1.00  0.00    -0.104 SA
HETATM   31  C   UNL     1      19.539  50.976  49.507  1.00  0.00     0.050 A 
HETATM   32  C   UNL     1      20.424  51.635  48.684  1.00  0.00     0.008 A 
HETATM   33  C   UNL     1      21.425  50.762  48.171  1.00  0.00     0.017 A 
ENDBRANCH   6  29
TORSDOF 6
ENDMDL
MODEL 8
REMARK VINA RESULT:      -8.4      4.455      8.968
REMARK  6 active torsions:
REMARK  status: ('A' for Active; 'I' for Inactive)
REMARK    1  A    between atoms: C_2  and  O_3 
REMARK    2  A    between atoms: C_2  and  C_4 
REMARK    3  A    between atoms: C_6  and  N_7 
REMARK       I    between atoms: N_7  and  C_8 
REMARK    4  A    between atoms: C_8  and  C_9 
REMARK    5  A    between atoms: C_12  and  C_13 
REMARK    6  A    between atoms: C_18  and  C_19 
ROOT
HETATM    1  C   UNL     1      28.272  43.625  53.336  1.00  0.00     0.096 C 
HETATM    2  C   UNL     1      27.312  44.591  53.095  1.00  0.00     0.138 C 
HETATM    3  N   UNL     1      27.265  45.365  54.233  1.00  0.00    -0.240 N 
HETATM    4  C   UNL     1      26.362  46.485  54.432  1.00  0.00     0.221 C 
HETATM    5  C   UNL     1      25.724  46.914  53.098  1.00  0.00     0.067 C 
HETATM    6  C   UNL     1      25.302  45.685  52.281  1.00  0.00     0.125 C 
HETATM    7  N   UNL     1      26.491  44.850  52.038  1.00  0.00    -0.365 N 
HETATM    8  N   UNL     1      27.984  44.863  55.247  1.00  0.00    -0.181 NA
HETATM    9  C   UNL     1      28.622  43.828  54.692  1.00  0.00     0.160 C 
HETATM   10  H   UNL     1      26.259  44.067  51.420  1.00  0.00     0.162 HD
ENDROOT
BRANCH   1  11
HETATM   11  C   UNL     1      28.796  42.593  52.456  1.00  0.00     0.261 C 
HETATM   12  N   UNL     1      27.841  42.041  51.623  1.00  0.00    -0.323 N 
HETATM   13  H   UNL     1      26.929  42.484  51.657  1.00  0.00     0.169 HD
HETATM   14  O   UNL     1      29.989  42.313  52.472  1.00  0.00    -0.267 OA
BRANCH  12  15
HETATM   15  C   UNL     1      28.015  41.028  50.661  1.00  0.00     0.035 A 
HETATM   16  C   UNL     1      28.889  39.949  50.815  1.00  0.00     0.039 A 
HETATM   17  C   UNL     1      29.027  38.974  49.809  1.00  0.00    -0.028 A 
HETATM   18  C   UNL     1      28.276  39.105  48.634  1.00  0.00     0.010 A 
HETATM   19  C   UNL     1      27.390  40.169  48.477  1.00  0.00     0.003 A 
HETATM   20  C   UNL     1      27.259  41.123  49.487  1.00  0.00     0.029 A 
BRANCH  17  21
HETATM   21  C   UNL     1      30.005  37.834  49.996  1.00  0.00     0.147 C 
HETATM   22  C   UNL     1      29.819  37.138  51.337  1.00  0.00     0.044 C 
BRANCH  21  23
HETATM   23  O   UNL     1      31.348  38.308  49.905  1.00  0.00    -0.391 OA
HETATM   24  H   UNL     1      31.302  39.199  49.520  1.00  0.00     0.210 HD
ENDBRANCH  21  23
ENDBRANCH  17  21
ENDBRANCH  12  15
ENDBRANCH   1  11
BRANCH   4  25
HETATM   25  C   UNL     1      27.069  47.668  55.058  1.00  0.00     0.409 C 
HETATM   26  F   UNL     1      26.338  48.800  55.056  1.00  0.00    -0.169 F 
HETATM   27  F   UNL     1      27.463  47.417  56.327  1.00  0.00    -0.169 F 
HETATM   28  F   UNL     1      28.197  47.947  54.351  1.00  0.00    -0.169 F 
ENDBRANCH   4  25
BRANCH   6  29
HETATM   29  C   UNL     1      24.627  46.115  51.001  1.00  0.00     0.005 A 
HETATM   30  S   UNL     1      23.879  44.949  49.990  1.00  0.00    -0.104 SA
HETATM   31  C   UNL     1      23.387  46.141  48.868  1.00  0.00     0.050 A 
HETATM   32  C   UNL     1      23.781  47.403  49.249  1.00  0.00     0.008 A 
HETATM   33  C   UNL     1      24.501  47.389  50.477  1.00  0.00     0.017 A 
ENDBRANCH   6  29
TORSDOF 6
ENDMDL
MODEL 9
REMARK VINA RESULT:      -8.4      4.755      7.254
REMARK  6 active torsions:
REMARK  status: ('A' for Active; 'I' for Inactive)
REMARK    1  A    between atoms: C_2  and  O_3 
REMARK    2  A    between atoms: C_2  and  C_4 
REMARK    3  A    between atoms: C_6  and  N_7 
REMARK       I    between atoms: N_7  and  C_8 
REMARK    4  A    between atoms: C_8  and  C_9 
REMARK    5  A    between atoms: C_12  and  C_13 
REMARK    6  A    between atoms: C_18  and  C_19 
ROOT
HETATM    1  C   UNL     1      26.347  45.248  52.562  1.00  0.00     0.096 C 
HETATM    2  C   UNL     1      27.180  45.628  53.598  1.00  0.00     0.138 C 
HETATM    3  N   UNL     1      26.864  46.940  53.873  1.00  0.00    -0.240 N 
HETATM    4  C   UNL     1      27.524  47.755  54.877  1.00  0.00     0.221 C 
HETATM    5  C   UNL     1      28.364  46.878  55.824  1.00  0.00     0.067 C 
HETATM    6  C   UNL     1      29.132  45.809  55.033  1.00  0.00     0.125 C 
HETATM    7  N   UNL     1      28.161  44.984  54.292  1.00  0.00    -0.365 N 
HETATM    8  N   UNL     1      26.026  47.482  52.978  1.00  0.00    -0.181 NA
HETATM    9  C   UNL     1      25.686  46.447  52.204  1.00  0.00     0.160 C 
HETATM   10  H   UNL     1      28.636  44.207  53.824  1.00  0.00     0.162 HD
ENDROOT
BRANCH   1  11
HETATM   11  C   UNL     1      26.185  43.952  51.923  1.00  0.00     0.261 C 
HETATM   12  N   UNL     1      27.330  43.502  51.294  1.00  0.00    -0.323 N 
HETATM   13  H   UNL     1      28.156  44.074  51.436  1.00  0.00     0.169 HD
HETATM   14  O   UNL     1      25.122  43.349  52.006  1.00  0.00    -0.267 OA
BRANCH  12  15
HETATM   15  C   UNL     1      27.511  42.297  50.586  1.00  0.00     0.035 A 
HETATM   16  C   UNL     1      27.113  42.104  49.261  1.00  0.00     0.039 A 
HETATM   17  C   UNL     1      27.310  40.871  48.614  1.00  0.00    -0.028 A 
HETATM   18  C   UNL     1      27.909  39.823  49.325  1.00  0.00     0.010 A 
HETATM   19  C   UNL     1      28.323  40.009  50.642  1.00  0.00     0.003 A 
HETATM   20  C   UNL     1      28.128  41.242  51.268  1.00  0.00     0.029 A 
BRANCH  17  21
HETATM   21  C   UNL     1      26.840  40.687  47.186  1.00  0.00     0.147 C 
HETATM   22  C   UNL     1      27.969  40.882  46.185  1.00  0.00     0.044 C 
BRANCH  21  23
HETATM   23  O   UNL     1      25.791  41.605  46.884  1.00  0.00    -0.391 OA
HETATM   24  H   UNL     1      26.190  42.318  46.357  1.00  0.00     0.210 HD
ENDBRANCH  21  23
ENDBRANCH  17  21
ENDBRANCH  12  15
ENDBRANCH   1  11
BRANCH   4  25
HETATM   25  C   UNL     1      26.531  48.562  55.684  1.00  0.00     0.409 C 
HETATM   26  F   UNL     1      25.278  48.534  55.188  1.00  0.00    -0.169 F 
HETATM   27  F   UNL     1      26.485  48.174  56.978  1.00  0.00    -0.169 F 
HETATM   28  F   UNL     1      26.906  49.870  55.686  1.00  0.00    -0.169 F 
ENDBRANCH   4  25
BRANCH   6  29
HETATM   29  C   UNL     1      29.995  44.991  55.962  1.00  0.00     0.005 A 
HETATM   30  S   UNL     1      30.608  43.473  55.451  1.00  0.00    -0.104 SA
HETATM   31  C   UNL     1      31.418  43.226  56.936  1.00  0.00     0.050 A 
HETATM   32  C   UNL     1      31.229  44.275  57.808  1.00  0.00     0.008 A 
HETATM   33  C   UNL     1      30.404  45.291  57.249  1.00  0.00     0.017 A 
ENDBRANCH   6  29
TORSDOF 6
ENDMDL
MODEL 10
REMARK VINA RESULT:      -8.1      2.778      4.432
REMARK  6 active torsions:
REMARK  status: ('A' for Active; 'I' for Inactive)
REMARK    1  A    between atoms: C_2  and  O_3 
REMARK    2  A    between atoms: C_2  and  C_4 
REMARK    3  A    between atoms: C_6  and  N_7 
REMARK       I    between atoms: N_7  and  C_8 
REMARK    4  A    between atoms: C_8  and  C_9 
REMARK    5  A    between atoms: C_12  and  C_13 
REMARK    6  A    between atoms: C_18  and  C_19 
ROOT
HETATM    1  C   UNL     1      25.147  46.267  51.023  1.00  0.00     0.096 C 
HETATM    2  C   UNL     1      25.809  45.058  51.134  1.00  0.00     0.138 C 
HETATM    3  N   UNL     1      26.432  45.084  52.362  1.00  0.00    -0.240 N 
HETATM    4  C   UNL     1      27.275  44.021  52.881  1.00  0.00     0.221 C 
HETATM    5  C   UNL     1      27.100  42.733  52.055  1.00  0.00     0.067 C 
HETATM    6  C   UNL     1      27.055  43.055  50.555  1.00  0.00     0.125 C 
HETATM    7  N   UNL     1      25.938  43.984  50.305  1.00  0.00    -0.365 N 
HETATM    8  N   UNL     1      26.372  46.280  52.964  1.00  0.00    -0.181 NA
HETATM    9  C   UNL     1      25.563  46.987  52.168  1.00  0.00     0.160 C 
HETATM   10  H   UNL     1      25.828  44.148  49.301  1.00  0.00     0.162 HD
ENDROOT
BRANCH   1  11
HETATM   11  C   UNL     1      24.263  46.752  49.976  1.00  0.00     0.261 C 
HETATM   12  N   UNL     1      23.895  48.076  50.136  1.00  0.00    -0.323 N 
HETATM   13  H   UNL     1      24.357  48.565  50.895  1.00  0.00     0.169 HD
HETATM   14  O   UNL     1      23.944  46.022  49.046  1.00  0.00    -0.267 OA
BRANCH  12  15
HETATM   15  C   UNL     1      23.056  48.845  49.306  1.00  0.00     0.035 A 
HETATM   16  C   UNL     1      21.682  48.630  49.174  1.00  0.00     0.039 A 
HETATM   17  C   UNL     1      20.899  49.427  48.318  1.00  0.00    -0.028 A 
HETATM   18  C   UNL     1      21.523  50.445  47.584  1.00  0.00     0.010 A 
HETATM   19  C   UNL     1      22.890  50.677  47.720  1.00  0.00     0.003 A 
HETATM   20  C   UNL     1      23.651  49.883  48.580  1.00  0.00     0.029 A 
BRANCH  17  21
HETATM   21  C   UNL     1      19.418  49.148  48.176  1.00  0.00     0.147 C 
HETATM   22  C   UNL     1      18.881  48.319  49.334  1.00  0.00     0.044 C 
BRANCH  21  23
HETATM   23  O   UNL     1      19.155  48.459  46.955  1.00  0.00    -0.391 OA
HETATM   24  H   UNL     1      18.308  47.997  47.074  1.00  0.00     0.210 HD
ENDBRANCH  21  23
ENDBRANCH  17  21
ENDBRANCH  12  15
ENDBRANCH   1  11
BRANCH   4  25
HETATM   25  C   UNL     1      26.978  43.732  54.337  1.00  0.00     0.409 C 
HETATM   26  F   UNL     1      27.629  44.542  55.195  1.00  0.00    -0.169 F 
HETATM   27  F   UNL     1      25.656  43.794  54.612  1.00  0.00    -0.169 F 
HETATM   28  F   UNL     1      27.376  42.466  54.638  1.00  0.00    -0.169 F 
ENDBRANCH   4  25
BRANCH   6  29
HETATM   29  C   UNL     1      26.939  41.783  49.751  1.00  0.00     0.005 A 
HETATM   30  S   UNL     1      26.383  40.342  50.498  1.00  0.00    -0.104 SA
HETATM   31  C   UNL     1      26.516  39.458  49.041  1.00  0.00     0.050 A 
HETATM   32  C   UNL     1      26.975  40.237  48.004  1.00  0.00     0.008 A 
HETATM   33  C   UNL     1      27.224  41.578  48.413  1.00  0.00     0.017 A 
ENDBRANCH   6  29
TORSDOF 6
ENDMDL
