MODEL 1
REMARK VINA RESULT:      -8.7      0.000      0.000
REMARK  6 active torsions:
REMARK  status: ('A' for Active; 'I' for Inactive)
REMARK    1  A    between atoms: O_2  and  C_3 
REMARK    2  A    between atoms: C_7  and  C_8 
REMARK    3  A    between atoms: C_8  and  N_9 
REMARK       I    between atoms: N_9  and  C_10 
REMARK       I    between atoms: C_10  and  N_12 
REMARK    4  A    between atoms: N_12  and  C_13 
REMARK    5  A    between atoms: C_16  and  C_21 
REMARK    6  A    between atoms: C_18  and  O_19 
ROOT
HETATM    1  N   UNL     1      24.166  47.335  50.655  1.00  0.00    -0.339 N 
HETATM    2  C   UNL     1      25.401  47.051  51.196  1.00  0.00     0.321 C 
HETATM    3  O   UNL     1      26.440  47.260  50.581  1.00  0.00    -0.247 OA
HETATM    4  N   UNL     1      25.295  46.531  52.462  1.00  0.00    -0.306 N 
HETATM    5  H   UNL     1      23.369  46.839  51.021  1.00  0.00     0.164 HD
HETATM    6  H   UNL     1      24.369  46.369  52.831  1.00  0.00     0.171 HD
ENDROOT
BRANCH   4   7
HETATM    7  C   UNL     1      26.345  46.156  53.329  1.00  0.00     0.069 A 
HETATM    8  C   UNL     1      27.113  45.005  53.172  1.00  0.00     0.033 A 
HETATM    9  C   UNL     1      28.144  44.710  54.075  1.00  0.00     0.015 A 
HETATM   10  C   UNL     1      28.434  45.563  55.149  1.00  0.00    -0.020 A 
HETATM   11  C   UNL     1      27.664  46.723  55.307  1.00  0.00     0.051 A 
HETATM   12  C   UNL     1      26.620  47.001  54.416  1.00  0.00     0.095 A 
BRANCH  10  13
HETATM   13  C   UNL     1      29.505  45.227  56.073  1.00  0.00     0.010 A 
HETATM   14  C   UNL     1      30.583  44.316  55.943  1.00  0.00     0.152 A 
HETATM   15  N   UNL     1      31.376  44.291  57.018  1.00  0.00    -0.187 NA
HETATM   16  N   UNL     1      30.816  45.192  57.839  1.00  0.00    -0.289 N 
HETATM   17  H   UNL     1      31.255  45.360  58.738  1.00  0.00     0.188 HD
HETATM   18  C   UNL     1      29.695  45.777  57.323  1.00  0.00     0.123 A 
ENDBRANCH  10  13
BRANCH  12  19
HETATM   19  O   UNL     1      25.854  48.135  54.566  1.00  0.00    -0.354 OA
HETATM   20  C   UNL     1      26.191  48.816  55.777  1.00  0.00     0.210 C 
ENDBRANCH  12  19
ENDBRANCH   4   7
BRANCH   1  21
HETATM   21  C   UNL     1      24.088  47.769  49.277  1.00  0.00     0.163 C 
BRANCH  21  22
HETATM   22  C   UNL     1      23.161  48.942  49.091  1.00  0.00    -0.038 A 
HETATM   23  C   UNL     1      23.652  50.183  48.664  1.00  0.00     0.009 A 
HETATM   24  C   UNL     1      22.781  51.245  48.430  1.00  0.00     0.003 A 
HETATM   25  C   UNL     1      21.408  51.070  48.604  1.00  0.00     0.037 A 
HETATM   26  C   UNL     1      20.896  49.834  49.005  1.00  0.00     0.068 A 
HETATM   27  C   UNL     1      21.773  48.777  49.254  1.00  0.00     0.045 A 
BRANCH  26  28
HETATM   28  O   UNL     1      19.533  49.790  49.115  1.00  0.00    -0.356 OA
HETATM   29  C   UNL     1      19.000  49.043  50.202  1.00  0.00     0.210 C 
ENDBRANCH  26  28
ENDBRANCH  21  22
ENDBRANCH   1  21
TORSDOF 6
ENDMDL
MODEL 2
REMARK VINA RESULT:      -8.7      0.964      2.019
REMARK  6 active torsions:
REMARK  status: ('A' for Active; 'I' for Inactive)
REMARK    1  A    between atoms: O_2  and  C_3 
REMARK    2  A    between atoms: C_7  and  C_8 
REMARK    3  A    between atoms: C_8  and  N_9 
REMARK       I    between atoms: N_9  and  C_10 
REMARK       I    between atoms: C_10  and  N_12 
REMARK    4  A    between atoms: N_12  and  C_13 
REMARK    5  A    between atoms: C_16  and  C_21 
REMARK    6  A    between atoms: C_18  and  O_19 
ROOT
HETATM    1  N   UNL     1      24.056  47.137  50.376  1.00  0.00    -0.339 N 
HETATM    2  C   UNL     1      25.218  47.208  51.115  1.00  0.00     0.321 C 
HETATM    3  O   UNL     1      26.179  47.872  50.745  1.00  0.00    -0.247 OA
HETATM    4  N   UNL     1      25.136  46.466  52.267  1.00  0.00    -0.306 N 
HETATM    5  H   UNL     1      23.460  46.337  50.518  1.00  0.00     0.164 HD
HETATM    6  H   UNL     1      24.294  45.928  52.424  1.00  0.00     0.171 HD
ENDROOT
BRANCH   4   7
HETATM    7  C   UNL     1      26.114  46.330  53.275  1.00  0.00     0.069 A 
HETATM    8  C   UNL     1      26.410  47.317  54.212  1.00  0.00     0.033 A 
HETATM    9  C   UNL     1      27.392  47.098  55.188  1.00  0.00     0.015 A 
HETATM   10  C   UNL     1      28.094  45.886  55.252  1.00  0.00    -0.020 A 
HETATM   11  C   UNL     1      27.796  44.892  54.312  1.00  0.00     0.051 A 
HETATM   12  C   UNL     1      26.830  45.123  53.324  1.00  0.00     0.095 A 
BRANCH  10  13
HETATM   13  C   UNL     1      29.113  45.691  56.272  1.00  0.00     0.010 A 
HETATM   14  C   UNL     1      29.170  46.138  57.616  1.00  0.00     0.152 A 
HETATM   15  N   UNL     1      30.279  45.745  58.248  1.00  0.00    -0.187 NA
HETATM   16  N   UNL     1      30.935  45.037  57.317  1.00  0.00    -0.289 N 
HETATM   17  H   UNL     1      31.824  44.620  57.569  1.00  0.00     0.188 HD
HETATM   18  C   UNL     1      30.283  44.977  56.118  1.00  0.00     0.123 A 
ENDBRANCH  10  13
BRANCH  12  19
HETATM   19  O   UNL     1      26.535  44.154  52.392  1.00  0.00    -0.354 OA
HETATM   20  C   UNL     1      27.635  43.957  51.502  1.00  0.00     0.210 C 
ENDBRANCH  12  19
ENDBRANCH   4   7
BRANCH   1  21
HETATM   21  C   UNL     1      24.019  47.755  49.069  1.00  0.00     0.163 C 
BRANCH  21  22
HETATM   22  C   UNL     1      23.064  48.919  49.006  1.00  0.00    -0.038 A 
HETATM   23  C   UNL     1      23.519  50.203  48.675  1.00  0.00     0.009 A 
HETATM   24  C   UNL     1      22.621  51.261  48.554  1.00  0.00     0.003 A 
HETATM   25  C   UNL     1      21.257  51.041  48.745  1.00  0.00     0.037 A 
HETATM   26  C   UNL     1      20.780  49.765  49.052  1.00  0.00     0.068 A 
HETATM   27  C   UNL     1      21.685  48.710  49.188  1.00  0.00     0.045 A 
BRANCH  26  28
HETATM   28  O   UNL     1      19.422  49.681  49.190  1.00  0.00    -0.356 OA
HETATM   29  C   UNL     1      18.934  48.925  50.293  1.00  0.00     0.210 C 
ENDBRANCH  26  28
ENDBRANCH  21  22
ENDBRANCH   1  21
TORSDOF 6
ENDMDL
MODEL 3
REMARK VINA RESULT:      -8.2      3.095      9.602
REMARK  6 active torsions:
REMARK  status: ('A' for Active; 'I' for Inactive)
REMARK    1  A    between atoms: O_2  and  C_3 
REMARK    2  A    between atoms: C_7  and  C_8 
REMARK    3  A    between atoms: C_8  and  N_9 
REMARK       I    between atoms: N_9  and  C_10 
REMARK       I    between atoms: C_10  and  N_12 
REMARK    4  A    between atoms: N_12  and  C_13 
REMARK    5  A    between atoms: C_16  and  C_21 
REMARK    6  A    between atoms: C_18  and  O_19 
ROOT
HETATM    1  N   UNL     1      27.462  44.062  51.712  1.00  0.00    -0.339 N 
HETATM    2  C   UNL     1      26.284  44.756  51.547  1.00  0.00     0.321 C 
HETATM    3  O   UNL     1      25.364  44.670  52.353  1.00  0.00    -0.247 OA
HETATM    4  N   UNL     1      26.297  45.521  50.407  1.00  0.00    -0.306 N 
HETATM    5  H   UNL     1      28.018  43.881  50.891  1.00  0.00     0.164 HD
HETATM    6  H   UNL     1      27.109  45.461  49.807  1.00  0.00     0.171 HD
ENDROOT
BRANCH   4   7
HETATM    7  C   UNL     1      25.284  46.383  49.936  1.00  0.00     0.069 A 
HETATM    8  C   UNL     1      24.008  45.961  49.571  1.00  0.00     0.033 A 
HETATM    9  C   UNL     1      23.056  46.886  49.120  1.00  0.00     0.015 A 
HETATM   10  C   UNL     1      23.356  48.252  49.033  1.00  0.00    -0.020 A 
HETATM   11  C   UNL     1      24.638  48.679  49.402  1.00  0.00     0.051 A 
HETATM   12  C   UNL     1      25.594  47.749  49.829  1.00  0.00     0.095 A 
BRANCH  10  13
HETATM   13  C   UNL     1      22.349  49.187  48.555  1.00  0.00     0.010 A 
HETATM   14  C   UNL     1      22.148  50.558  48.852  1.00  0.00     0.152 A 
HETATM   15  N   UNL     1      21.107  51.084  48.202  1.00  0.00    -0.187 NA
HETATM   16  N   UNL     1      20.639  50.057  47.477  1.00  0.00    -0.289 N 
HETATM   17  H   UNL     1      19.836  50.217  46.880  1.00  0.00     0.188 HD
HETATM   18  C   UNL     1      21.344  48.900  47.655  1.00  0.00     0.123 A 
ENDBRANCH  10  13
BRANCH  12  19
HETATM   19  O   UNL     1      26.858  48.158  50.188  1.00  0.00    -0.354 OA
HETATM   20  C   UNL     1      27.549  48.710  49.066  1.00  0.00     0.210 C 
ENDBRANCH  12  19
ENDBRANCH   4   7
BRANCH   1  21
HETATM   21  C   UNL     1      27.567  43.107  52.794  1.00  0.00     0.163 C 
BRANCH  21  22
HETATM   22  C   UNL     1      28.523  43.553  53.869  1.00  0.00    -0.038 A 
HETATM   23  C   UNL     1      29.745  42.894  54.061  1.00  0.00     0.009 A 
HETATM   24  C   UNL     1      30.654  43.352  55.013  1.00  0.00     0.003 A 
HETATM   25  C   UNL     1      30.355  44.485  55.770  1.00  0.00     0.037 A 
HETATM   26  C   UNL     1      29.154  45.171  55.578  1.00  0.00     0.068 A 
HETATM   27  C   UNL     1      28.240  44.699  54.634  1.00  0.00     0.045 A 
BRANCH  26  28
HETATM   28  O   UNL     1      28.997  46.278  56.366  1.00  0.00    -0.356 OA
HETATM   29  C   UNL     1      29.053  46.076  57.773  1.00  0.00     0.210 C 
ENDBRANCH  26  28
ENDBRANCH  21  22
ENDBRANCH   1  21
TORSDOF 6
ENDMDL
MODEL 4
REMARK VINA RESULT:      -8.0      3.136      9.469
REMARK  6 active torsions:
REMARK  status: ('A' for Active; 'I' for Inactive)
REMARK    1  A    between atoms: O_2  and  C_3 
REMARK    2  A    between atoms: C_7  and  C_8 
REMARK    3  A    between atoms: C_8  and  N_9 
REMARK       I    between atoms: N_9  and  C_10 
REMARK       I    between atoms: C_10  and  N_12 
REMARK    4  A    between atoms: N_12  and  C_13 
REMARK    5  A    between atoms: C_16  and  C_21 
REMARK    6  A    between atoms: C_18  and  O_19 
ROOT
HETATM    1  N   UNL     1      26.865  42.892  53.028  1.00  0.00    -0.339 N 
HETATM    2  C   UNL     1      26.797  43.945  52.140  1.00  0.00     0.321 C 
HETATM    3  O   UNL     1      27.770  44.303  51.487  1.00  0.00    -0.247 OA
HETATM    4  N   UNL     1      25.540  44.496  52.099  1.00  0.00    -0.306 N 
HETATM    5  H   UNL     1      26.186  42.863  53.772  1.00  0.00     0.164 HD
HETATM    6  H   UNL     1      24.841  44.127  52.728  1.00  0.00     0.171 HD
ENDROOT
BRANCH   4   7
HETATM    7  C   UNL     1      25.094  45.561  51.286  1.00  0.00     0.069 A 
HETATM    8  C   UNL     1      25.474  46.889  51.463  1.00  0.00     0.033 A 
HETATM    9  C   UNL     1      24.990  47.886  50.604  1.00  0.00     0.015 A 
HETATM   10  C   UNL     1      24.123  47.576  49.548  1.00  0.00    -0.020 A 
HETATM   11  C   UNL     1      23.742  46.240  49.368  1.00  0.00     0.051 A 
HETATM   12  C   UNL     1      24.209  45.250  50.241  1.00  0.00     0.095 A 
BRANCH  10  13
HETATM   13  C   UNL     1      23.633  48.633  48.678  1.00  0.00     0.010 A 
HETATM   14  C   UNL     1      24.312  49.720  48.074  1.00  0.00     0.152 A 
HETATM   15  N   UNL     1      23.512  50.484  47.326  1.00  0.00    -0.187 NA
HETATM   16  N   UNL     1      22.316  49.886  47.438  1.00  0.00    -0.289 N 
HETATM   17  H   UNL     1      21.530  50.288  46.939  1.00  0.00     0.188 HD
HETATM   18  C   UNL     1      22.334  48.779  48.237  1.00  0.00     0.123 A 
ENDBRANCH  10  13
BRANCH  12  19
HETATM   19  O   UNL     1      23.835  43.936  50.076  1.00  0.00    -0.354 OA
HETATM   20  C   UNL     1      22.478  43.848  49.636  1.00  0.00     0.210 C 
ENDBRANCH  12  19
ENDBRANCH   4   7
BRANCH   1  21
HETATM   21  C   UNL     1      28.149  42.281  53.292  1.00  0.00     0.163 C 
BRANCH  21  22
HETATM   22  C   UNL     1      28.960  43.051  54.301  1.00  0.00    -0.038 A 
HETATM   23  C   UNL     1      30.253  42.635  54.651  1.00  0.00     0.009 A 
HETATM   24  C   UNL     1      31.022  43.388  55.535  1.00  0.00     0.003 A 
HETATM   25  C   UNL     1      30.513  44.574  56.064  1.00  0.00     0.037 A 
HETATM   26  C   UNL     1      29.237  45.019  55.711  1.00  0.00     0.068 A 
HETATM   27  C   UNL     1      28.463  44.253  54.837  1.00  0.00     0.045 A 
BRANCH  26  28
HETATM   28  O   UNL     1      28.868  46.206  56.281  1.00  0.00    -0.356 OA
HETATM   29  C   UNL     1      28.768  46.233  57.700  1.00  0.00     0.210 C 
ENDBRANCH  26  28
ENDBRANCH  21  22
ENDBRANCH   1  21
TORSDOF 6
ENDMDL
MODEL 5
REMARK VINA RESULT:      -7.9      2.686      3.441
REMARK  6 active torsions:
REMARK  status: ('A' for Active; 'I' for Inactive)
REMARK    1  A    between atoms: O_2  and  C_3 
REMARK    2  A    between atoms: C_7  and  C_8 
REMARK    3  A    between atoms: C_8  and  N_9 
REMARK       I    between atoms: N_9  and  C_10 
REMARK       I    between atoms: C_10  and  N_12 
REMARK    4  A    between atoms: N_12  and  C_13 
REMARK    5  A    between atoms: C_16  and  C_21 
REMARK    6  A    between atoms: C_18  and  O_19 
ROOT
HETATM    1  N   UNL     1      22.993  48.859  49.718  1.00  0.00    -0.339 N 
HETATM    2  C   UNL     1      24.168  48.165  49.911  1.00  0.00     0.321 C 
HETATM    3  O   UNL     1      25.251  48.620  49.562  1.00  0.00    -0.247 OA
HETATM    4  N   UNL     1      23.952  46.957  50.525  1.00  0.00    -0.306 N 
HETATM    5  H   UNL     1      22.136  48.328  49.685  1.00  0.00     0.164 HD
HETATM    6  H   UNL     1      22.997  46.688  50.717  1.00  0.00     0.171 HD
ENDROOT
BRANCH   4   7
HETATM    7  C   UNL     1      24.918  46.002  50.909  1.00  0.00     0.069 A 
HETATM    8  C   UNL     1      25.215  44.855  50.176  1.00  0.00     0.033 A 
HETATM    9  C   UNL     1      26.197  43.960  50.624  1.00  0.00     0.015 A 
HETATM   10  C   UNL     1      26.907  44.196  51.810  1.00  0.00    -0.020 A 
HETATM   11  C   UNL     1      26.610  45.350  52.547  1.00  0.00     0.051 A 
HETATM   12  C   UNL     1      25.613  46.229  52.108  1.00  0.00     0.095 A 
BRANCH  10  13
HETATM   13  C   UNL     1      27.914  43.245  52.253  1.00  0.00     0.010 A 
HETATM   14  C   UNL     1      27.784  41.916  52.725  1.00  0.00     0.152 A 
HETATM   15  N   UNL     1      28.957  41.354  53.031  1.00  0.00    -0.187 NA
HETATM   16  N   UNL     1      29.847  42.318  52.750  1.00  0.00    -0.289 N 
HETATM   17  H   UNL     1      30.830  42.120  52.897  1.00  0.00     0.188 HD
HETATM   18  C   UNL     1      29.275  43.468  52.284  1.00  0.00     0.123 A 
ENDBRANCH  10  13
BRANCH  12  19
HETATM   19  O   UNL     1      25.311  47.362  52.829  1.00  0.00    -0.354 OA
HETATM   20  C   UNL     1      25.982  47.353  54.090  1.00  0.00     0.210 C 
ENDBRANCH  12  19
ENDBRANCH   4   7
BRANCH   1  21
HETATM   21  C   UNL     1      23.024  50.094  48.966  1.00  0.00     0.163 C 
BRANCH  21  22
HETATM   22  C   UNL     1      21.649  50.566  48.571  1.00  0.00    -0.038 A 
HETATM   23  C   UNL     1      21.122  50.263  47.307  1.00  0.00     0.009 A 
HETATM   24  C   UNL     1      19.824  50.645  46.973  1.00  0.00     0.003 A 
HETATM   25  C   UNL     1      19.036  51.319  47.905  1.00  0.00     0.037 A 
HETATM   26  C   UNL     1      19.532  51.610  49.177  1.00  0.00     0.068 A 
HETATM   27  C   UNL     1      20.838  51.239  49.503  1.00  0.00     0.045 A 
BRANCH  26  28
HETATM   28  O   UNL     1      18.649  52.251  50.002  1.00  0.00    -0.356 OA
HETATM   29  C   UNL     1      17.270  51.956  49.818  1.00  0.00     0.210 C 
ENDBRANCH  26  28
ENDBRANCH  21  22
ENDBRANCH   1  21
TORSDOF 6
ENDMDL
MODEL 6
REMARK VINA RESULT:      -7.9      3.509      9.463
REMARK  6 active torsions:
REMARK  status: ('A' for Active; 'I' for Inactive)
REMARK    1  A    between atoms: O_2  and  C_3 
REMARK    2  A    between atoms: C_7  and  C_8 
REMARK    3  A    between atoms: C_8  and  N_9 
REMARK       I    between atoms: N_9  and  C_10 
REMARK       I    between atoms: C_10  and  N_12 
REMARK    4  A    between atoms: N_12  and  C_13 
REMARK    5  A    between atoms: C_16  and  C_21 
REMARK    6  A    between atoms: C_18  and  O_19 
ROOT
HETATM    1  N   UNL     1      27.342  42.339  53.468  1.00  0.00    -0.339 N 
HETATM    2  C   UNL     1      26.973  42.868  52.250  1.00  0.00     0.321 C 
HETATM    3  O   UNL     1      27.794  43.103  51.371  1.00  0.00    -0.247 OA
HETATM    4  N   UNL     1      25.618  43.077  52.174  1.00  0.00    -0.306 N 
HETATM    5  H   UNL     1      26.728  42.495  54.251  1.00  0.00     0.164 HD
HETATM    6  H   UNL     1      25.063  42.879  52.996  1.00  0.00     0.171 HD
ENDROOT
BRANCH   4   7
HETATM    7  C   UNL     1      24.883  43.571  51.075  1.00  0.00     0.069 A 
HETATM    8  C   UNL     1      24.223  42.764  50.152  1.00  0.00     0.033 A 
HETATM    9  C   UNL     1      23.507  43.338  49.091  1.00  0.00     0.015 A 
HETATM   10  C   UNL     1      23.429  44.729  48.937  1.00  0.00    -0.020 A 
HETATM   11  C   UNL     1      24.090  45.541  49.867  1.00  0.00     0.051 A 
HETATM   12  C   UNL     1      24.823  44.964  50.911  1.00  0.00     0.095 A 
BRANCH  10  13
HETATM   13  C   UNL     1      22.683  45.293  47.823  1.00  0.00     0.010 A 
HETATM   14  C   UNL     1      22.087  46.569  47.665  1.00  0.00     0.152 A 
HETATM   15  N   UNL     1      21.489  46.721  46.480  1.00  0.00    -0.187 NA
HETATM   16  N   UNL     1      21.707  45.547  45.868  1.00  0.00    -0.289 N 
HETATM   17  H   UNL     1      21.346  45.421  44.929  1.00  0.00     0.188 HD
HETATM   18  C   UNL     1      22.413  44.659  46.629  1.00  0.00     0.123 A 
ENDBRANCH  10  13
BRANCH  12  19
HETATM   19  O   UNL     1      25.480  45.755  51.826  1.00  0.00    -0.354 OA
HETATM   20  C   UNL     1      25.396  47.133  51.456  1.00  0.00     0.210 C 
ENDBRANCH  12  19
ENDBRANCH   4   7
BRANCH   1  21
HETATM   21  C   UNL     1      28.749  42.180  53.764  1.00  0.00     0.163 C 
BRANCH  21  22
HETATM   22  C   UNL     1      29.281  43.274  54.652  1.00  0.00    -0.038 A 
HETATM   23  C   UNL     1      30.517  43.136  55.299  1.00  0.00     0.009 A 
HETATM   24  C   UNL     1      31.034  44.178  56.066  1.00  0.00     0.003 A 
HETATM   25  C   UNL     1      30.328  45.376  56.177  1.00  0.00     0.037 A 
HETATM   26  C   UNL     1      29.106  45.544  55.522  1.00  0.00     0.068 A 
HETATM   27  C   UNL     1      28.584  44.491  54.767  1.00  0.00     0.045 A 
BRANCH  26  28
HETATM   28  O   UNL     1      28.530  46.772  55.694  1.00  0.00    -0.356 OA
HETATM   29  C   UNL     1      27.563  47.168  54.728  1.00  0.00     0.210 C 
ENDBRANCH  26  28
ENDBRANCH  21  22
ENDBRANCH   1  21
TORSDOF 6
ENDMDL
MODEL 7
REMARK VINA RESULT:      -7.8      7.000     10.909
REMARK  6 active torsions:
REMARK  status: ('A' for Active; 'I' for Inactive)
REMARK    1  A    between atoms: O_2  and  C_3 
REMARK    2  A    between atoms: C_7  and  C_8 
REMARK    3  A    between atoms: C_8  and  N_9 
REMARK       I    between atoms: N_9  and  C_10 
REMARK       I    between atoms: C_10  and  N_12 
REMARK    4  A    between atoms: N_12  and  C_13 
REMARK    5  A    between atoms: C_16  and  C_21 
REMARK    6  A    between atoms: C_18  and  O_19 
ROOT
HETATM    1  N   UNL     1      27.177  42.029  52.975  1.00  0.00    -0.339 N 
HETATM    2  C   UNL     1      27.417  41.781  51.641  1.00  0.00     0.321 C 
HETATM    3  O   UNL     1      27.763  42.669  50.870  1.00  0.00    -0.247 OA
HETATM    4  N   UNL     1      27.225  40.459  51.325  1.00  0.00    -0.306 N 
HETATM    5  H   UNL     1      26.575  41.390  53.469  1.00  0.00     0.164 HD
HETATM    6  H   UNL     1      26.894  39.843  52.054  1.00  0.00     0.171 HD
ENDROOT
BRANCH   4   7
HETATM    7  C   UNL     1      27.409  39.838  50.071  1.00  0.00     0.069 A 
HETATM    8  C   UNL     1      26.537  39.981  48.995  1.00  0.00     0.033 A 
HETATM    9  C   UNL     1      26.799  39.335  47.778  1.00  0.00     0.015 A 
HETATM   10  C   UNL     1      27.940  38.538  47.610  1.00  0.00    -0.020 A 
HETATM   11  C   UNL     1      28.819  38.395  48.692  1.00  0.00     0.051 A 
HETATM   12  C   UNL     1      28.542  39.024  49.912  1.00  0.00     0.095 A 
BRANCH  10  13
HETATM   13  C   UNL     1      28.180  37.875  46.338  1.00  0.00     0.010 A 
HETATM   14  C   UNL     1      28.888  36.685  46.038  1.00  0.00     0.152 A 
HETATM   15  N   UNL     1      28.882  36.390  44.735  1.00  0.00    -0.187 NA
HETATM   16  N   UNL     1      28.163  37.384  44.194  1.00  0.00    -0.289 N 
HETATM   17  H   UNL     1      28.009  37.374  43.192  1.00  0.00     0.188 HD
HETATM   18  C   UNL     1      27.723  38.299  45.108  1.00  0.00     0.123 A 
ENDBRANCH  10  13
BRANCH  12  19
HETATM   19  O   UNL     1      29.397  38.884  50.982  1.00  0.00    -0.354 OA
HETATM   20  C   UNL     1      29.974  37.577  51.001  1.00  0.00     0.210 C 
ENDBRANCH  12  19
ENDBRANCH   4   7
BRANCH   1  21
HETATM   21  C   UNL     1      27.206  43.396  53.450  1.00  0.00     0.163 C 
BRANCH  21  22
HETATM   22  C   UNL     1      28.394  43.676  54.333  1.00  0.00    -0.038 A 
HETATM   23  C   UNL     1      29.533  42.861  54.284  1.00  0.00     0.009 A 
HETATM   24  C   UNL     1      30.653  43.165  55.055  1.00  0.00     0.003 A 
HETATM   25  C   UNL     1      30.650  44.298  55.869  1.00  0.00     0.037 A 
HETATM   26  C   UNL     1      29.535  45.137  55.915  1.00  0.00     0.068 A 
HETATM   27  C   UNL     1      28.409  44.820  55.153  1.00  0.00     0.045 A 
BRANCH  26  28
HETATM   28  O   UNL     1      29.671  46.224  56.733  1.00  0.00    -0.356 OA
HETATM   29  C   UNL     1      30.310  46.008  57.986  1.00  0.00     0.210 C 
ENDBRANCH  26  28
ENDBRANCH  21  22
ENDBRANCH   1  21
TORSDOF 6
ENDMDL
MODEL 8
REMARK VINA RESULT:      -7.6      4.188     10.943
REMARK  6 active torsions:
REMARK  status: ('A' for Active; 'I' for Inactive)
REMARK    1  A    between atoms: O_2  and  C_3 
REMARK    2  A    between atoms: C_7  and  C_8 
REMARK    3  A    between atoms: C_8  and  N_9 
REMARK       I    between atoms: N_9  and  C_10 
REMARK       I    between atoms: C_10  and  N_12 
REMARK    4  A    between atoms: N_12  and  C_13 
REMARK    5  A    between atoms: C_16  and  C_21 
REMARK    6  A    between atoms: C_18  and  O_19 
ROOT
HETATM    1  N   UNL     1      23.915  48.071  50.033  1.00  0.00    -0.339 N 
HETATM    2  C   UNL     1      23.064  48.718  49.163  1.00  0.00     0.321 C 
HETATM    3  O   UNL     1      23.305  48.798  47.964  1.00  0.00    -0.247 OA
HETATM    4  N   UNL     1      21.965  49.227  49.808  1.00  0.00    -0.306 N 
HETATM    5  H   UNL     1      23.872  48.328  51.007  1.00  0.00     0.164 HD
HETATM    6  H   UNL     1      21.917  49.126  50.812  1.00  0.00     0.171 HD
ENDROOT
BRANCH   4   7
HETATM    7  C   UNL     1      20.874  49.917  49.236  1.00  0.00     0.069 A 
HETATM    8  C   UNL     1      20.882  51.278  48.938  1.00  0.00     0.033 A 
HETATM    9  C   UNL     1      19.757  51.885  48.362  1.00  0.00     0.015 A 
HETATM   10  C   UNL     1      18.604  51.144  48.065  1.00  0.00    -0.020 A 
HETATM   11  C   UNL     1      18.596  49.775  48.363  1.00  0.00     0.051 A 
HETATM   12  C   UNL     1      19.713  49.177  48.959  1.00  0.00     0.095 A 
BRANCH  10  13
HETATM   13  C   UNL     1      17.451  51.804  47.474  1.00  0.00     0.010 A 
HETATM   14  C   UNL     1      17.130  52.060  46.118  1.00  0.00     0.152 A 
HETATM   15  N   UNL     1      15.962  52.690  45.969  1.00  0.00    -0.187 NA
HETATM   16  N   UNL     1      15.523  52.835  47.229  1.00  0.00    -0.289 N 
HETATM   17  H   UNL     1      14.629  53.289  47.377  1.00  0.00     0.188 HD
HETATM   18  C   UNL     1      16.377  52.324  48.165  1.00  0.00     0.123 A 
ENDBRANCH  10  13
BRANCH  12  19
HETATM   19  O   UNL     1      19.712  47.834  49.260  1.00  0.00    -0.354 OA
HETATM   20  C   UNL     1      19.617  47.049  48.070  1.00  0.00     0.210 C 
ENDBRANCH  12  19
ENDBRANCH   4   7
BRANCH   1  21
HETATM   21  C   UNL     1      25.187  47.589  49.542  1.00  0.00     0.163 C 
BRANCH  21  22
HETATM   22  C   UNL     1      25.620  46.311  50.211  1.00  0.00    -0.038 A 
HETATM   23  C   UNL     1      26.788  45.650  49.807  1.00  0.00     0.009 A 
HETATM   24  C   UNL     1      27.218  44.504  50.474  1.00  0.00     0.003 A 
HETATM   25  C   UNL     1      26.492  44.019  51.562  1.00  0.00     0.037 A 
HETATM   26  C   UNL     1      25.338  44.676  51.995  1.00  0.00     0.068 A 
HETATM   27  C   UNL     1      24.902  45.814  51.314  1.00  0.00     0.045 A 
BRANCH  26  28
HETATM   28  O   UNL     1      24.735  44.111  53.085  1.00  0.00    -0.356 OA
HETATM   29  C   UNL     1      25.340  44.353  54.350  1.00  0.00     0.210 C 
ENDBRANCH  26  28
ENDBRANCH  21  22
ENDBRANCH   1  21
TORSDOF 6
ENDMDL
MODEL 9
REMARK VINA RESULT:      -7.6      1.758      2.457
REMARK  6 active torsions:
REMARK  status: ('A' for Active; 'I' for Inactive)
REMARK    1  A    between atoms: O_2  and  C_3 
REMARK    2  A    between atoms: C_7  and  C_8 
REMARK    3  A    between atoms: C_8  and  N_9 
REMARK       I    between atoms: N_9  and  C_10 
REMARK       I    between atoms: C_10  and  N_12 
REMARK    4  A    between atoms: N_12  and  C_13 
REMARK    5  A    between atoms: C_16  and  C_21 
REMARK    6  A    between atoms: C_18  and  O_19 
ROOT
HETATM    1  N   UNL     1      23.339  45.330  49.934  1.00  0.00    -0.339 N 
HETATM    2  C   UNL     1      24.634  45.135  50.363  1.00  0.00     0.321 C 
HETATM    3  O   UNL     1      25.587  45.208  49.595  1.00  0.00    -0.247 OA
HETATM    4  N   UNL     1      24.691  44.866  51.708  1.00  0.00    -0.306 N 
HETATM    5  H   UNL     1      22.598  44.924  50.483  1.00  0.00     0.164 HD
HETATM    6  H   UNL     1      23.818  44.791  52.212  1.00  0.00     0.171 HD
ENDROOT
BRANCH   4   7
HETATM    7  C   UNL     1      25.842  44.646  52.494  1.00  0.00     0.069 A 
HETATM    8  C   UNL     1      26.551  43.448  52.521  1.00  0.00     0.033 A 
HETATM    9  C   UNL     1      27.692  43.316  53.325  1.00  0.00     0.015 A 
HETATM   10  C   UNL     1      28.153  44.381  54.112  1.00  0.00    -0.020 A 
HETATM   11  C   UNL     1      27.442  45.588  54.084  1.00  0.00     0.051 A 
HETATM   12  C   UNL     1      26.290  45.708  53.297  1.00  0.00     0.095 A 
BRANCH  10  13
HETATM   13  C   UNL     1      29.336  44.212  54.941  1.00  0.00     0.010 A 
HETATM   14  C   UNL     1      29.922  45.075  55.899  1.00  0.00     0.152 A 
HETATM   15  N   UNL     1      31.014  44.557  56.468  1.00  0.00    -0.187 NA
HETATM   16  N   UNL     1      31.129  43.355  55.884  1.00  0.00    -0.289 N 
HETATM   17  H   UNL     1      31.899  42.757  56.165  1.00  0.00     0.188 HD
HETATM   18  C   UNL     1      30.154  43.101  54.962  1.00  0.00     0.123 A 
ENDBRANCH  10  13
BRANCH  12  19
HETATM   19  O   UNL     1      25.582  46.888  53.267  1.00  0.00    -0.354 OA
HETATM   20  C   UNL     1      25.979  47.744  54.340  1.00  0.00     0.210 C 
ENDBRANCH  12  19
ENDBRANCH   4   7
BRANCH   1  21
HETATM   21  C   UNL     1      23.087  45.495  48.519  1.00  0.00     0.163 C 
BRANCH  21  22
HETATM   22  C   UNL     1      22.271  46.725  48.216  1.00  0.00    -0.038 A 
HETATM   23  C   UNL     1      21.184  46.665  47.333  1.00  0.00     0.009 A 
HETATM   24  C   UNL     1      20.393  47.790  47.108  1.00  0.00     0.003 A 
HETATM   25  C   UNL     1      20.673  48.981  47.778  1.00  0.00     0.037 A 
HETATM   26  C   UNL     1      21.737  49.056  48.679  1.00  0.00     0.068 A 
HETATM   27  C   UNL     1      22.536  47.931  48.890  1.00  0.00     0.045 A 
BRANCH  26  28
HETATM   28  O   UNL     1      21.887  50.273  49.285  1.00  0.00    -0.356 OA
HETATM   29  C   UNL     1      23.104  50.967  49.039  1.00  0.00     0.210 C 
ENDBRANCH  26  28
ENDBRANCH  21  22
ENDBRANCH   1  21
TORSDOF 6
ENDMDL
MODEL 10
REMARK VINA RESULT:      -7.6     12.407     15.661
REMARK  6 active torsions:
REMARK  status: ('A' for Active; 'I' for Inactive)
REMARK    1  A    between atoms: O_2  and  C_3 
REMARK    2  A    between atoms: C_7  and  C_8 
REMARK    3  A    between atoms: C_8  and  N_9 
REMARK       I    between atoms: N_9  and  C_10 
REMARK       I    between atoms: C_10  and  N_12 
REMARK    4  A    between atoms: N_12  and  C_13 
REMARK    5  A    between atoms: C_16  and  C_21 
REMARK    6  A    between atoms: C_18  and  O_19 
ROOT
HETATM    1  N   UNL     1      35.278  52.064  43.717  1.00  0.00    -0.339 N 
HETATM    2  C   UNL     1      34.381  51.402  42.906  1.00  0.00     0.321 C 
HETATM    3  O   UNL     1      34.731  50.857  41.866  1.00  0.00    -0.247 OA
HETATM    4  N   UNL     1      33.108  51.441  43.417  1.00  0.00    -0.306 N 
HETATM    5  H   UNL     1      34.916  52.771  44.336  1.00  0.00     0.164 HD
HETATM    6  H   UNL     1      32.955  51.968  44.265  1.00  0.00     0.171 HD
ENDROOT
BRANCH   4   7
HETATM    7  C   UNL     1      31.946  50.846  42.879  1.00  0.00     0.069 A 
HETATM    8  C   UNL     1      31.650  49.489  42.973  1.00  0.00     0.033 A 
HETATM    9  C   UNL     1      30.467  48.980  42.417  1.00  0.00     0.015 A 
HETATM   10  C   UNL     1      29.554  49.818  41.762  1.00  0.00    -0.020 A 
HETATM   11  C   UNL     1      29.850  51.184  41.669  1.00  0.00     0.051 A 
HETATM   12  C   UNL     1      31.043  51.684  42.205  1.00  0.00     0.095 A 
BRANCH  10  13
HETATM   13  C   UNL     1      28.339  49.259  41.190  1.00  0.00     0.010 A 
HETATM   14  C   UNL     1      27.894  47.917  41.101  1.00  0.00     0.152 A 
HETATM   15  N   UNL     1      26.705  47.801  40.504  1.00  0.00    -0.187 NA
HETATM   16  N   UNL     1      26.376  49.069  40.215  1.00  0.00    -0.289 N 
HETATM   17  H   UNL     1      25.489  49.241  39.755  1.00  0.00     0.188 HD
HETATM   18  C   UNL     1      27.320  49.977  40.601  1.00  0.00     0.123 A 
ENDBRANCH  10  13
BRANCH  12  19
HETATM   19  O   UNL     1      31.344  53.024  42.113  1.00  0.00    -0.354 OA
HETATM   20  C   UNL     1      31.003  53.532  40.822  1.00  0.00     0.210 C 
ENDBRANCH  12  19
ENDBRANCH   4   7
BRANCH   1  21
HETATM   21  C   UNL     1      36.641  52.232  43.262  1.00  0.00     0.163 C 
BRANCH  21  22
HETATM   22  C   UNL     1      37.297  53.460  43.839  1.00  0.00    -0.038 A 
HETATM   23  C   UNL     1      37.699  54.515  43.009  1.00  0.00     0.009 A 
HETATM   24  C   UNL     1      38.244  55.675  43.555  1.00  0.00     0.003 A 
HETATM   25  C   UNL     1      38.375  55.798  44.938  1.00  0.00     0.037 A 
HETATM   26  C   UNL     1      37.959  54.769  45.785  1.00  0.00     0.068 A 
HETATM   27  C   UNL     1      37.428  53.601  45.233  1.00  0.00     0.045 A 
BRANCH  26  28
HETATM   28  O   UNL     1      38.120  55.026  47.118  1.00  0.00    -0.356 OA
HETATM   29  C   UNL     1      38.457  53.921  47.949  1.00  0.00     0.210 C 
ENDBRANCH  26  28
ENDBRANCH  21  22
ENDBRANCH   1  21
TORSDOF 6
ENDMDL
