MODEL 1
REMARK VINA RESULT:      -9.5      0.000      0.000
REMARK  6 active torsions:
REMARK  status: ('A' for Active; 'I' for Inactive)
REMARK    1  A    between atoms: C_2  and  O_3 
REMARK    2  A    between atoms: C_2  and  C_4 
REMARK    3  A    between atoms: C_7  and  N_8 
REMARK       I    between atoms: N_8  and  C_9 
REMARK    4  A    between atoms: C_9  and  C_10 
REMARK    5  A    between atoms: C_13  and  C_14 
REMARK    6  A    between atoms: C_19  and  C_20 
ROOT
HETATM    1  C   UNL     1      25.943  44.171  51.570  1.00  0.00     0.096 A 
HETATM    2  C   UNL     1      25.213  45.195  50.994  1.00  0.00     0.138 A 
HETATM    3  N   UNL     1      24.861  44.751  49.741  1.00  0.00    -0.240 N 
HETATM    4  C   UNL     1      24.132  45.542  48.765  1.00  0.00     0.221 C 
HETATM    5  C   UNL     1      23.478  46.762  49.442  1.00  0.00     0.068 C 
HETATM    6  C   UNL     1      24.432  47.439  50.432  1.00  0.00     0.143 C 
HETATM    7  N   UNL     1      24.869  46.443  51.427  1.00  0.00    -0.363 N 
HETATM    8  N   UNL     1      25.442  43.588  49.409  1.00  0.00    -0.181 NA
HETATM    9  C   UNL     1      26.072  43.223  50.529  1.00  0.00     0.160 A 
HETATM   10  H   UNL     1      25.460  46.875  52.140  1.00  0.00     0.162 HD
ENDROOT
BRANCH   1  11
HETATM   11  C   UNL     1      26.517  44.094  52.905  1.00  0.00     0.261 C 
HETATM   12  N   UNL     1      27.861  44.414  52.930  1.00  0.00    -0.323 N 
HETATM   13  H   UNL     1      28.230  44.801  52.067  1.00  0.00     0.169 HD
HETATM   14  O   UNL     1      25.826  43.788  53.867  1.00  0.00    -0.267 OA
BRANCH  12  15
HETATM   15  C   UNL     1      28.764  44.295  54.000  1.00  0.00     0.035 A 
HETATM   16  C   UNL     1      29.610  43.203  54.188  1.00  0.00     0.030 A 
HETATM   17  C   UNL     1      30.520  43.186  55.253  1.00  0.00     0.012 A 
HETATM   18  C   UNL     1      30.597  44.260  56.151  1.00  0.00    -0.030 A 
HETATM   19  C   UNL     1      29.740  45.350  55.961  1.00  0.00     0.012 A 
HETATM   20  C   UNL     1      28.832  45.366  54.898  1.00  0.00     0.030 A 
BRANCH  18  21
HETATM   21  C   UNL     1      31.624  44.244  57.262  1.00  0.00     0.147 C 
HETATM   22  C   UNL     1      31.087  44.919  58.519  1.00  0.00     0.044 C 
BRANCH  21  23
HETATM   23  O   UNL     1      31.986  42.900  57.574  1.00  0.00    -0.391 OA
HETATM   24  H   UNL     1      31.874  42.380  56.762  1.00  0.00     0.210 HD
ENDBRANCH  21  23
ENDBRANCH  18  21
ENDBRANCH  12  15
ENDBRANCH   1  11
BRANCH   4  25
HETATM   25  C   UNL     1      23.067  44.724  48.065  1.00  0.00     0.409 C 
HETATM   26  F   UNL     1      22.419  43.893  48.913  1.00  0.00    -0.169 F 
HETATM   27  F   UNL     1      22.123  45.555  47.544  1.00  0.00    -0.169 F 
HETATM   28  F   UNL     1      23.535  43.995  47.032  1.00  0.00    -0.169 F 
ENDBRANCH   4  25
BRANCH   6  29
HETATM   29  C   UNL     1      25.544  48.159  49.730  1.00  0.00     0.075 A 
HETATM   30  O   UNL     1      25.184  49.253  48.998  1.00  0.00    -0.325 OA
HETATM   31  C   UNL     1      26.318  49.759  48.450  1.00  0.00     0.142 A 
HETATM   32  C   UNL     1      27.407  49.006  48.818  1.00  0.00     0.027 A 
HETATM   33  C   UNL     1      26.909  47.971  49.646  1.00  0.00     0.037 A 
ENDBRANCH   6  29
TORSDOF 6
ENDMDL
MODEL 2
REMARK VINA RESULT:      -8.8      1.412      1.929
REMARK  6 active torsions:
REMARK  status: ('A' for Active; 'I' for Inactive)
REMARK    1  A    between atoms: C_2  and  O_3 
REMARK    2  A    between atoms: C_2  and  C_4 
REMARK    3  A    between atoms: C_7  and  N_8 
REMARK       I    between atoms: N_8  and  C_9 
REMARK    4  A    between atoms: C_9  and  C_10 
REMARK    5  A    between atoms: C_13  and  C_14 
REMARK    6  A    between atoms: C_19  and  C_20 
ROOT
HETATM    1  C   UNL     1      26.835  42.621  51.074  1.00  0.00     0.096 A 
HETATM    2  C   UNL     1      25.712  43.378  50.796  1.00  0.00     0.138 A 
HETATM    3  N   UNL     1      25.387  43.109  49.486  1.00  0.00    -0.240 N 
HETATM    4  C   UNL     1      24.298  43.743  48.764  1.00  0.00     0.221 C 
HETATM    5  C   UNL     1      23.335  44.440  49.745  1.00  0.00     0.068 C 
HETATM    6  C   UNL     1      24.095  45.208  50.833  1.00  0.00     0.143 C 
HETATM    7  N   UNL     1      24.992  44.272  51.535  1.00  0.00    -0.363 N 
HETATM    8  N   UNL     1      26.306  42.361  48.857  1.00  0.00    -0.181 NA
HETATM    9  C   UNL     1      27.167  42.041  49.827  1.00  0.00     0.160 A 
HETATM   10  H   UNL     1      25.471  44.739  52.309  1.00  0.00     0.162 HD
ENDROOT
BRANCH   1  11
HETATM   11  C   UNL     1      27.565  42.491  52.325  1.00  0.00     0.261 C 
HETATM   12  N   UNL     1      28.043  43.699  52.794  1.00  0.00    -0.323 N 
HETATM   13  H   UNL     1      27.702  44.520  52.304  1.00  0.00     0.169 HD
HETATM   14  O   UNL     1      27.694  41.400  52.865  1.00  0.00    -0.267 OA
BRANCH  12  15
HETATM   15  C   UNL     1      28.914  43.930  53.873  1.00  0.00     0.035 A 
HETATM   16  C   UNL     1      28.752  44.960  54.799  1.00  0.00     0.030 A 
HETATM   17  C   UNL     1      29.636  45.089  55.877  1.00  0.00     0.012 A 
HETATM   18  C   UNL     1      30.700  44.193  56.048  1.00  0.00    -0.030 A 
HETATM   19  C   UNL     1      30.861  43.165  55.112  1.00  0.00     0.012 A 
HETATM   20  C   UNL     1      29.979  43.037  54.035  1.00  0.00     0.030 A 
BRANCH  18  21
HETATM   21  C   UNL     1      31.610  44.319  57.250  1.00  0.00     0.147 C 
HETATM   22  C   UNL     1      30.881  44.950  58.431  1.00  0.00     0.044 C 
BRANCH  21  23
HETATM   23  O   UNL     1      32.093  43.033  57.635  1.00  0.00    -0.391 OA
HETATM   24  H   UNL     1      31.579  42.758  58.412  1.00  0.00     0.210 HD
ENDBRANCH  21  23
ENDBRANCH  18  21
ENDBRANCH  12  15
ENDBRANCH   1  11
BRANCH   4  25
HETATM   25  C   UNL     1      23.527  42.745  47.927  1.00  0.00     0.409 C 
HETATM   26  F   UNL     1      23.374  41.558  48.556  1.00  0.00    -0.169 F 
HETATM   27  F   UNL     1      22.273  43.220  47.690  1.00  0.00    -0.169 F 
HETATM   28  F   UNL     1      24.074  42.515  46.717  1.00  0.00    -0.169 F 
ENDBRANCH   4  25
BRANCH   6  29
HETATM   29  C   UNL     1      24.763  46.433  50.287  1.00  0.00     0.075 A 
HETATM   30  O   UNL     1      23.946  47.342  49.677  1.00  0.00    -0.325 OA
HETATM   31  C   UNL     1      24.731  48.367  49.258  1.00  0.00     0.142 A 
HETATM   32  C   UNL     1      26.045  48.133  49.589  1.00  0.00     0.027 A 
HETATM   33  C   UNL     1      26.068  46.884  50.254  1.00  0.00     0.037 A 
ENDBRANCH   6  29
TORSDOF 6
ENDMDL
MODEL 3
REMARK VINA RESULT:      -8.4      2.715      3.430
REMARK  6 active torsions:
REMARK  status: ('A' for Active; 'I' for Inactive)
REMARK    1  A    between atoms: C_2  and  O_3 
REMARK    2  A    between atoms: C_2  and  C_4 
REMARK    3  A    between atoms: C_7  and  N_8 
REMARK       I    between atoms: N_8  and  C_9 
REMARK    4  A    between atoms: C_9  and  C_10 
REMARK    5  A    between atoms: C_13  and  C_14 
REMARK    6  A    between atoms: C_19  and  C_20 
ROOT
HETATM    1  C   UNL     1      26.544  43.003  51.059  1.00  0.00     0.096 A 
HETATM    2  C   UNL     1      25.291  42.801  50.510  1.00  0.00     0.138 A 
HETATM    3  N   UNL     1      25.506  42.303  49.246  1.00  0.00    -0.240 N 
HETATM    4  C   UNL     1      24.453  42.004  48.291  1.00  0.00     0.221 C 
HETATM    5  C   UNL     1      23.086  41.943  49.000  1.00  0.00     0.068 C 
HETATM    6  C   UNL     1      22.919  43.087  50.006  1.00  0.00     0.143 C 
HETATM    7  N   UNL     1      24.029  43.033  50.974  1.00  0.00    -0.363 N 
HETATM    8  N   UNL     1      26.798  42.320  48.884  1.00  0.00    -0.181 NA
HETATM    9  C   UNL     1      27.429  42.715  49.993  1.00  0.00     0.160 A 
HETATM   10  H   UNL     1      23.916  43.747  51.698  1.00  0.00     0.162 HD
ENDROOT
BRANCH   1  11
HETATM   11  C   UNL     1      26.896  43.472  52.390  1.00  0.00     0.261 C 
HETATM   12  N   UNL     1      28.245  43.738  52.525  1.00  0.00    -0.323 N 
HETATM   13  H   UNL     1      28.778  43.722  51.662  1.00  0.00     0.169 HD
HETATM   14  O   UNL     1      26.039  43.612  53.252  1.00  0.00    -0.267 OA
BRANCH  12  15
HETATM   15  C   UNL     1      28.957  44.050  53.696  1.00  0.00     0.035 A 
HETATM   16  C   UNL     1      28.674  45.145  54.512  1.00  0.00     0.030 A 
HETATM   17  C   UNL     1      29.398  45.356  55.692  1.00  0.00     0.012 A 
HETATM   18  C   UNL     1      30.421  44.478  56.076  1.00  0.00    -0.030 A 
HETATM   19  C   UNL     1      30.705  43.384  55.250  1.00  0.00     0.012 A 
HETATM   20  C   UNL     1      29.982  43.175  54.072  1.00  0.00     0.030 A 
BRANCH  18  21
HETATM   21  C   UNL     1      31.154  44.695  57.381  1.00  0.00     0.147 C 
HETATM   22  C   UNL     1      30.234  45.295  58.438  1.00  0.00     0.044 C 
BRANCH  21  23
HETATM   23  O   UNL     1      31.669  43.455  57.865  1.00  0.00    -0.391 OA
HETATM   24  H   UNL     1      30.906  42.890  58.068  1.00  0.00     0.210 HD
ENDBRANCH  21  23
ENDBRANCH  18  21
ENDBRANCH  12  15
ENDBRANCH   1  11
BRANCH   4  25
HETATM   25  C   UNL     1      24.706  40.696  47.572  1.00  0.00     0.409 C 
HETATM   26  F   UNL     1      23.558  40.086  47.198  1.00  0.00    -0.169 F 
HETATM   27  F   UNL     1      25.405  40.933  46.428  1.00  0.00    -0.169 F 
HETATM   28  F   UNL     1      25.440  39.818  48.284  1.00  0.00    -0.169 F 
ENDBRANCH   4  25
BRANCH   6  29
HETATM   29  C   UNL     1      22.742  44.409  49.322  1.00  0.00     0.075 A 
HETATM   30  O   UNL     1      21.642  44.529  48.522  1.00  0.00    -0.325 OA
HETATM   31  C   UNL     1      21.660  45.783  48.003  1.00  0.00     0.142 A 
HETATM   32  C   UNL     1      22.758  46.475  48.456  1.00  0.00     0.027 A 
HETATM   33  C   UNL     1      23.459  45.589  49.309  1.00  0.00     0.037 A 
ENDBRANCH   6  29
TORSDOF 6
ENDMDL
MODEL 4
REMARK VINA RESULT:      -8.3      4.766      7.981
REMARK  6 active torsions:
REMARK  status: ('A' for Active; 'I' for Inactive)
REMARK    1  A    between atoms: C_2  and  O_3 
REMARK    2  A    between atoms: C_2  and  C_4 
REMARK    3  A    between atoms: C_7  and  N_8 
REMARK       I    between atoms: N_8  and  C_9 
REMARK    4  A    between atoms: C_9  and  C_10 
REMARK    5  A    between atoms: C_13  and  C_14 
REMARK    6  A    between atoms: C_19  and  C_20 
ROOT
HETATM    1  C   UNL     1      26.834  42.818  50.457  1.00  0.00     0.096 A 
HETATM    2  C   UNL     1      26.715  43.270  51.758  1.00  0.00     0.138 A 
HETATM    3  N   UNL     1      26.737  44.644  51.687  1.00  0.00    -0.240 N 
HETATM    4  C   UNL     1      26.697  45.526  52.840  1.00  0.00     0.221 C 
HETATM    5  C   UNL     1      26.239  44.754  54.093  1.00  0.00     0.068 C 
HETATM    6  C   UNL     1      26.915  43.382  54.190  1.00  0.00     0.143 C 
HETATM    7  N   UNL     1      26.629  42.624  52.957  1.00  0.00    -0.363 N 
HETATM    8  N   UNL     1      27.019  45.105  50.459  1.00  0.00    -0.181 NA
HETATM    9  C   UNL     1      27.047  44.000  49.709  1.00  0.00     0.160 A 
HETATM   10  H   UNL     1      27.014  41.678  53.014  1.00  0.00     0.162 HD
ENDROOT
BRANCH   1  11
HETATM   11  C   UNL     1      26.820  41.453  49.956  1.00  0.00     0.261 C 
HETATM   12  N   UNL     1      27.851  41.194  49.074  1.00  0.00    -0.323 N 
HETATM   13  H   UNL     1      28.557  41.921  49.009  1.00  0.00     0.169 HD
HETATM   14  O   UNL     1      25.967  40.658  50.328  1.00  0.00    -0.267 OA
BRANCH  12  15
HETATM   15  C   UNL     1      28.055  40.050  48.284  1.00  0.00     0.035 A 
HETATM   16  C   UNL     1      28.775  38.932  48.703  1.00  0.00     0.030 A 
HETATM   17  C   UNL     1      28.886  37.809  47.874  1.00  0.00     0.012 A 
HETATM   18  C   UNL     1      28.282  37.784  46.609  1.00  0.00    -0.030 A 
HETATM   19  C   UNL     1      27.565  38.912  46.192  1.00  0.00     0.012 A 
HETATM   20  C   UNL     1      27.455  40.033  47.020  1.00  0.00     0.030 A 
BRANCH  18  21
HETATM   21  C   UNL     1      28.369  36.540  45.753  1.00  0.00     0.147 C 
HETATM   22  C   UNL     1      29.743  36.412  45.106  1.00  0.00     0.044 C 
BRANCH  21  23
HETATM   23  O   UNL     1      28.119  35.381  46.546  1.00  0.00    -0.391 OA
HETATM   24  H   UNL     1      28.806  35.354  47.233  1.00  0.00     0.210 HD
ENDBRANCH  21  23
ENDBRANCH  18  21
ENDBRANCH  12  15
ENDBRANCH   1  11
BRANCH   4  25
HETATM   25  C   UNL     1      25.775  46.704  52.611  1.00  0.00     0.409 C 
HETATM   26  F   UNL     1      25.381  47.281  53.769  1.00  0.00    -0.169 F 
HETATM   27  F   UNL     1      26.431  47.666  51.906  1.00  0.00    -0.169 F 
HETATM   28  F   UNL     1      24.675  46.400  51.894  1.00  0.00    -0.169 F 
ENDBRANCH   4  25
BRANCH   6  29
HETATM   29  C   UNL     1      28.369  43.499  54.534  1.00  0.00     0.075 A 
HETATM   30  O   UNL     1      28.720  44.572  55.302  1.00  0.00    -0.325 OA
HETATM   31  C   UNL     1      30.060  44.499  55.503  1.00  0.00     0.142 A 
HETATM   32  C   UNL     1      30.580  43.392  54.875  1.00  0.00     0.027 A 
HETATM   33  C   UNL     1      29.489  42.743  54.249  1.00  0.00     0.037 A 
ENDBRANCH   6  29
TORSDOF 6
ENDMDL
MODEL 5
REMARK VINA RESULT:      -8.2      3.872      8.954
REMARK  6 active torsions:
REMARK  status: ('A' for Active; 'I' for Inactive)
REMARK    1  A    between atoms: C_2  and  O_3 
REMARK    2  A    between atoms: C_2  and  C_4 
REMARK    3  A    between atoms: C_7  and  N_8 
REMARK       I    between atoms: N_8  and  C_9 
REMARK    4  A    between atoms: C_9  and  C_10 
REMARK    5  A    between atoms: C_13  and  C_14 
REMARK    6  A    between atoms: C_19  and  C_20 
ROOT
HETATM    1  C   UNL     1      23.097  45.569  48.904  1.00  0.00     0.096 A 
HETATM    2  C   UNL     1      24.391  45.414  49.367  1.00  0.00     0.138 A 
HETATM    3  N   UNL     1      24.507  44.093  49.734  1.00  0.00    -0.240 N 
HETATM    4  C   UNL     1      25.695  43.510  50.334  1.00  0.00     0.221 C 
HETATM    5  C   UNL     1      26.907  44.442  50.144  1.00  0.00     0.068 C 
HETATM    6  C   UNL     1      26.542  45.906  50.413  1.00  0.00     0.143 C 
HETATM    7  N   UNL     1      25.427  46.288  49.527  1.00  0.00    -0.363 N 
HETATM    8  N   UNL     1      23.343  43.428  49.690  1.00  0.00    -0.181 NA
HETATM    9  C   UNL     1      22.496  44.314  49.158  1.00  0.00     0.160 A 
HETATM   10  H   UNL     1      25.197  47.278  49.638  1.00  0.00     0.162 HD
ENDROOT
BRANCH   1  11
HETATM   11  C   UNL     1      22.458  46.752  48.350  1.00  0.00     0.261 C 
HETATM   12  N   UNL     1      22.181  47.710  49.306  1.00  0.00    -0.323 N 
HETATM   13  H   UNL     1      22.586  47.538  50.221  1.00  0.00     0.169 HD
HETATM   14  O   UNL     1      22.231  46.838  47.150  1.00  0.00    -0.267 OA
BRANCH  12  15
HETATM   15  C   UNL     1      21.437  48.894  49.162  1.00  0.00     0.035 A 
HETATM   16  C   UNL     1      21.998  50.137  48.872  1.00  0.00     0.030 A 
HETATM   17  C   UNL     1      21.180  51.259  48.692  1.00  0.00     0.012 A 
HETATM   18  C   UNL     1      19.786  51.160  48.802  1.00  0.00    -0.030 A 
HETATM   19  C   UNL     1      19.229  49.910  49.100  1.00  0.00     0.012 A 
HETATM   20  C   UNL     1      20.047  48.790  49.280  1.00  0.00     0.030 A 
BRANCH  18  21
HETATM   21  C   UNL     1      18.919  52.373  48.551  1.00  0.00     0.147 C 
HETATM   22  C   UNL     1      18.027  52.171  47.331  1.00  0.00     0.044 C 
BRANCH  21  23
HETATM   23  O   UNL     1      18.098  52.632  49.688  1.00  0.00    -0.391 OA
HETATM   24  H   UNL     1      17.795  53.552  49.617  1.00  0.00     0.210 HD
ENDBRANCH  21  23
ENDBRANCH  18  21
ENDBRANCH  12  15
ENDBRANCH   1  11
BRANCH   4  25
HETATM   25  C   UNL     1      26.008  42.151  49.744  1.00  0.00     0.409 C 
HETATM   26  F   UNL     1      25.731  42.090  48.422  1.00  0.00    -0.169 F 
HETATM   27  F   UNL     1      27.339  41.895  49.871  1.00  0.00    -0.169 F 
HETATM   28  F   UNL     1      25.371  41.134  50.358  1.00  0.00    -0.169 F 
ENDBRANCH   4  25
BRANCH   6  29
HETATM   29  C   UNL     1      26.305  46.163  51.871  1.00  0.00     0.075 A 
HETATM   30  O   UNL     1      25.814  47.396  52.192  1.00  0.00    -0.325 OA
HETATM   31  C   UNL     1      25.669  47.429  53.541  1.00  0.00     0.142 A 
HETATM   32  C   UNL     1      26.061  46.235  54.097  1.00  0.00     0.027 A 
HETATM   33  C   UNL     1      26.472  45.414  53.019  1.00  0.00     0.037 A 
ENDBRANCH   6  29
TORSDOF 6
ENDMDL
MODEL 6
REMARK VINA RESULT:      -8.1      3.948      9.275
REMARK  6 active torsions:
REMARK  status: ('A' for Active; 'I' for Inactive)
REMARK    1  A    between atoms: C_2  and  O_3 
REMARK    2  A    between atoms: C_2  and  C_4 
REMARK    3  A    between atoms: C_7  and  N_8 
REMARK       I    between atoms: N_8  and  C_9 
REMARK    4  A    between atoms: C_9  and  C_10 
REMARK    5  A    between atoms: C_13  and  C_14 
REMARK    6  A    between atoms: C_19  and  C_20 
ROOT
HETATM    1  C   UNL     1      24.883  45.408  51.570  1.00  0.00     0.096 A 
HETATM    2  C   UNL     1      25.548  45.020  52.719  1.00  0.00     0.138 A 
HETATM    3  N   UNL     1      26.336  46.088  53.081  1.00  0.00    -0.240 N 
HETATM    4  C   UNL     1      27.253  46.086  54.209  1.00  0.00     0.221 C 
HETATM    5  C   UNL     1      26.942  44.909  55.153  1.00  0.00     0.068 C 
HETATM    6  C   UNL     1      26.667  43.617  54.376  1.00  0.00     0.143 C 
HETATM    7  N   UNL     1      25.558  43.857  53.434  1.00  0.00    -0.363 N 
HETATM    8  N   UNL     1      26.349  47.069  52.167  1.00  0.00    -0.181 NA
HETATM    9  C   UNL     1      25.445  46.670  51.267  1.00  0.00     0.160 A 
HETATM   10  H   UNL     1      25.307  42.997  52.941  1.00  0.00     0.162 HD
ENDROOT
BRANCH   1  11
HETATM   11  C   UNL     1      23.891  44.680  50.795  1.00  0.00     0.261 C 
HETATM   12  N   UNL     1      23.450  45.384  49.692  1.00  0.00    -0.323 N 
HETATM   13  H   UNL     1      23.971  46.229  49.481  1.00  0.00     0.169 HD
HETATM   14  O   UNL     1      23.538  43.556  51.128  1.00  0.00    -0.267 OA
BRANCH  12  15
HETATM   15  C   UNL     1      22.396  45.063  48.819  1.00  0.00     0.035 A 
HETATM   16  C   UNL     1      21.156  45.702  48.827  1.00  0.00     0.030 A 
HETATM   17  C   UNL     1      20.176  45.358  47.887  1.00  0.00     0.012 A 
HETATM   18  C   UNL     1      20.417  44.368  46.925  1.00  0.00    -0.030 A 
HETATM   19  C   UNL     1      21.661  43.726  46.926  1.00  0.00     0.012 A 
HETATM   20  C   UNL     1      22.638  44.070  47.865  1.00  0.00     0.030 A 
BRANCH  18  21
HETATM   21  C   UNL     1      19.364  44.050  45.886  1.00  0.00     0.147 C 
HETATM   22  C   UNL     1      19.597  42.678  45.266  1.00  0.00     0.044 C 
BRANCH  21  23
HETATM   23  O   UNL     1      18.067  44.077  46.480  1.00  0.00    -0.391 OA
HETATM   24  H   UNL     1      17.898  44.994  46.752  1.00  0.00     0.210 HD
ENDBRANCH  21  23
ENDBRANCH  18  21
ENDBRANCH  12  15
ENDBRANCH   1  11
BRANCH   4  25
HETATM   25  C   UNL     1      27.186  47.385  54.984  1.00  0.00     0.409 C 
HETATM   26  F   UNL     1      25.945  47.922  54.979  1.00  0.00    -0.169 F 
HETATM   27  F   UNL     1      27.501  47.154  56.288  1.00  0.00    -0.169 F 
HETATM   28  F   UNL     1      28.054  48.320  54.550  1.00  0.00    -0.169 F 
ENDBRANCH   4  25
BRANCH   6  29
HETATM   29  C   UNL     1      27.914  43.065  53.755  1.00  0.00     0.075 A 
HETATM   30  O   UNL     1      27.734  42.198  52.715  1.00  0.00    -0.325 OA
HETATM   31  C   UNL     1      28.967  41.816  52.295  1.00  0.00     0.142 A 
HETATM   32  C   UNL     1      29.941  42.424  53.050  1.00  0.00     0.027 A 
HETATM   33  C   UNL     1      29.263  43.232  53.994  1.00  0.00     0.037 A 
ENDBRANCH   6  29
TORSDOF 6
ENDMDL
MODEL 7
REMARK VINA RESULT:      -8.1      4.671      9.793
REMARK  6 active torsions:
REMARK  status: ('A' for Active; 'I' for Inactive)
REMARK    1  A    between atoms: C_2  and  O_3 
REMARK    2  A    between atoms: C_2  and  C_4 
REMARK    3  A    between atoms: C_7  and  N_8 
REMARK       I    between atoms: N_8  and  C_9 
REMARK    4  A    between atoms: C_9  and  C_10 
REMARK    5  A    between atoms: C_13  and  C_14 
REMARK    6  A    between atoms: C_19  and  C_20 
ROOT
HETATM    1  C   UNL     1      23.506  47.504  49.164  1.00  0.00     0.096 A 
HETATM    2  C   UNL     1      23.453  46.178  49.551  1.00  0.00     0.138 A 
HETATM    3  N   UNL     1      24.710  45.868  50.019  1.00  0.00    -0.240 N 
HETATM    4  C   UNL     1      25.114  44.550  50.475  1.00  0.00     0.221 C 
HETATM    5  C   UNL     1      23.877  43.667  50.733  1.00  0.00     0.068 C 
HETATM    6  C   UNL     1      22.834  43.817  49.621  1.00  0.00     0.143 C 
HETATM    7  N   UNL     1      22.463  45.239  49.506  1.00  0.00    -0.363 N 
HETATM    8  N   UNL     1      25.605  46.846  49.814  1.00  0.00    -0.181 NA
HETATM    9  C   UNL     1      24.869  47.847  49.324  1.00  0.00     0.160 A 
HETATM   10  H   UNL     1      21.722  45.368  48.812  1.00  0.00     0.162 HD
ENDROOT
BRANCH   1  11
HETATM   11  C   UNL     1      22.443  48.349  48.642  1.00  0.00     0.261 C 
HETATM   12  N   UNL     1      21.946  49.229  49.584  1.00  0.00    -0.323 N 
HETATM   13  H   UNL     1      22.474  49.281  50.450  1.00  0.00     0.169 HD
HETATM   14  O   UNL     1      22.083  48.255  47.476  1.00  0.00    -0.267 OA
BRANCH  12  15
HETATM   15  C   UNL     1      20.826  50.072  49.482  1.00  0.00     0.035 A 
HETATM   16  C   UNL     1      20.811  51.265  48.760  1.00  0.00     0.030 A 
HETATM   17  C   UNL     1      19.636  52.020  48.664  1.00  0.00     0.012 A 
HETATM   18  C   UNL     1      18.456  51.600  49.292  1.00  0.00    -0.030 A 
HETATM   19  C   UNL     1      18.478  50.405  50.021  1.00  0.00     0.012 A 
HETATM   20  C   UNL     1      19.652  49.651  50.116  1.00  0.00     0.030 A 
BRANCH  18  21
HETATM   21  C   UNL     1      17.185  52.404  49.131  1.00  0.00     0.147 C 
HETATM   22  C   UNL     1      16.041  51.533  48.626  1.00  0.00     0.044 C 
BRANCH  21  23
HETATM   23  O   UNL     1      16.811  52.984  50.380  1.00  0.00    -0.391 OA
HETATM   24  H   UNL     1      16.010  53.509  50.221  1.00  0.00     0.210 HD
ENDBRANCH  21  23
ENDBRANCH  18  21
ENDBRANCH  12  15
ENDBRANCH   1  11
BRANCH   4  25
HETATM   25  C   UNL     1      25.950  44.626  51.734  1.00  0.00     0.409 C 
HETATM   26  F   UNL     1      25.901  43.481  52.453  1.00  0.00    -0.169 F 
HETATM   27  F   UNL     1      27.257  44.817  51.404  1.00  0.00    -0.169 F 
HETATM   28  F   UNL     1      25.616  45.649  52.545  1.00  0.00    -0.169 F 
ENDBRANCH   4  25
BRANCH   6  29
HETATM   29  C   UNL     1      23.285  43.177  48.343  1.00  0.00     0.075 A 
HETATM   30  O   UNL     1      23.863  41.946  48.459  1.00  0.00    -0.325 OA
HETATM   31  C   UNL     1      24.197  41.541  47.207  1.00  0.00     0.142 A 
HETATM   32  C   UNL     1      23.842  42.495  46.283  1.00  0.00     0.027 A 
HETATM   33  C   UNL     1      23.252  43.554  47.015  1.00  0.00     0.037 A 
ENDBRANCH   6  29
TORSDOF 6
ENDMDL
MODEL 8
REMARK VINA RESULT:      -8.0      4.524      6.528
REMARK  6 active torsions:
REMARK  status: ('A' for Active; 'I' for Inactive)
REMARK    1  A    between atoms: C_2  and  O_3 
REMARK    2  A    between atoms: C_2  and  C_4 
REMARK    3  A    between atoms: C_7  and  N_8 
REMARK       I    between atoms: N_8  and  C_9 
REMARK    4  A    between atoms: C_9  and  C_10 
REMARK    5  A    between atoms: C_13  and  C_14 
REMARK    6  A    between atoms: C_19  and  C_20 
ROOT
HETATM    1  C   UNL     1      21.752  47.314  48.449  1.00  0.00     0.096 A 
HETATM    2  C   UNL     1      20.509  47.731  48.886  1.00  0.00     0.138 A 
HETATM    3  N   UNL     1      19.646  47.517  47.836  1.00  0.00    -0.240 N 
HETATM    4  C   UNL     1      18.237  47.873  47.845  1.00  0.00     0.221 C 
HETATM    5  C   UNL     1      17.761  48.148  49.285  1.00  0.00     0.068 C 
HETATM    6  C   UNL     1      18.779  48.987  50.066  1.00  0.00     0.143 C 
HETATM    7  N   UNL     1      20.078  48.290  50.054  1.00  0.00    -0.363 N 
HETATM    8  N   UNL     1      20.268  47.144  46.708  1.00  0.00    -0.181 NA
HETATM    9  C   UNL     1      21.540  46.992  47.088  1.00  0.00     0.160 A 
HETATM   10  H   UNL     1      20.767  48.793  50.619  1.00  0.00     0.162 HD
ENDROOT
BRANCH   1  11
HETATM   11  C   UNL     1      23.013  47.275  49.174  1.00  0.00     0.261 C 
HETATM   12  N   UNL     1      23.511  45.994  49.314  1.00  0.00    -0.323 N 
HETATM   13  H   UNL     1      23.030  45.281  48.776  1.00  0.00     0.169 HD
HETATM   14  O   UNL     1      23.536  48.306  49.577  1.00  0.00    -0.267 OA
BRANCH  12  15
HETATM   15  C   UNL     1      24.608  45.567  50.082  1.00  0.00     0.035 A 
HETATM   16  C   UNL     1      24.588  45.448  51.472  1.00  0.00     0.030 A 
HETATM   17  C   UNL     1      25.708  44.964  52.158  1.00  0.00     0.012 A 
HETATM   18  C   UNL     1      26.871  44.592  51.468  1.00  0.00    -0.030 A 
HETATM   19  C   UNL     1      26.887  44.719  50.074  1.00  0.00     0.012 A 
HETATM   20  C   UNL     1      25.768  45.204  49.390  1.00  0.00     0.030 A 
BRANCH  18  21
HETATM   21  C   UNL     1      28.050  44.020  52.224  1.00  0.00     0.147 C 
HETATM   22  C   UNL     1      27.851  44.143  53.730  1.00  0.00     0.044 C 
BRANCH  21  23
HETATM   23  O   UNL     1      28.225  42.645  51.889  1.00  0.00    -0.391 OA
HETATM   24  H   UNL     1      29.028  42.585  51.345  1.00  0.00     0.210 HD
ENDBRANCH  21  23
ENDBRANCH  18  21
ENDBRANCH  12  15
ENDBRANCH   1  11
BRANCH   4  25
HETATM   25  C   UNL     1      17.382  46.785  47.232  1.00  0.00     0.409 C 
HETATM   26  F   UNL     1      17.733  45.552  47.664  1.00  0.00    -0.169 F 
HETATM   27  F   UNL     1      16.083  46.966  47.598  1.00  0.00    -0.169 F 
HETATM   28  F   UNL     1      17.393  46.781  45.884  1.00  0.00    -0.169 F 
ENDBRANCH   4  25
BRANCH   6  29
HETATM   29  C   UNL     1      18.820  50.406  49.584  1.00  0.00     0.075 A 
HETATM   30  O   UNL     1      17.919  51.260  50.152  1.00  0.00    -0.325 OA
HETATM   31  C   UNL     1      18.115  52.480  49.590  1.00  0.00     0.142 A 
HETATM   32  C   UNL     1      19.130  52.425  48.665  1.00  0.00     0.027 A 
HETATM   33  C   UNL     1      19.588  51.086  48.660  1.00  0.00     0.037 A 
ENDBRANCH   6  29
TORSDOF 6
ENDMDL
MODEL 9
REMARK VINA RESULT:      -8.0     13.057     14.254
REMARK  6 active torsions:
REMARK  status: ('A' for Active; 'I' for Inactive)
REMARK    1  A    between atoms: C_2  and  O_3 
REMARK    2  A    between atoms: C_2  and  C_4 
REMARK    3  A    between atoms: C_7  and  N_8 
REMARK       I    between atoms: N_8  and  C_9 
REMARK    4  A    between atoms: C_9  and  C_10 
REMARK    5  A    between atoms: C_13  and  C_14 
REMARK    6  A    between atoms: C_19  and  C_20 
ROOT
HETATM    1  C   UNL     1      32.889  51.368  42.000  1.00  0.00     0.096 A 
HETATM    2  C   UNL     1      32.198  51.173  40.818  1.00  0.00     0.138 A 
HETATM    3  N   UNL     1      30.937  51.682  41.027  1.00  0.00    -0.240 N 
HETATM    4  C   UNL     1      29.860  51.629  40.054  1.00  0.00     0.221 C 
HETATM    5  C   UNL     1      30.413  51.295  38.655  1.00  0.00     0.068 C 
HETATM    6  C   UNL     1      31.461  50.178  38.713  1.00  0.00     0.143 C 
HETATM    7  N   UNL     1      32.538  50.585  39.634  1.00  0.00    -0.363 N 
HETATM    8  N   UNL     1      30.717  52.044  42.300  1.00  0.00    -0.181 NA
HETATM    9  C   UNL     1      31.909  51.882  42.881  1.00  0.00     0.160 A 
HETATM   10  H   UNL     1      33.286  49.887  39.651  1.00  0.00     0.162 HD
ENDROOT
BRANCH   1  11
HETATM   11  C   UNL     1      34.275  51.058  42.313  1.00  0.00     0.261 C 
HETATM   12  N   UNL     1      34.862  51.999  43.138  1.00  0.00    -0.323 N 
HETATM   13  H   UNL     1      34.226  52.682  43.536  1.00  0.00     0.169 HD
HETATM   14  O   UNL     1      34.806  50.046  41.875  1.00  0.00    -0.267 OA
BRANCH  12  15
HETATM   15  C   UNL     1      36.212  52.107  43.512  1.00  0.00     0.035 A 
HETATM   16  C   UNL     1      37.229  51.298  43.005  1.00  0.00     0.030 A 
HETATM   17  C   UNL     1      38.559  51.506  43.390  1.00  0.00     0.012 A 
HETATM   18  C   UNL     1      38.897  52.525  44.292  1.00  0.00    -0.030 A 
HETATM   19  C   UNL     1      37.871  53.329  44.802  1.00  0.00     0.012 A 
HETATM   20  C   UNL     1      36.543  53.120  44.417  1.00  0.00     0.030 A 
BRANCH  18  21
HETATM   21  C   UNL     1      40.346  52.766  44.652  1.00  0.00     0.147 C 
HETATM   22  C   UNL     1      40.768  51.911  45.841  1.00  0.00     0.044 C 
BRANCH  21  23
HETATM   23  O   UNL     1      41.184  52.461  43.539  1.00  0.00    -0.391 OA
HETATM   24  H   UNL     1      41.808  51.777  43.833  1.00  0.00     0.210 HD
ENDBRANCH  21  23
ENDBRANCH  18  21
ENDBRANCH  12  15
ENDBRANCH   1  11
BRANCH   4  25
HETATM   25  C   UNL     1      29.097  52.935  39.994  1.00  0.00     0.409 C 
HETATM   26  F   UNL     1      29.903  54.008  40.162  1.00  0.00    -0.169 F 
HETATM   27  F   UNL     1      28.523  53.073  38.767  1.00  0.00    -0.169 F 
HETATM   28  F   UNL     1      28.091  53.017  40.888  1.00  0.00    -0.169 F 
ENDBRANCH   4  25
BRANCH   6  29
HETATM   29  C   UNL     1      30.841  48.848  39.017  1.00  0.00     0.075 A 
HETATM   30  O   UNL     1      29.708  48.540  38.320  1.00  0.00    -0.325 OA
HETATM   31  C   UNL     1      29.306  47.310  38.731  1.00  0.00     0.142 A 
HETATM   32  C   UNL     1      30.165  46.819  39.686  1.00  0.00     0.027 A 
HETATM   33  C   UNL     1      31.158  47.811  39.872  1.00  0.00     0.037 A 
ENDBRANCH   6  29
TORSDOF 6
ENDMDL
MODEL 10
REMARK VINA RESULT:      -7.9      3.404      5.591
REMARK  6 active torsions:
REMARK  status: ('A' for Active; 'I' for Inactive)
REMARK    1  A    between atoms: C_2  and  O_3 
REMARK    2  A    between atoms: C_2  and  C_4 
REMARK    3  A    between atoms: C_7  and  N_8 
REMARK       I    between atoms: N_8  and  C_9 
REMARK    4  A    between atoms: C_9  and  C_10 
REMARK    5  A    between atoms: C_13  and  C_14 
REMARK    6  A    between atoms: C_19  and  C_20 
ROOT
HETATM    1  C   UNL     1      26.004  42.906  50.178  1.00  0.00     0.096 A 
HETATM    2  C   UNL     1      26.063  42.063  49.083  1.00  0.00     0.138 A 
HETATM    3  N   UNL     1      24.758  41.783  48.749  1.00  0.00    -0.240 N 
HETATM    4  C   UNL     1      24.359  40.879  47.684  1.00  0.00     0.221 C 
HETATM    5  C   UNL     1      25.549  40.594  46.746  1.00  0.00     0.068 C 
HETATM    6  C   UNL     1      26.841  40.344  47.532  1.00  0.00     0.143 C 
HETATM    7  N   UNL     1      27.104  41.510  48.396  1.00  0.00    -0.363 N 
HETATM    8  N   UNL     1      23.872  42.251  49.641  1.00  0.00    -0.181 NA
HETATM    9  C   UNL     1      24.625  42.957  50.489  1.00  0.00     0.160 A 
HETATM   10  H   UNL     1      27.993  41.403  48.890  1.00  0.00     0.162 HD
ENDROOT
BRANCH   1  11
HETATM   11  C   UNL     1      27.092  43.543  50.903  1.00  0.00     0.261 C 
HETATM   12  N   UNL     1      27.398  42.898  52.086  1.00  0.00    -0.323 N 
HETATM   13  H   UNL     1      26.945  42.000  52.219  1.00  0.00     0.169 HD
HETATM   14  O   UNL     1      27.650  44.534  50.451  1.00  0.00    -0.267 OA
BRANCH  12  15
HETATM   15  C   UNL     1      28.272  43.316  53.104  1.00  0.00     0.035 A 
HETATM   16  C   UNL     1      27.963  44.301  54.041  1.00  0.00     0.030 A 
HETATM   17  C   UNL     1      28.871  44.622  55.058  1.00  0.00     0.012 A 
HETATM   18  C   UNL     1      30.106  43.967  55.154  1.00  0.00    -0.030 A 
HETATM   19  C   UNL     1      30.414  42.983  54.207  1.00  0.00     0.012 A 
HETATM   20  C   UNL     1      29.507  42.664  53.192  1.00  0.00     0.030 A 
BRANCH  18  21
HETATM   21  C   UNL     1      31.049  44.292  56.292  1.00  0.00     0.147 C 
HETATM   22  C   UNL     1      30.443  45.328  57.231  1.00  0.00     0.044 C 
BRANCH  21  23
HETATM   23  O   UNL     1      31.346  43.110  57.033  1.00  0.00    -0.391 OA
HETATM   24  H   UNL     1      32.285  42.909  56.884  1.00  0.00     0.210 HD
ENDBRANCH  21  23
ENDBRANCH  18  21
ENDBRANCH  12  15
ENDBRANCH   1  11
BRANCH   4  25
HETATM   25  C   UNL     1      23.207  41.440  46.878  1.00  0.00     0.409 C 
HETATM   26  F   UNL     1      23.290  42.782  46.729  1.00  0.00    -0.169 F 
HETATM   27  F   UNL     1      23.228  40.911  45.624  1.00  0.00    -0.169 F 
HETATM   28  F   UNL     1      21.995  41.145  47.388  1.00  0.00    -0.169 F 
ENDBRANCH   4  25
BRANCH   6  29
HETATM   29  C   UNL     1      26.814  39.026  48.244  1.00  0.00     0.075 A 
HETATM   30  O   UNL     1      26.456  37.944  47.492  1.00  0.00    -0.325 OA
HETATM   31  C   UNL     1      26.493  36.860  48.308  1.00  0.00     0.142 A 
HETATM   32  C   UNL     1      26.870  37.227  49.578  1.00  0.00     0.027 A 
HETATM   33  C   UNL     1      27.078  38.626  49.539  1.00  0.00     0.037 A 
ENDBRANCH   6  29
TORSDOF 6
ENDMDL
