MODEL 1
REMARK VINA RESULT:      -8.9      0.000      0.000
REMARK  6 active torsions:
REMARK  status: ('A' for Active; 'I' for Inactive)
REMARK    1  A    between atoms: O_2  and  C_3 
REMARK    2  A    between atoms: C_4  and  N_5 
REMARK       I    between atoms: N_5  and  C_6 
REMARK       I    between atoms: C_6  and  N_7 
REMARK    3  A    between atoms: N_7  and  C_8 
REMARK    4  A    between atoms: C_8  and  C_9 
REMARK    5  A    between atoms: C_9  and  C_10 
REMARK    6  A    between atoms: C_10  and  N_11 
ROOT
HETATM    1  N   UNL     1      24.913  46.906  50.041  1.00  0.00    -0.306 N 
HETATM    2  C   UNL     1      25.101  46.695  51.387  1.00  0.00     0.320 C 
HETATM    3  N   UNL     1      25.306  45.357  51.661  1.00  0.00    -0.343 N 
HETATM    4  O   UNL     1      25.103  47.555  52.257  1.00  0.00    -0.247 OA
HETATM    5  H   UNL     1      25.197  46.174  49.407  1.00  0.00     0.171 HD
HETATM    6  H   UNL     1      25.432  44.749  50.868  1.00  0.00     0.164 HD
ENDROOT
BRANCH   3   7
HETATM    7  C   UNL     1      25.857  44.903  52.924  1.00  0.00     0.126 C 
BRANCH   7   8
HETATM    8  C   UNL     1      27.379  44.898  53.032  1.00  0.00     0.040 C 
BRANCH   8   9
HETATM    9  C   UNL     1      27.884  45.449  54.359  1.00  0.00     0.130 C 
BRANCH   9  10
HETATM   10  N   UNL     1      29.008  44.672  54.865  1.00  0.00    -0.356 N 
HETATM   11  C   UNL     1      29.666  44.894  56.058  1.00  0.00     0.044 A 
HETATM   12  C   UNL     1      30.690  43.946  56.138  1.00  0.00    -0.008 A 
HETATM   13  C   UNL     1      29.460  45.851  57.065  1.00  0.00     0.030 A 
HETATM   14  C   UNL     1      31.536  43.947  57.265  1.00  0.00     0.014 A 
HETATM   15  C   UNL     1      30.623  43.151  54.961  1.00  0.00     0.031 A 
HETATM   16  C   UNL     1      31.335  44.893  58.276  1.00  0.00     0.001 A 
HETATM   17  C   UNL     1      30.311  45.831  58.174  1.00  0.00     0.002 A 
HETATM   18  C   UNL     1      29.579  43.618  54.198  1.00  0.00     0.092 A 
ENDBRANCH   9  10
ENDBRANCH   8   9
ENDBRANCH   7   8
ENDBRANCH   3   7
BRANCH   1  19
HETATM   19  C   UNL     1      24.597  48.126  49.410  1.00  0.00     0.069 A 
HETATM   20  C   UNL     1      25.633  48.814  48.759  1.00  0.00     0.095 A 
HETATM   21  C   UNL     1      25.388  49.989  48.045  1.00  0.00     0.039 A 
HETATM   22  C   UNL     1      24.098  50.511  48.008  1.00  0.00     0.003 A 
HETATM   23  C   UNL     1      23.063  49.853  48.673  1.00  0.00     0.002 A 
HETATM   24  C   UNL     1      23.310  48.664  49.370  1.00  0.00     0.032 A 
BRANCH  20  25
HETATM   25  O   UNL     1      26.920  48.332  48.804  1.00  0.00    -0.354 OA
HETATM   26  C   UNL     1      27.824  49.390  49.138  1.00  0.00     0.210 C 
ENDBRANCH  20  25
ENDBRANCH   1  19
TORSDOF 6
ENDMDL
MODEL 2
REMARK VINA RESULT:      -8.9      1.386      2.556
REMARK  6 active torsions:
REMARK  status: ('A' for Active; 'I' for Inactive)
REMARK    1  A    between atoms: O_2  and  C_3 
REMARK    2  A    between atoms: C_4  and  N_5 
REMARK       I    between atoms: N_5  and  C_6 
REMARK       I    between atoms: C_6  and  N_7 
REMARK    3  A    between atoms: N_7  and  C_8 
REMARK    4  A    between atoms: C_8  and  C_9 
REMARK    5  A    between atoms: C_9  and  C_10 
REMARK    6  A    between atoms: C_10  and  N_11 
ROOT
HETATM    1  N   UNL     1      25.681  47.073  50.764  1.00  0.00    -0.306 N 
HETATM    2  C   UNL     1      26.341  45.867  50.715  1.00  0.00     0.320 C 
HETATM    3  N   UNL     1      26.196  45.168  51.898  1.00  0.00    -0.343 N 
HETATM    4  O   UNL     1      26.975  45.431  49.765  1.00  0.00    -0.247 OA
HETATM    5  H   UNL     1      24.984  47.199  51.483  1.00  0.00     0.171 HD
HETATM    6  H   UNL     1      25.538  45.542  52.563  1.00  0.00     0.164 HD
ENDROOT
BRANCH   3   7
HETATM    7  C   UNL     1      26.493  43.752  51.999  1.00  0.00     0.126 C 
BRANCH   7   8
HETATM    8  C   UNL     1      27.294  43.318  53.223  1.00  0.00     0.040 C 
BRANCH   8   9
HETATM    9  C   UNL     1      28.701  43.904  53.253  1.00  0.00     0.130 C 
BRANCH   9  10
HETATM   10  N   UNL     1      28.917  44.708  54.447  1.00  0.00    -0.356 N 
HETATM   11  C   UNL     1      29.801  44.413  55.466  1.00  0.00     0.044 A 
HETATM   12  C   UNL     1      29.670  45.425  56.421  1.00  0.00    -0.008 A 
HETATM   13  C   UNL     1      30.691  43.341  55.637  1.00  0.00     0.030 A 
HETATM   14  C   UNL     1      30.460  45.371  57.587  1.00  0.00     0.014 A 
HETATM   15  C   UNL     1      28.687  46.334  55.943  1.00  0.00     0.031 A 
HETATM   16  C   UNL     1      31.354  44.310  57.763  1.00  0.00     0.001 A 
HETATM   17  C   UNL     1      31.466  43.310  56.801  1.00  0.00     0.002 A 
HETATM   18  C   UNL     1      28.242  45.869  54.727  1.00  0.00     0.092 A 
ENDBRANCH   9  10
ENDBRANCH   8   9
ENDBRANCH   7   8
ENDBRANCH   3   7
BRANCH   1  19
HETATM   19  C   UNL     1      25.679  48.079  49.775  1.00  0.00     0.069 A 
HETATM   20  C   UNL     1      24.443  48.448  49.221  1.00  0.00     0.095 A 
HETATM   21  C   UNL     1      24.346  49.488  48.294  1.00  0.00     0.039 A 
HETATM   22  C   UNL     1      25.501  50.147  47.881  1.00  0.00     0.003 A 
HETATM   23  C   UNL     1      26.740  49.772  48.402  1.00  0.00     0.002 A 
HETATM   24  C   UNL     1      26.829  48.743  49.347  1.00  0.00     0.032 A 
BRANCH  20  25
HETATM   25  O   UNL     1      23.293  47.795  49.595  1.00  0.00    -0.354 OA
HETATM   26  C   UNL     1      22.504  47.500  48.438  1.00  0.00     0.210 C 
ENDBRANCH  20  25
ENDBRANCH   1  19
TORSDOF 6
ENDMDL
MODEL 3
REMARK VINA RESULT:      -8.4      1.770      2.792
REMARK  6 active torsions:
REMARK  status: ('A' for Active; 'I' for Inactive)
REMARK    1  A    between atoms: O_2  and  C_3 
REMARK    2  A    between atoms: C_4  and  N_5 
REMARK       I    between atoms: N_5  and  C_6 
REMARK       I    between atoms: C_6  and  N_7 
REMARK    3  A    between atoms: N_7  and  C_8 
REMARK    4  A    between atoms: C_8  and  C_9 
REMARK    5  A    between atoms: C_9  and  C_10 
REMARK    6  A    between atoms: C_10  and  N_11 
ROOT
HETATM    1  N   UNL     1      23.819  47.488  50.328  1.00  0.00    -0.306 N 
HETATM    2  C   UNL     1      24.073  46.177  50.000  1.00  0.00     0.320 C 
HETATM    3  N   UNL     1      24.380  45.431  51.122  1.00  0.00    -0.343 N 
HETATM    4  O   UNL     1      24.033  45.694  48.878  1.00  0.00    -0.247 OA
HETATM    5  H   UNL     1      23.621  47.702  51.294  1.00  0.00     0.171 HD
HETATM    6  H   UNL     1      24.244  45.882  52.013  1.00  0.00     0.164 HD
ENDROOT
BRANCH   3   7
HETATM    7  C   UNL     1      24.357  43.981  51.115  1.00  0.00     0.126 C 
BRANCH   7   8
HETATM    8  C   UNL     1      25.674  43.285  51.440  1.00  0.00     0.040 C 
BRANCH   8   9
HETATM    9  C   UNL     1      26.878  44.215  51.351  1.00  0.00     0.130 C 
BRANCH   9  10
HETATM   10  N   UNL     1      27.394  44.546  52.672  1.00  0.00    -0.356 N 
HETATM   11  C   UNL     1      28.529  44.011  53.249  1.00  0.00     0.044 A 
HETATM   12  C   UNL     1      28.641  44.577  54.522  1.00  0.00    -0.008 A 
HETATM   13  C   UNL     1      29.456  43.071  52.769  1.00  0.00     0.030 A 
HETATM   14  C   UNL     1      29.721  44.198  55.345  1.00  0.00     0.014 A 
HETATM   15  C   UNL     1      27.545  45.467  54.687  1.00  0.00     0.031 A 
HETATM   16  C   UNL     1      30.652  43.267  54.874  1.00  0.00     0.001 A 
HETATM   17  C   UNL     1      30.519  42.713  53.604  1.00  0.00     0.002 A 
HETATM   18  C   UNL     1      26.796  45.429  53.535  1.00  0.00     0.092 A 
ENDBRANCH   9  10
ENDBRANCH   8   9
ENDBRANCH   7   8
ENDBRANCH   3   7
BRANCH   1  19
HETATM   19  C   UNL     1      23.555  48.549  49.436  1.00  0.00     0.069 A 
HETATM   20  C   UNL     1      24.652  49.181  48.830  1.00  0.00     0.095 A 
HETATM   21  C   UNL     1      24.473  50.187  47.877  1.00  0.00     0.039 A 
HETATM   22  C   UNL     1      23.184  50.599  47.550  1.00  0.00     0.003 A 
HETATM   23  C   UNL     1      22.085  49.999  48.165  1.00  0.00     0.002 A 
HETATM   24  C   UNL     1      22.269  48.976  49.103  1.00  0.00     0.032 A 
BRANCH  20  25
HETATM   25  O   UNL     1      25.934  48.809  49.156  1.00  0.00    -0.354 OA
HETATM   26  C   UNL     1      26.861  49.788  48.676  1.00  0.00     0.210 C 
ENDBRANCH  20  25
ENDBRANCH   1  19
TORSDOF 6
ENDMDL
MODEL 4
REMARK VINA RESULT:      -8.4      1.905      3.377
REMARK  6 active torsions:
REMARK  status: ('A' for Active; 'I' for Inactive)
REMARK    1  A    between atoms: O_2  and  C_3 
REMARK    2  A    between atoms: C_4  and  N_5 
REMARK       I    between atoms: N_5  and  C_6 
REMARK       I    between atoms: C_6  and  N_7 
REMARK    3  A    between atoms: N_7  and  C_8 
REMARK    4  A    between atoms: C_8  and  C_9 
REMARK    5  A    between atoms: C_9  and  C_10 
REMARK    6  A    between atoms: C_10  and  N_11 
ROOT
HETATM    1  N   UNL     1      23.119  47.485  49.571  1.00  0.00    -0.306 N 
HETATM    2  C   UNL     1      24.260  47.180  50.278  1.00  0.00     0.320 C 
HETATM    3  N   UNL     1      24.288  45.846  50.631  1.00  0.00    -0.343 N 
HETATM    4  O   UNL     1      25.157  47.958  50.566  1.00  0.00    -0.247 OA
HETATM    5  H   UNL     1      22.596  46.721  49.170  1.00  0.00     0.171 HD
HETATM    6  H   UNL     1      23.578  45.257  50.224  1.00  0.00     0.164 HD
ENDROOT
BRANCH   3   7
HETATM    7  C   UNL     1      25.503  45.189  51.074  1.00  0.00     0.126 C 
BRANCH   7   8
HETATM    8  C   UNL     1      25.583  44.849  52.559  1.00  0.00     0.040 C 
BRANCH   8   9
HETATM    9  C   UNL     1      26.898  44.185  52.949  1.00  0.00     0.130 C 
BRANCH   9  10
HETATM   10  N   UNL     1      27.624  44.979  53.931  1.00  0.00    -0.356 N 
HETATM   11  C   UNL     1      28.772  44.586  54.590  1.00  0.00     0.044 A 
HETATM   12  C   UNL     1      29.117  45.628  55.457  1.00  0.00    -0.008 A 
HETATM   13  C   UNL     1      29.527  43.405  54.512  1.00  0.00     0.030 A 
HETATM   14  C   UNL     1      30.259  45.490  56.269  1.00  0.00     0.014 A 
HETATM   15  C   UNL     1      28.145  46.653  55.293  1.00  0.00     0.031 A 
HETATM   16  C   UNL     1      31.021  44.319  56.194  1.00  0.00     0.001 A 
HETATM   17  C   UNL     1      30.658  43.293  55.327  1.00  0.00     0.002 A 
HETATM   18  C   UNL     1      27.242  46.228  54.348  1.00  0.00     0.092 A 
ENDBRANCH   9  10
ENDBRANCH   8   9
ENDBRANCH   7   8
ENDBRANCH   3   7
BRANCH   1  19
HETATM   19  C   UNL     1      22.716  48.760  49.122  1.00  0.00     0.069 A 
HETATM   20  C   UNL     1      21.338  49.020  49.045  1.00  0.00     0.095 A 
HETATM   21  C   UNL     1      20.857  50.281  48.685  1.00  0.00     0.039 A 
HETATM   22  C   UNL     1      21.760  51.290  48.357  1.00  0.00     0.003 A 
HETATM   23  C   UNL     1      23.131  51.037  48.402  1.00  0.00     0.002 A 
HETATM   24  C   UNL     1      23.608  49.778  48.785  1.00  0.00     0.032 A 
BRANCH  20  25
HETATM   25  O   UNL     1      20.429  48.032  49.339  1.00  0.00    -0.354 OA
HETATM   26  C   UNL     1      19.197  48.288  48.658  1.00  0.00     0.210 C 
ENDBRANCH  20  25
ENDBRANCH   1  19
TORSDOF 6
ENDMDL
MODEL 5
REMARK VINA RESULT:      -8.4      3.334      5.383
REMARK  6 active torsions:
REMARK  status: ('A' for Active; 'I' for Inactive)
REMARK    1  A    between atoms: O_2  and  C_3 
REMARK    2  A    between atoms: C_4  and  N_5 
REMARK       I    between atoms: N_5  and  C_6 
REMARK       I    between atoms: C_6  and  N_7 
REMARK    3  A    between atoms: N_7  and  C_8 
REMARK    4  A    between atoms: C_8  and  C_9 
REMARK    5  A    between atoms: C_9  and  C_10 
REMARK    6  A    between atoms: C_10  and  N_11 
ROOT
HETATM    1  N   UNL     1      21.494  49.928  49.941  1.00  0.00    -0.306 N 
HETATM    2  C   UNL     1      22.073  48.897  49.238  1.00  0.00     0.320 C 
HETATM    3  N   UNL     1      23.198  48.421  49.883  1.00  0.00    -0.343 N 
HETATM    4  O   UNL     1      21.669  48.428  48.184  1.00  0.00    -0.247 OA
HETATM    5  H   UNL     1      21.756  50.043  50.909  1.00  0.00     0.171 HD
HETATM    6  H   UNL     1      23.366  48.771  50.813  1.00  0.00     0.164 HD
ENDROOT
BRANCH   3   7
HETATM    7  C   UNL     1      23.796  47.142  49.550  1.00  0.00     0.126 C 
BRANCH   7   8
HETATM    8  C   UNL     1      25.003  46.726  50.384  1.00  0.00     0.040 C 
BRANCH   8   9
HETATM    9  C   UNL     1      24.680  45.635  51.398  1.00  0.00     0.130 C 
BRANCH   9  10
HETATM   10  N   UNL     1      25.841  45.308  52.215  1.00  0.00    -0.356 N 
HETATM   11  C   UNL     1      26.312  46.054  53.277  1.00  0.00     0.044 A 
HETATM   12  C   UNL     1      27.451  45.400  53.757  1.00  0.00    -0.008 A 
HETATM   13  C   UNL     1      25.846  47.250  53.848  1.00  0.00     0.030 A 
HETATM   14  C   UNL     1      28.147  45.955  54.849  1.00  0.00     0.014 A 
HETATM   15  C   UNL     1      27.644  44.243  52.955  1.00  0.00     0.031 A 
HETATM   16  C   UNL     1      27.688  47.143  55.427  1.00  0.00     0.001 A 
HETATM   17  C   UNL     1      26.554  47.779  54.931  1.00  0.00     0.002 A 
HETATM   18  C   UNL     1      26.639  44.210  52.017  1.00  0.00     0.092 A 
ENDBRANCH   9  10
ENDBRANCH   8   9
ENDBRANCH   7   8
ENDBRANCH   3   7
BRANCH   1  19
HETATM   19  C   UNL     1      20.386  50.706  49.546  1.00  0.00     0.069 A 
HETATM   20  C   UNL     1      19.175  50.513  50.230  1.00  0.00     0.095 A 
HETATM   21  C   UNL     1      18.052  51.296  49.952  1.00  0.00     0.039 A 
HETATM   22  C   UNL     1      18.122  52.262  48.952  1.00  0.00     0.003 A 
HETATM   23  C   UNL     1      19.311  52.446  48.245  1.00  0.00     0.002 A 
HETATM   24  C   UNL     1      20.439  51.673  48.541  1.00  0.00     0.032 A 
BRANCH  20  25
HETATM   25  O   UNL     1      19.075  49.547  51.204  1.00  0.00    -0.354 OA
HETATM   26  C   UNL     1      18.473  48.369  50.659  1.00  0.00     0.210 C 
ENDBRANCH  20  25
ENDBRANCH   1  19
TORSDOF 6
ENDMDL
MODEL 6
REMARK VINA RESULT:      -8.3      1.439      2.030
REMARK  6 active torsions:
REMARK  status: ('A' for Active; 'I' for Inactive)
REMARK    1  A    between atoms: O_2  and  C_3 
REMARK    2  A    between atoms: C_4  and  N_5 
REMARK       I    between atoms: N_5  and  C_6 
REMARK       I    between atoms: C_6  and  N_7 
REMARK    3  A    between atoms: N_7  and  C_8 
REMARK    4  A    between atoms: C_8  and  C_9 
REMARK    5  A    between atoms: C_9  and  C_10 
REMARK    6  A    between atoms: C_10  and  N_11 
ROOT
HETATM    1  N   UNL     1      23.997  47.400  49.276  1.00  0.00    -0.306 N 
HETATM    2  C   UNL     1      24.654  46.992  50.414  1.00  0.00     0.320 C 
HETATM    3  N   UNL     1      25.224  45.746  50.244  1.00  0.00    -0.343 N 
HETATM    4  O   UNL     1      24.752  47.626  51.455  1.00  0.00    -0.247 OA
HETATM    5  H   UNL     1      24.211  46.923  48.413  1.00  0.00     0.171 HD
HETATM    6  H   UNL     1      25.214  45.370  49.309  1.00  0.00     0.164 HD
ENDROOT
BRANCH   3   7
HETATM    7  C   UNL     1      26.241  45.233  51.142  1.00  0.00     0.126 C 
BRANCH   7   8
HETATM    8  C   UNL     1      25.867  43.991  51.945  1.00  0.00     0.040 C 
BRANCH   8   9
HETATM    9  C   UNL     1      26.199  44.118  53.427  1.00  0.00     0.130 C 
BRANCH   9  10
HETATM   10  N   UNL     1      27.472  43.484  53.743  1.00  0.00    -0.356 N 
HETATM   11  C   UNL     1      28.458  44.019  54.548  1.00  0.00     0.044 A 
HETATM   12  C   UNL     1      29.512  43.102  54.560  1.00  0.00    -0.008 A 
HETATM   13  C   UNL     1      28.520  45.232  55.254  1.00  0.00     0.030 A 
HETATM   14  C   UNL     1      30.669  43.401  55.307  1.00  0.00     0.014 A 
HETATM   15  C   UNL     1      29.127  42.004  53.744  1.00  0.00     0.031 A 
HETATM   16  C   UNL     1      30.738  44.603  56.018  1.00  0.00     0.001 A 
HETATM   17  C   UNL     1      29.678  45.505  55.989  1.00  0.00     0.002 A 
HETATM   18  C   UNL     1      27.868  42.265  53.256  1.00  0.00     0.092 A 
ENDBRANCH   9  10
ENDBRANCH   8   9
ENDBRANCH   7   8
ENDBRANCH   3   7
BRANCH   1  19
HETATM   19  C   UNL     1      23.234  48.575  49.113  1.00  0.00     0.069 A 
HETATM   20  C   UNL     1      23.925  49.788  48.969  1.00  0.00     0.095 A 
HETATM   21  C   UNL     1      23.247  50.985  48.725  1.00  0.00     0.039 A 
HETATM   22  C   UNL     1      21.856  50.982  48.662  1.00  0.00     0.003 A 
HETATM   23  C   UNL     1      21.154  49.788  48.831  1.00  0.00     0.002 A 
HETATM   24  C   UNL     1      21.840  48.588  49.053  1.00  0.00     0.032 A 
BRANCH  20  25
HETATM   25  O   UNL     1      25.297  49.819  49.053  1.00  0.00    -0.354 OA
HETATM   26  C   UNL     1      25.859  50.012  47.751  1.00  0.00     0.210 C 
ENDBRANCH  20  25
ENDBRANCH   1  19
TORSDOF 6
ENDMDL
MODEL 7
REMARK VINA RESULT:      -8.3      1.919      8.319
REMARK  6 active torsions:
REMARK  status: ('A' for Active; 'I' for Inactive)
REMARK    1  A    between atoms: O_2  and  C_3 
REMARK    2  A    between atoms: C_4  and  N_5 
REMARK       I    between atoms: N_5  and  C_6 
REMARK       I    between atoms: C_6  and  N_7 
REMARK    3  A    between atoms: N_7  and  C_8 
REMARK    4  A    between atoms: C_8  and  C_9 
REMARK    5  A    between atoms: C_9  and  C_10 
REMARK    6  A    between atoms: C_10  and  N_11 
ROOT
HETATM    1  N   UNL     1      27.057  43.441  53.364  1.00  0.00    -0.306 N 
HETATM    2  C   UNL     1      26.892  43.610  52.009  1.00  0.00     0.320 C 
HETATM    3  N   UNL     1      25.658  43.151  51.593  1.00  0.00    -0.343 N 
HETATM    4  O   UNL     1      27.704  44.106  51.242  1.00  0.00    -0.247 OA
HETATM    5  H   UNL     1      26.231  43.274  53.921  1.00  0.00     0.171 HD
HETATM    6  H   UNL     1      25.005  42.896  52.317  1.00  0.00     0.164 HD
ENDROOT
BRANCH   3   7
HETATM    7  C   UNL     1      25.094  43.509  50.305  1.00  0.00     0.126 C 
BRANCH   7   8
HETATM    8  C   UNL     1      24.116  44.679  50.299  1.00  0.00     0.040 C 
BRANCH   8   9
HETATM    9  C   UNL     1      24.713  45.959  50.870  1.00  0.00     0.130 C 
BRANCH   9  10
HETATM   10  N   UNL     1      24.497  47.091  49.979  1.00  0.00    -0.356 N 
HETATM   11  C   UNL     1      25.468  47.980  49.559  1.00  0.00     0.044 A 
HETATM   12  C   UNL     1      24.830  48.919  48.744  1.00  0.00    -0.008 A 
HETATM   13  C   UNL     1      26.843  48.048  49.836  1.00  0.00     0.030 A 
HETATM   14  C   UNL     1      25.592  49.960  48.178  1.00  0.00     0.014 A 
HETATM   15  C   UNL     1      23.454  48.564  48.685  1.00  0.00     0.031 A 
HETATM   16  C   UNL     1      26.963  50.033  48.443  1.00  0.00     0.001 A 
HETATM   17  C   UNL     1      27.577  49.090  49.262  1.00  0.00     0.002 A 
HETATM   18  C   UNL     1      23.279  47.436  49.451  1.00  0.00     0.092 A 
ENDBRANCH   9  10
ENDBRANCH   8   9
ENDBRANCH   7   8
ENDBRANCH   3   7
BRANCH   1  19
HETATM   19  C   UNL     1      28.216  43.716  54.118  1.00  0.00     0.069 A 
HETATM   20  C   UNL     1      28.357  45.006  54.653  1.00  0.00     0.095 A 
HETATM   21  C   UNL     1      29.437  45.337  55.475  1.00  0.00     0.039 A 
HETATM   22  C   UNL     1      30.414  44.380  55.739  1.00  0.00     0.003 A 
HETATM   23  C   UNL     1      30.301  43.102  55.192  1.00  0.00     0.002 A 
HETATM   24  C   UNL     1      29.206  42.769  54.386  1.00  0.00     0.032 A 
BRANCH  20  25
HETATM   25  O   UNL     1      27.419  45.974  54.384  1.00  0.00    -0.354 OA
HETATM   26  C   UNL     1      27.543  47.046  55.325  1.00  0.00     0.210 C 
ENDBRANCH  20  25
ENDBRANCH   1  19
TORSDOF 6
ENDMDL
MODEL 8
REMARK VINA RESULT:      -8.2      2.030      9.454
REMARK  6 active torsions:
REMARK  status: ('A' for Active; 'I' for Inactive)
REMARK    1  A    between atoms: O_2  and  C_3 
REMARK    2  A    between atoms: C_4  and  N_5 
REMARK       I    between atoms: N_5  and  C_6 
REMARK       I    between atoms: C_6  and  N_7 
REMARK    3  A    between atoms: N_7  and  C_8 
REMARK    4  A    between atoms: C_8  and  C_9 
REMARK    5  A    between atoms: C_9  and  C_10 
REMARK    6  A    between atoms: C_10  and  N_11 
ROOT
HETATM    1  N   UNL     1      28.825  46.085  54.859  1.00  0.00    -0.306 N 
HETATM    2  C   UNL     1      27.505  45.901  54.518  1.00  0.00     0.320 C 
HETATM    3  N   UNL     1      27.030  46.958  53.766  1.00  0.00    -0.343 N 
HETATM    4  O   UNL     1      26.812  44.938  54.813  1.00  0.00    -0.247 OA
HETATM    5  H   UNL     1      29.353  46.771  54.341  1.00  0.00     0.171 HD
HETATM    6  H   UNL     1      27.713  47.629  53.452  1.00  0.00     0.164 HD
ENDROOT
BRANCH   3   7
HETATM    7  C   UNL     1      25.802  46.870  52.999  1.00  0.00     0.126 C 
BRANCH   7   8
HETATM    8  C   UNL     1      25.946  46.432  51.545  1.00  0.00     0.040 C 
BRANCH   8   9
HETATM    9  C   UNL     1      24.713  46.739  50.705  1.00  0.00     0.130 C 
BRANCH   9  10
HETATM   10  N   UNL     1      24.930  47.891  49.840  1.00  0.00    -0.356 N 
HETATM   11  C   UNL     1      23.941  48.626  49.217  1.00  0.00     0.044 A 
HETATM   12  C   UNL     1      24.584  49.615  48.468  1.00  0.00    -0.008 A 
HETATM   13  C   UNL     1      22.543  48.500  49.236  1.00  0.00     0.030 A 
HETATM   14  C   UNL     1      23.805  50.516  47.714  1.00  0.00     0.014 A 
HETATM   15  C   UNL     1      25.983  49.452  48.663  1.00  0.00     0.031 A 
HETATM   16  C   UNL     1      22.411  50.402  47.732  1.00  0.00     0.001 A 
HETATM   17  C   UNL     1      21.792  49.407  48.482  1.00  0.00     0.002 A 
HETATM   18  C   UNL     1      26.166  48.386  49.512  1.00  0.00     0.092 A 
ENDBRANCH   9  10
ENDBRANCH   8   9
ENDBRANCH   7   8
ENDBRANCH   3   7
BRANCH   1  19
HETATM   19  C   UNL     1      29.609  45.255  55.687  1.00  0.00     0.069 A 
HETATM   20  C   UNL     1      30.055  44.035  55.156  1.00  0.00     0.095 A 
HETATM   21  C   UNL     1      30.899  43.192  55.882  1.00  0.00     0.039 A 
HETATM   22  C   UNL     1      31.277  43.551  57.174  1.00  0.00     0.003 A 
HETATM   23  C   UNL     1      30.820  44.748  57.725  1.00  0.00     0.002 A 
HETATM   24  C   UNL     1      29.991  45.598  56.985  1.00  0.00     0.032 A 
BRANCH  20  25
HETATM   25  O   UNL     1      29.674  43.648  53.893  1.00  0.00    -0.354 OA
HETATM   26  C   UNL     1      30.511  42.580  53.438  1.00  0.00     0.210 C 
ENDBRANCH  20  25
ENDBRANCH   1  19
TORSDOF 6
ENDMDL
MODEL 9
REMARK VINA RESULT:      -8.2      2.777      8.090
REMARK  6 active torsions:
REMARK  status: ('A' for Active; 'I' for Inactive)
REMARK    1  A    between atoms: O_2  and  C_3 
REMARK    2  A    between atoms: C_4  and  N_5 
REMARK       I    between atoms: N_5  and  C_6 
REMARK       I    between atoms: C_6  and  N_7 
REMARK    3  A    between atoms: N_7  and  C_8 
REMARK    4  A    between atoms: C_8  and  C_9 
REMARK    5  A    between atoms: C_9  and  C_10 
REMARK    6  A    between atoms: C_10  and  N_11 
ROOT
HETATM    1  N   UNL     1      30.310  43.220  54.144  1.00  0.00    -0.306 N 
HETATM    2  C   UNL     1      29.272  42.405  53.757  1.00  0.00     0.320 C 
HETATM    3  N   UNL     1      29.381  42.052  52.427  1.00  0.00    -0.343 N 
HETATM    4  O   UNL     1      28.359  42.015  54.471  1.00  0.00    -0.247 OA
HETATM    5  H   UNL     1      31.129  43.251  53.554  1.00  0.00     0.171 HD
HETATM    6  H   UNL     1      30.241  42.301  51.964  1.00  0.00     0.164 HD
ENDROOT
BRANCH   3   7
HETATM    7  C   UNL     1      28.630  40.949  51.856  1.00  0.00     0.126 C 
BRANCH   7   8
HETATM    8  C   UNL     1      27.187  41.250  51.463  1.00  0.00     0.040 C 
BRANCH   8   9
HETATM    9  C   UNL     1      27.053  42.490  50.589  1.00  0.00     0.130 C 
BRANCH   9  10
HETATM   10  N   UNL     1      26.506  43.613  51.338  1.00  0.00    -0.356 N 
HETATM   11  C   UNL     1      26.494  44.929  50.920  1.00  0.00     0.044 A 
HETATM   12  C   UNL     1      25.907  45.674  51.946  1.00  0.00    -0.008 A 
HETATM   13  C   UNL     1      26.960  45.529  49.738  1.00  0.00     0.030 A 
HETATM   14  C   UNL     1      25.773  47.068  51.786  1.00  0.00     0.014 A 
HETATM   15  C   UNL     1      25.566  44.767  52.986  1.00  0.00     0.031 A 
HETATM   16  C   UNL     1      26.228  47.674  50.611  1.00  0.00     0.001 A 
HETATM   17  C   UNL     1      26.814  46.913  49.603  1.00  0.00     0.002 A 
HETATM   18  C   UNL     1      25.943  43.508  52.585  1.00  0.00     0.092 A 
ENDBRANCH   9  10
ENDBRANCH   8   9
ENDBRANCH   7   8
ENDBRANCH   3   7
BRANCH   1  19
HETATM   19  C   UNL     1      30.480  43.838  55.400  1.00  0.00     0.069 A 
HETATM   20  C   UNL     1      29.727  44.992  55.668  1.00  0.00     0.095 A 
HETATM   21  C   UNL     1      29.779  45.619  56.915  1.00  0.00     0.039 A 
HETATM   22  C   UNL     1      30.624  45.114  57.900  1.00  0.00     0.003 A 
HETATM   23  C   UNL     1      31.400  43.984  57.638  1.00  0.00     0.002 A 
HETATM   24  C   UNL     1      31.327  43.347  56.394  1.00  0.00     0.032 A 
BRANCH  20  25
HETATM   25  O   UNL     1      28.906  45.524  54.702  1.00  0.00    -0.354 OA
HETATM   26  C   UNL     1      28.304  46.729  55.186  1.00  0.00     0.210 C 
ENDBRANCH  20  25
ENDBRANCH   1  19
TORSDOF 6
ENDMDL
MODEL 10
REMARK VINA RESULT:      -8.0      2.612      4.325
REMARK  6 active torsions:
REMARK  status: ('A' for Active; 'I' for Inactive)
REMARK    1  A    between atoms: O_2  and  C_3 
REMARK    2  A    between atoms: C_4  and  N_5 
REMARK       I    between atoms: N_5  and  C_6 
REMARK       I    between atoms: C_6  and  N_7 
REMARK    3  A    between atoms: N_7  and  C_8 
REMARK    4  A    between atoms: C_8  and  C_9 
REMARK    5  A    between atoms: C_9  and  C_10 
REMARK    6  A    between atoms: C_10  and  N_11 
ROOT
HETATM    1  N   UNL     1      22.047  48.504  49.531  1.00  0.00    -0.306 N 
HETATM    2  C   UNL     1      23.421  48.440  49.510  1.00  0.00     0.320 C 
HETATM    3  N   UNL     1      23.886  47.402  50.292  1.00  0.00    -0.343 N 
HETATM    4  O   UNL     1      24.166  49.181  48.885  1.00  0.00    -0.247 OA
HETATM    5  H   UNL     1      21.543  47.691  49.856  1.00  0.00     0.171 HD
HETATM    6  H   UNL     1      23.194  46.761  50.647  1.00  0.00     0.164 HD
ENDROOT
BRANCH   3   7
HETATM    7  C   UNL     1      25.243  46.902  50.184  1.00  0.00     0.126 C 
BRANCH   7   8
HETATM    8  C   UNL     1      26.136  47.106  51.404  1.00  0.00     0.040 C 
BRANCH   8   9
HETATM    9  C   UNL     1      25.726  46.244  52.593  1.00  0.00     0.130 C 
BRANCH   9  10
HETATM   10  N   UNL     1      26.714  46.308  53.662  1.00  0.00    -0.356 N 
HETATM   11  C   UNL     1      27.679  45.356  53.922  1.00  0.00     0.044 A 
HETATM   12  C   UNL     1      28.389  45.796  55.043  1.00  0.00    -0.008 A 
HETATM   13  C   UNL     1      27.981  44.144  53.280  1.00  0.00     0.030 A 
HETATM   14  C   UNL     1      29.443  45.002  55.538  1.00  0.00     0.014 A 
HETATM   15  C   UNL     1      27.824  47.037  55.442  1.00  0.00     0.031 A 
HETATM   16  C   UNL     1      29.754  43.795  54.902  1.00  0.00     0.001 A 
HETATM   17  C   UNL     1      29.031  43.375  53.790  1.00  0.00     0.002 A 
HETATM   18  C   UNL     1      26.797  47.329  54.575  1.00  0.00     0.092 A 
ENDBRANCH   9  10
ENDBRANCH   8   9
ENDBRANCH   7   8
ENDBRANCH   3   7
BRANCH   1  19
HETATM   19  C   UNL     1      21.234  49.480  48.919  1.00  0.00     0.069 A 
HETATM   20  C   UNL     1      20.592  49.138  47.718  1.00  0.00     0.095 A 
HETATM   21  C   UNL     1      19.709  50.020  47.091  1.00  0.00     0.039 A 
HETATM   22  C   UNL     1      19.490  51.279  47.644  1.00  0.00     0.003 A 
HETATM   23  C   UNL     1      20.143  51.643  48.822  1.00  0.00     0.002 A 
HETATM   24  C   UNL     1      21.010  50.747  49.459  1.00  0.00     0.032 A 
BRANCH  20  25
HETATM   25  O   UNL     1      20.813  47.911  47.140  1.00  0.00    -0.354 OA
HETATM   26  C   UNL     1      19.599  47.152  47.131  1.00  0.00     0.210 C 
ENDBRANCH  20  25
ENDBRANCH   1  19
TORSDOF 6
ENDMDL
