MODEL 1
REMARK VINA RESULT:     -11.3      0.000      0.000
REMARK  8 active torsions:
REMARK  status: ('A' for Active; 'I' for Inactive)
REMARK    1  A    between atoms: C_6  and  S_7 
REMARK    2  A    between atoms: S_7  and  C_8 
REMARK    3  A    between atoms: C_8  and  C_9 
REMARK       I    between atoms: C_9  and  N_10 
REMARK    4  A    between atoms: N_10  and  C_11 
REMARK    5  A    between atoms: C_24  and  C_25 
REMARK    6  A    between atoms: C_25  and  C_26 
REMARK       I    between atoms: C_26  and  N_27 
REMARK    7  A    between atoms: N_27  and  C_28 
REMARK    8  A    between atoms: C_28  and  C_29 
ROOT
HETATM    1  C   UNL     1      27.648  49.493  49.157  1.00  0.00     0.001 A 
HETATM    2  C   UNL     1      27.368  48.275  49.776  1.00  0.00     0.018 A 
HETATM    3  C   UNL     1      26.086  47.730  49.659  1.00  0.00     0.039 A 
HETATM    4  C   UNL     1      25.076  48.386  48.945  1.00  0.00     0.073 A 
HETATM    5  N   UNL     1      23.786  47.846  48.791  1.00  0.00    -0.223 NA
HETATM    6  C   UNL     1      23.555  46.680  49.307  1.00  0.00     0.178 A 
HETATM    7  N   UNL     1      24.491  45.959  50.031  1.00  0.00    -0.241 N 
HETATM    8  C   UNL     1      25.751  46.423  50.234  1.00  0.00     0.147 A 
HETATM    9  N   UNL     1      26.573  45.673  50.911  1.00  0.00    -0.256 NA
HETATM   10  C   UNL     1      24.391  44.747  50.674  1.00  0.00     0.257 C 
HETATM   11  O   UNL     1      23.410  44.047  50.857  1.00  0.00    -0.270 OA
HETATM   12  C   UNL     1      25.790  44.433  51.172  1.00  0.00     0.211 C 
HETATM   13  C   UNL     1      25.373  49.605  48.333  1.00  0.00     0.032 A 
HETATM   14  C   UNL     1      26.653  50.155  48.434  1.00  0.00     0.002 A 
ENDROOT
BRANCH  12  15
HETATM   15  C   UNL     1      25.780  43.959  52.614  1.00  0.00     0.140 C 
BRANCH  15  16
HETATM   16  C   UNL     1      25.894  45.004  53.699  1.00  0.00     0.220 C 
HETATM   17  N   UNL     1      27.149  45.551  53.825  1.00  0.00    -0.357 N 
HETATM   18  H   UNL     1      27.649  45.709  52.957  1.00  0.00     0.162 HD
HETATM   19  O   UNL     1      24.965  45.249  54.462  1.00  0.00    -0.274 OA
BRANCH  17  20
HETATM   20  C   UNL     1      27.458  46.417  54.940  1.00  0.00     0.161 C 
BRANCH  20  21
HETATM   21  C   UNL     1      28.524  45.855  55.854  1.00  0.00    -0.038 A 
HETATM   22  C   UNL     1      29.369  44.842  55.365  1.00  0.00     0.048 A 
HETATM   23  C   UNL     1      30.363  44.359  56.193  1.00  0.00     0.105 A 
HETATM   24  C   UNL     1      30.546  44.842  57.465  1.00  0.00     0.105 A 
HETATM   25  O   UNL     1      31.258  43.386  55.873  1.00  0.00    -0.323 OA
HETATM   26  O   UNL     1      31.573  44.231  58.111  1.00  0.00    -0.323 OA
HETATM   27  C   UNL     1      29.755  45.846  57.977  1.00  0.00     0.040 A 
HETATM   28  C   UNL     1      32.025  43.314  57.094  1.00  0.00     0.352 A 
HETATM   29  C   UNL     1      28.746  46.363  57.157  1.00  0.00     0.012 A 
ENDBRANCH  20  21
ENDBRANCH  17  20
ENDBRANCH  15  16
ENDBRANCH  12  15
BRANCH   6  30
HETATM   30  S   UNL     1      21.980  45.994  49.021  1.00  0.00    -0.082 SA
BRANCH  30  31
HETATM   31  C   UNL     1      21.595  46.844  47.463  1.00  0.00     0.185 C 
BRANCH  31  32
HETATM   32  C   UNL     1      20.445  47.818  47.658  1.00  0.00     0.232 C 
HETATM   33  N   UNL     1      20.820  48.969  48.335  1.00  0.00    -0.324 N 
HETATM   34  H   UNL     1      21.815  49.176  48.320  1.00  0.00     0.169 HD
HETATM   35  O   UNL     1      19.324  47.551  47.239  1.00  0.00    -0.272 OA
BRANCH  33  36
HETATM   36  C   UNL     1      19.966  50.015  48.749  1.00  0.00     0.073 A 
HETATM   37  C   UNL     1      18.962  49.895  49.719  1.00  0.00     0.143 A 
HETATM   38  F   UNL     1      18.795  48.769  50.427  1.00  0.00    -0.204 F 
HETATM   39  C   UNL     1      18.150  50.979  50.052  1.00  0.00     0.044 A 
HETATM   40  C   UNL     1      18.342  52.212  49.435  1.00  0.00     0.003 A 
HETATM   41  C   UNL     1      19.361  52.361  48.497  1.00  0.00     0.002 A 
HETATM   42  C   UNL     1      20.173  51.271  48.162  1.00  0.00     0.033 A 
ENDBRANCH  33  36
ENDBRANCH  31  32
ENDBRANCH  30  31
ENDBRANCH   6  30
TORSDOF 8
ENDMDL
MODEL 2
REMARK VINA RESULT:     -11.1      1.211      1.736
REMARK  8 active torsions:
REMARK  status: ('A' for Active; 'I' for Inactive)
REMARK    1  A    between atoms: C_6  and  S_7 
REMARK    2  A    between atoms: S_7  and  C_8 
REMARK    3  A    between atoms: C_8  and  C_9 
REMARK       I    between atoms: C_9  and  N_10 
REMARK    4  A    between atoms: N_10  and  C_11 
REMARK    5  A    between atoms: C_24  and  C_25 
REMARK    6  A    between atoms: C_25  and  C_26 
REMARK       I    between atoms: C_26  and  N_27 
REMARK    7  A    between atoms: N_27  and  C_28 
REMARK    8  A    between atoms: C_28  and  C_29 
ROOT
HETATM    1  C   UNL     1      27.635  49.509  48.966  1.00  0.00     0.001 A 
HETATM    2  C   UNL     1      27.311  48.252  49.475  1.00  0.00     0.018 A 
HETATM    3  C   UNL     1      25.987  47.810  49.411  1.00  0.00     0.039 A 
HETATM    4  C   UNL     1      24.977  48.607  48.859  1.00  0.00     0.073 A 
HETATM    5  N   UNL     1      23.642  48.175  48.759  1.00  0.00    -0.223 NA
HETATM    6  C   UNL     1      23.364  46.977  49.167  1.00  0.00     0.178 A 
HETATM    7  N   UNL     1      24.296  46.118  49.729  1.00  0.00    -0.241 N 
HETATM    8  C   UNL     1      25.599  46.472  49.871  1.00  0.00     0.147 A 
HETATM    9  N   UNL     1      26.412  45.598  50.393  1.00  0.00    -0.256 NA
HETATM   10  C   UNL     1      24.155  44.852  50.247  1.00  0.00     0.257 C 
HETATM   11  O   UNL     1      23.141  44.203  50.437  1.00  0.00    -0.270 OA
HETATM   12  C   UNL     1      25.560  44.392  50.588  1.00  0.00     0.211 C 
HETATM   13  C   UNL     1      25.317  49.863  48.355  1.00  0.00     0.032 A 
HETATM   14  C   UNL     1      26.639  50.312  48.404  1.00  0.00     0.002 A 
ENDROOT
BRANCH  12  15
HETATM   15  C   UNL     1      25.626  43.763  51.968  1.00  0.00     0.140 C 
BRANCH  15  16
HETATM   16  C   UNL     1      26.903  43.058  52.360  1.00  0.00     0.220 C 
HETATM   17  N   UNL     1      27.884  43.894  52.839  1.00  0.00    -0.357 N 
HETATM   18  H   UNL     1      27.564  44.659  53.421  1.00  0.00     0.162 HD
HETATM   19  O   UNL     1      27.069  41.860  52.159  1.00  0.00    -0.274 OA
BRANCH  17  20
HETATM   20  C   UNL     1      29.219  43.393  53.069  1.00  0.00     0.161 C 
BRANCH  20  21
HETATM   21  C   UNL     1      29.780  43.786  54.418  1.00  0.00    -0.038 A 
HETATM   22  C   UNL     1      29.230  44.899  55.080  1.00  0.00     0.048 A 
HETATM   23  C   UNL     1      29.722  45.231  56.327  1.00  0.00     0.105 A 
HETATM   24  C   UNL     1      30.720  44.506  56.930  1.00  0.00     0.105 A 
HETATM   25  O   UNL     1      29.300  46.271  57.095  1.00  0.00    -0.323 OA
HETATM   26  O   UNL     1      31.060  45.000  58.149  1.00  0.00    -0.323 OA
HETATM   27  C   UNL     1      31.273  43.398  56.327  1.00  0.00     0.040 A 
HETATM   28  C   UNL     1      30.150  46.116  58.251  1.00  0.00     0.352 A 
HETATM   29  C   UNL     1      30.787  43.031  55.067  1.00  0.00     0.012 A 
ENDBRANCH  20  21
ENDBRANCH  17  20
ENDBRANCH  15  16
ENDBRANCH  12  15
BRANCH   6  30
HETATM   30  S   UNL     1      21.725  46.434  48.945  1.00  0.00    -0.082 SA
BRANCH  30  31
HETATM   31  C   UNL     1      21.443  47.100  47.279  1.00  0.00     0.185 C 
BRANCH  31  32
HETATM   32  C   UNL     1      20.402  48.207  47.318  1.00  0.00     0.232 C 
HETATM   33  N   UNL     1      20.568  49.068  48.393  1.00  0.00    -0.324 N 
HETATM   34  H   UNL     1      21.497  49.072  48.805  1.00  0.00     0.169 HD
HETATM   35  O   UNL     1      19.530  48.273  46.458  1.00  0.00    -0.272 OA
BRANCH  33  36
HETATM   36  C   UNL     1      19.712  50.132  48.754  1.00  0.00     0.073 A 
HETATM   37  C   UNL     1      18.649  50.035  49.660  1.00  0.00     0.143 A 
HETATM   38  F   UNL     1      18.414  48.915  50.357  1.00  0.00    -0.204 F 
HETATM   39  C   UNL     1      17.842  51.138  49.944  1.00  0.00     0.044 A 
HETATM   40  C   UNL     1      18.099  52.365  49.340  1.00  0.00     0.003 A 
HETATM   41  C   UNL     1      19.176  52.490  48.465  1.00  0.00     0.002 A 
HETATM   42  C   UNL     1      19.983  51.382  48.181  1.00  0.00     0.033 A 
ENDBRANCH  33  36
ENDBRANCH  31  32
ENDBRANCH  30  31
ENDBRANCH   6  30
TORSDOF 8
ENDMDL
MODEL 3
REMARK VINA RESULT:     -10.4      3.399      8.608
REMARK  8 active torsions:
REMARK  status: ('A' for Active; 'I' for Inactive)
REMARK    1  A    between atoms: C_6  and  S_7 
REMARK    2  A    between atoms: S_7  and  C_8 
REMARK    3  A    between atoms: C_8  and  C_9 
REMARK       I    between atoms: C_9  and  N_10 
REMARK    4  A    between atoms: N_10  and  C_11 
REMARK    5  A    between atoms: C_24  and  C_25 
REMARK    6  A    between atoms: C_25  and  C_26 
REMARK       I    between atoms: C_26  and  N_27 
REMARK    7  A    between atoms: N_27  and  C_28 
REMARK    8  A    between atoms: C_28  and  C_29 
ROOT
HETATM    1  C   UNL     1      27.827  46.091  55.166  1.00  0.00     0.001 A 
HETATM    2  C   UNL     1      27.341  46.695  54.007  1.00  0.00     0.018 A 
HETATM    3  C   UNL     1      26.837  45.894  52.979  1.00  0.00     0.039 A 
HETATM    4  C   UNL     1      26.819  44.497  53.085  1.00  0.00     0.073 A 
HETATM    5  N   UNL     1      26.292  43.669  52.076  1.00  0.00    -0.223 NA
HETATM    6  C   UNL     1      25.777  44.242  51.035  1.00  0.00     0.178 A 
HETATM    7  N   UNL     1      25.752  45.614  50.843  1.00  0.00    -0.241 N 
HETATM    8  C   UNL     1      26.255  46.474  51.765  1.00  0.00     0.147 A 
HETATM    9  N   UNL     1      26.176  47.750  51.512  1.00  0.00    -0.256 NA
HETATM   10  C   UNL     1      25.292  46.366  49.787  1.00  0.00     0.257 C 
HETATM   11  O   UNL     1      24.881  46.002  48.698  1.00  0.00    -0.270 OA
HETATM   12  C   UNL     1      25.424  47.812  50.229  1.00  0.00     0.211 C 
HETATM   13  C   UNL     1      27.308  43.908  54.251  1.00  0.00     0.032 A 
HETATM   14  C   UNL     1      27.807  44.700  55.290  1.00  0.00     0.002 A 
ENDROOT
BRANCH  12  15
HETATM   15  C   UNL     1      26.049  48.675  49.147  1.00  0.00     0.140 C 
BRANCH  15  16
HETATM   16  C   UNL     1      25.136  49.577  48.350  1.00  0.00     0.220 C 
HETATM   17  N   UNL     1      23.805  49.457  48.673  1.00  0.00    -0.357 N 
HETATM   18  H   UNL     1      23.601  49.322  49.657  1.00  0.00     0.162 HD
HETATM   19  O   UNL     1      25.553  50.267  47.426  1.00  0.00    -0.274 OA
BRANCH  17  20
HETATM   20  C   UNL     1      22.799  50.109  47.866  1.00  0.00     0.161 C 
BRANCH  20  21
HETATM   21  C   UNL     1      21.478  50.280  48.582  1.00  0.00    -0.038 A 
HETATM   22  C   UNL     1      20.743  51.462  48.373  1.00  0.00     0.048 A 
HETATM   23  C   UNL     1      19.522  51.596  49.002  1.00  0.00     0.105 A 
HETATM   24  C   UNL     1      19.012  50.613  49.814  1.00  0.00     0.105 A 
HETATM   25  O   UNL     1      18.692  52.670  48.904  1.00  0.00    -0.323 OA
HETATM   26  O   UNL     1      17.802  50.944  50.337  1.00  0.00    -0.323 OA
HETATM   27  C   UNL     1      19.687  49.433  50.031  1.00  0.00     0.040 A 
HETATM   28  C   UNL     1      17.602  52.247  49.750  1.00  0.00     0.352 A 
HETATM   29  C   UNL     1      20.924  49.264  49.397  1.00  0.00     0.012 A 
ENDBRANCH  20  21
ENDBRANCH  17  20
ENDBRANCH  15  16
ENDBRANCH  12  15
BRANCH   6  30
HETATM   30  S   UNL     1      25.048  43.198  49.846  1.00  0.00    -0.082 SA
BRANCH  30  31
HETATM   31  C   UNL     1      23.323  43.323  50.399  1.00  0.00     0.185 C 
BRANCH  31  32
HETATM   32  C   UNL     1      22.416  43.686  49.234  1.00  0.00     0.232 C 
HETATM   33  N   UNL     1      21.896  44.968  49.333  1.00  0.00    -0.324 N 
HETATM   34  H   UNL     1      22.411  45.599  49.942  1.00  0.00     0.169 HD
HETATM   35  O   UNL     1      22.205  42.881  48.334  1.00  0.00    -0.272 OA
BRANCH  33  36
HETATM   36  C   UNL     1      20.954  45.560  48.463  1.00  0.00     0.073 A 
HETATM   37  C   UNL     1      21.271  46.398  47.386  1.00  0.00     0.143 A 
HETATM   38  F   UNL     1      22.539  46.630  47.020  1.00  0.00    -0.204 F 
HETATM   39  C   UNL     1      20.270  46.956  46.589  1.00  0.00     0.044 A 
HETATM   40  C   UNL     1      18.933  46.667  46.843  1.00  0.00     0.003 A 
HETATM   41  C   UNL     1      18.600  45.805  47.886  1.00  0.00     0.002 A 
HETATM   42  C   UNL     1      19.605  45.249  48.686  1.00  0.00     0.033 A 
ENDBRANCH  33  36
ENDBRANCH  31  32
ENDBRANCH  30  31
ENDBRANCH   6  30
TORSDOF 8
ENDMDL
MODEL 4
REMARK VINA RESULT:     -10.3      2.537      3.555
REMARK  8 active torsions:
REMARK  status: ('A' for Active; 'I' for Inactive)
REMARK    1  A    between atoms: C_6  and  S_7 
REMARK    2  A    between atoms: S_7  and  C_8 
REMARK    3  A    between atoms: C_8  and  C_9 
REMARK       I    between atoms: C_9  and  N_10 
REMARK    4  A    between atoms: N_10  and  C_11 
REMARK    5  A    between atoms: C_24  and  C_25 
REMARK    6  A    between atoms: C_25  and  C_26 
REMARK       I    between atoms: C_26  and  N_27 
REMARK    7  A    between atoms: N_27  and  C_28 
REMARK    8  A    between atoms: C_28  and  C_29 
ROOT
HETATM    1  C   UNL     1      27.639  48.039  49.495  1.00  0.00     0.001 A 
HETATM    2  C   UNL     1      27.542  46.648  49.525  1.00  0.00     0.018 A 
HETATM    3  C   UNL     1      26.278  46.052  49.510  1.00  0.00     0.039 A 
HETATM    4  C   UNL     1      25.108  46.821  49.477  1.00  0.00     0.073 A 
HETATM    5  N   UNL     1      23.825  46.245  49.434  1.00  0.00    -0.223 NA
HETATM    6  C   UNL     1      23.747  44.952  49.388  1.00  0.00     0.178 A 
HETATM    7  N   UNL     1      24.848  44.111  49.419  1.00  0.00    -0.241 N 
HETATM    8  C   UNL     1      26.115  44.595  49.476  1.00  0.00     0.147 A 
HETATM    9  N   UNL     1      27.093  43.734  49.483  1.00  0.00    -0.256 NA
HETATM   10  C   UNL     1      24.931  42.738  49.426  1.00  0.00     0.257 C 
HETATM   11  O   UNL     1      24.041  41.909  49.512  1.00  0.00    -0.270 OA
HETATM   12  C   UNL     1      26.412  42.419  49.333  1.00  0.00     0.211 C 
HETATM   13  C   UNL     1      25.222  48.211  49.447  1.00  0.00     0.032 A 
HETATM   14  C   UNL     1      26.481  48.819  49.452  1.00  0.00     0.002 A 
ENDROOT
BRANCH  12  15
HETATM   15  C   UNL     1      26.821  41.354  50.335  1.00  0.00     0.140 C 
BRANCH  15  16
HETATM   16  C   UNL     1      27.572  41.799  51.568  1.00  0.00     0.220 C 
HETATM   17  N   UNL     1      26.828  42.563  52.435  1.00  0.00    -0.357 N 
HETATM   18  H   UNL     1      25.858  42.289  52.542  1.00  0.00     0.162 HD
HETATM   19  O   UNL     1      28.771  41.579  51.710  1.00  0.00    -0.274 OA
BRANCH  17  20
HETATM   20  C   UNL     1      27.464  43.219  53.555  1.00  0.00     0.161 C 
BRANCH  20  21
HETATM   21  C   UNL     1      26.938  44.615  53.805  1.00  0.00    -0.038 A 
HETATM   22  C   UNL     1      27.417  45.329  54.919  1.00  0.00     0.048 A 
HETATM   23  C   UNL     1      26.960  46.616  55.120  1.00  0.00     0.105 A 
HETATM   24  C   UNL     1      26.063  47.210  54.267  1.00  0.00     0.105 A 
HETATM   25  O   UNL     1      27.323  47.436  56.143  1.00  0.00    -0.323 OA
HETATM   26  O   UNL     1      25.740  48.474  54.646  1.00  0.00    -0.323 OA
HETATM   27  C   UNL     1      25.583  46.556  53.155  1.00  0.00     0.040 A 
HETATM   28  C   UNL     1      26.549  48.614  55.833  1.00  0.00     0.352 A 
HETATM   29  C   UNL     1      26.037  45.253  52.918  1.00  0.00     0.012 A 
ENDBRANCH  20  21
ENDBRANCH  17  20
ENDBRANCH  15  16
ENDBRANCH  12  15
BRANCH   6  30
HETATM   30  S   UNL     1      22.152  44.269  49.241  1.00  0.00    -0.082 SA
BRANCH  30  31
HETATM   31  C   UNL     1      21.630  45.126  47.727  1.00  0.00     0.185 C 
BRANCH  31  32
HETATM   32  C   UNL     1      20.863  46.392  48.071  1.00  0.00     0.232 C 
HETATM   33  N   UNL     1      21.538  47.548  47.708  1.00  0.00    -0.324 N 
HETATM   34  H   UNL     1      22.254  47.427  46.996  1.00  0.00     0.169 HD
HETATM   35  O   UNL     1      19.766  46.329  48.615  1.00  0.00    -0.272 OA
BRANCH  33  36
HETATM   36  C   UNL     1      21.134  48.875  47.976  1.00  0.00     0.073 A 
HETATM   37  C   UNL     1      20.086  49.541  47.328  1.00  0.00     0.143 A 
HETATM   38  F   UNL     1      19.291  48.920  46.447  1.00  0.00    -0.204 F 
HETATM   39  C   UNL     1      19.768  50.863  47.646  1.00  0.00     0.044 A 
HETATM   40  C   UNL     1      20.481  51.535  48.633  1.00  0.00     0.003 A 
HETATM   41  C   UNL     1      21.502  50.876  49.315  1.00  0.00     0.002 A 
HETATM   42  C   UNL     1      21.821  49.551  48.994  1.00  0.00     0.033 A 
ENDBRANCH  33  36
ENDBRANCH  31  32
ENDBRANCH  30  31
ENDBRANCH   6  30
TORSDOF 8
ENDMDL
MODEL 5
REMARK VINA RESULT:     -10.3      2.950     10.913
REMARK  8 active torsions:
REMARK  status: ('A' for Active; 'I' for Inactive)
REMARK    1  A    between atoms: C_6  and  S_7 
REMARK    2  A    between atoms: S_7  and  C_8 
REMARK    3  A    between atoms: C_8  and  C_9 
REMARK       I    between atoms: C_9  and  N_10 
REMARK    4  A    between atoms: N_10  and  C_11 
REMARK    5  A    between atoms: C_24  and  C_25 
REMARK    6  A    between atoms: C_25  and  C_26 
REMARK       I    between atoms: C_26  and  N_27 
REMARK    7  A    between atoms: N_27  and  C_28 
REMARK    8  A    between atoms: C_28  and  C_29 
ROOT
HETATM    1  C   UNL     1      19.894  45.721  46.430  1.00  0.00     0.001 A 
HETATM    2  C   UNL     1      20.683  46.806  46.813  1.00  0.00     0.018 A 
HETATM    3  C   UNL     1      21.754  46.597  47.685  1.00  0.00     0.039 A 
HETATM    4  C   UNL     1      22.046  45.324  48.191  1.00  0.00     0.073 A 
HETATM    5  N   UNL     1      23.134  45.082  49.049  1.00  0.00    -0.223 NA
HETATM    6  C   UNL     1      23.905  46.082  49.341  1.00  0.00     0.178 A 
HETATM    7  N   UNL     1      23.694  47.376  48.890  1.00  0.00    -0.241 N 
HETATM    8  C   UNL     1      22.656  47.687  48.072  1.00  0.00     0.147 A 
HETATM    9  N   UNL     1      22.541  48.924  47.681  1.00  0.00    -0.256 NA
HETATM   10  C   UNL     1      24.381  48.539  49.143  1.00  0.00     0.257 C 
HETATM   11  O   UNL     1      25.297  48.744  49.921  1.00  0.00    -0.270 OA
HETATM   12  C   UNL     1      23.741  49.592  48.257  1.00  0.00     0.211 C 
HETATM   13  C   UNL     1      21.247  44.249  47.799  1.00  0.00     0.032 A 
HETATM   14  C   UNL     1      20.178  44.444  46.920  1.00  0.00     0.002 A 
ENDROOT
BRANCH  12  15
HETATM   15  C   UNL     1      23.469  50.878  49.017  1.00  0.00     0.140 C 
BRANCH  15  16
HETATM   16  C   UNL     1      22.113  51.042  49.660  1.00  0.00     0.220 C 
HETATM   17  N   UNL     1      21.093  51.281  48.770  1.00  0.00    -0.357 N 
HETATM   18  H   UNL     1      21.146  50.774  47.894  1.00  0.00     0.162 HD
HETATM   19  O   UNL     1      21.972  51.066  50.879  1.00  0.00    -0.274 OA
BRANCH  17  20
HETATM   20  C   UNL     1      19.780  51.650  49.249  1.00  0.00     0.161 C 
BRANCH  20  21
HETATM   21  C   UNL     1      18.730  50.594  48.983  1.00  0.00    -0.038 A 
HETATM   22  C   UNL     1      17.609  50.937  48.204  1.00  0.00     0.048 A 
HETATM   23  C   UNL     1      16.672  49.958  47.935  1.00  0.00     0.105 A 
HETATM   24  C   UNL     1      16.810  48.674  48.401  1.00  0.00     0.105 A 
HETATM   25  O   UNL     1      15.539  50.125  47.201  1.00  0.00    -0.323 OA
HETATM   26  O   UNL     1      15.780  47.871  48.028  1.00  0.00    -0.323 OA
HETATM   27  C   UNL     1      17.900  48.290  49.149  1.00  0.00     0.040 A 
HETATM   28  C   UNL     1      14.980  48.796  47.261  1.00  0.00     0.352 A 
HETATM   29  C   UNL     1      18.872  49.258  49.428  1.00  0.00     0.012 A 
ENDBRANCH  20  21
ENDBRANCH  17  20
ENDBRANCH  15  16
ENDBRANCH  12  15
BRANCH   6  30
HETATM   30  S   UNL     1      25.297  45.737  50.328  1.00  0.00    -0.082 SA
BRANCH  30  31
HETATM   31  C   UNL     1      24.518  44.592  51.504  1.00  0.00     0.185 C 
BRANCH  31  32
HETATM   32  C   UNL     1      25.377  44.441  52.748  1.00  0.00     0.232 C 
HETATM   33  N   UNL     1      26.732  44.591  52.491  1.00  0.00    -0.324 N 
HETATM   34  H   UNL     1      26.958  45.091  51.636  1.00  0.00     0.169 HD
HETATM   35  O   UNL     1      24.863  44.207  53.836  1.00  0.00    -0.272 OA
BRANCH  33  36
HETATM   36  C   UNL     1      27.785  44.416  53.416  1.00  0.00     0.073 A 
HETATM   37  C   UNL     1      28.088  45.294  54.464  1.00  0.00     0.143 A 
HETATM   38  F   UNL     1      27.315  46.351  54.746  1.00  0.00    -0.204 F 
HETATM   39  C   UNL     1      29.163  45.049  55.320  1.00  0.00     0.044 A 
HETATM   40  C   UNL     1      29.942  43.908  55.154  1.00  0.00     0.003 A 
HETATM   41  C   UNL     1      29.633  43.004  54.141  1.00  0.00     0.002 A 
HETATM   42  C   UNL     1      28.556  43.252  53.282  1.00  0.00     0.033 A 
ENDBRANCH  33  36
ENDBRANCH  31  32
ENDBRANCH  30  31
ENDBRANCH   6  30
TORSDOF 8
ENDMDL
MODEL 6
REMARK VINA RESULT:     -10.2      3.598     10.688
REMARK  8 active torsions:
REMARK  status: ('A' for Active; 'I' for Inactive)
REMARK    1  A    between atoms: C_6  and  S_7 
REMARK    2  A    between atoms: S_7  and  C_8 
REMARK    3  A    between atoms: C_8  and  C_9 
REMARK       I    between atoms: C_9  and  N_10 
REMARK    4  A    between atoms: N_10  and  C_11 
REMARK    5  A    between atoms: C_24  and  C_25 
REMARK    6  A    between atoms: C_25  and  C_26 
REMARK       I    between atoms: C_26  and  N_27 
REMARK    7  A    between atoms: N_27  and  C_28 
REMARK    8  A    between atoms: C_28  and  C_29 
ROOT
HETATM    1  C   UNL     1      19.457  46.179  45.763  1.00  0.00     0.001 A 
HETATM    2  C   UNL     1      20.377  47.084  46.292  1.00  0.00     0.018 A 
HETATM    3  C   UNL     1      21.229  46.668  47.319  1.00  0.00     0.039 A 
HETATM    4  C   UNL     1      21.170  45.367  47.835  1.00  0.00     0.073 A 
HETATM    5  N   UNL     1      22.035  44.916  48.850  1.00  0.00    -0.223 NA
HETATM    6  C   UNL     1      22.935  45.740  49.285  1.00  0.00     0.178 A 
HETATM    7  N   UNL     1      23.066  47.045  48.836  1.00  0.00    -0.241 N 
HETATM    8  C   UNL     1      22.259  47.554  47.871  1.00  0.00     0.147 A 
HETATM    9  N   UNL     1      22.463  48.785  47.496  1.00  0.00    -0.256 NA
HETATM   10  C   UNL     1      23.926  48.047  49.224  1.00  0.00     0.257 C 
HETATM   11  O   UNL     1      24.727  48.066  50.143  1.00  0.00    -0.270 OA
HETATM   12  C   UNL     1      23.664  49.199  48.272  1.00  0.00     0.211 C 
HETATM   13  C   UNL     1      20.244  44.475  47.294  1.00  0.00     0.032 A 
HETATM   14  C   UNL     1      19.393  44.876  46.261  1.00  0.00     0.002 A 
ENDROOT
BRANCH  12  15
HETATM   15  C   UNL     1      23.541  50.521  49.010  1.00  0.00     0.140 C 
BRANCH  15  16
HETATM   16  C   UNL     1      22.178  50.911  49.531  1.00  0.00     0.220 C 
HETATM   17  N   UNL     1      21.266  51.216  48.549  1.00  0.00    -0.357 N 
HETATM   18  H   UNL     1      21.310  50.642  47.714  1.00  0.00     0.162 HD
HETATM   19  O   UNL     1      21.957  51.045  50.730  1.00  0.00    -0.274 OA
BRANCH  17  20
HETATM   20  C   UNL     1      19.986  51.790  48.897  1.00  0.00     0.161 C 
BRANCH  20  21
HETATM   21  C   UNL     1      18.833  50.826  48.727  1.00  0.00    -0.038 A 
HETATM   22  C   UNL     1      19.076  49.448  48.881  1.00  0.00     0.048 A 
HETATM   23  C   UNL     1      18.011  48.577  48.761  1.00  0.00     0.105 A 
HETATM   24  C   UNL     1      16.737  49.018  48.503  1.00  0.00     0.105 A 
HETATM   25  O   UNL     1      18.077  47.223  48.881  1.00  0.00    -0.323 OA
HETATM   26  O   UNL     1      15.840  48.001  48.419  1.00  0.00    -0.323 OA
HETATM   27  C   UNL     1      16.451  50.358  48.365  1.00  0.00     0.040 A 
HETATM   28  C   UNL     1      16.695  46.866  48.668  1.00  0.00     0.352 A 
HETATM   29  C   UNL     1      17.508  51.267  48.493  1.00  0.00     0.012 A 
ENDBRANCH  20  21
ENDBRANCH  17  20
ENDBRANCH  15  16
ENDBRANCH  12  15
BRANCH   6  30
HETATM   30  S   UNL     1      24.050  45.127  50.472  1.00  0.00    -0.082 SA
BRANCH  30  31
HETATM   31  C   UNL     1      25.401  44.654  49.355  1.00  0.00     0.185 C 
BRANCH  31  32
HETATM   32  C   UNL     1      26.715  44.568  50.114  1.00  0.00     0.232 C 
HETATM   33  N   UNL     1      26.626  43.794  51.262  1.00  0.00    -0.324 N 
HETATM   34  H   UNL     1      25.851  43.138  51.284  1.00  0.00     0.169 HD
HETATM   35  O   UNL     1      27.713  45.149  49.702  1.00  0.00    -0.272 OA
BRANCH  33  36
HETATM   36  C   UNL     1      27.643  43.601  52.224  1.00  0.00     0.073 A 
HETATM   37  C   UNL     1      28.590  42.569  52.194  1.00  0.00     0.143 A 
HETATM   38  F   UNL     1      28.675  41.717  51.164  1.00  0.00    -0.204 F 
HETATM   39  C   UNL     1      29.549  42.444  53.201  1.00  0.00     0.044 A 
HETATM   40  C   UNL     1      29.591  43.363  54.244  1.00  0.00     0.003 A 
HETATM   41  C   UNL     1      28.681  44.419  54.270  1.00  0.00     0.002 A 
HETATM   42  C   UNL     1      27.719  44.541  53.261  1.00  0.00     0.033 A 
ENDBRANCH  33  36
ENDBRANCH  31  32
ENDBRANCH  30  31
ENDBRANCH   6  30
TORSDOF 8
ENDMDL
MODEL 7
REMARK VINA RESULT:     -10.1      2.388      3.204
REMARK  8 active torsions:
REMARK  status: ('A' for Active; 'I' for Inactive)
REMARK    1  A    between atoms: C_6  and  S_7 
REMARK    2  A    between atoms: S_7  and  C_8 
REMARK    3  A    between atoms: C_8  and  C_9 
REMARK       I    between atoms: C_9  and  N_10 
REMARK    4  A    between atoms: N_10  and  C_11 
REMARK    5  A    between atoms: C_24  and  C_25 
REMARK    6  A    between atoms: C_25  and  C_26 
REMARK       I    between atoms: C_26  and  N_27 
REMARK    7  A    between atoms: N_27  and  C_28 
REMARK    8  A    between atoms: C_28  and  C_29 
ROOT
HETATM    1  C   UNL     1      26.950  47.373  50.204  1.00  0.00     0.001 A 
HETATM    2  C   UNL     1      26.761  46.008  49.989  1.00  0.00     0.018 A 
HETATM    3  C   UNL     1      25.521  45.555  49.529  1.00  0.00     0.039 A 
HETATM    4  C   UNL     1      24.463  46.441  49.291  1.00  0.00     0.073 A 
HETATM    5  N   UNL     1      23.214  46.014  48.803  1.00  0.00    -0.223 NA
HETATM    6  C   UNL     1      23.070  44.755  48.536  1.00  0.00     0.178 A 
HETATM    7  N   UNL     1      24.059  43.805  48.742  1.00  0.00    -0.241 N 
HETATM    8  C   UNL     1      25.283  44.141  49.224  1.00  0.00     0.147 A 
HETATM    9  N   UNL     1      26.160  43.189  49.370  1.00  0.00    -0.256 NA
HETATM   10  C   UNL     1      24.049  42.443  48.557  1.00  0.00     0.257 C 
HETATM   11  O   UNL     1      23.122  41.708  48.262  1.00  0.00    -0.270 OA
HETATM   12  C   UNL     1      25.469  41.984  48.833  1.00  0.00     0.211 C 
HETATM   13  C   UNL     1      24.668  47.804  49.512  1.00  0.00     0.032 A 
HETATM   14  C   UNL     1      25.906  48.270  49.962  1.00  0.00     0.002 A 
ENDROOT
BRANCH  12  15
HETATM   15  C   UNL     1      25.500  40.759  49.730  1.00  0.00     0.140 C 
BRANCH  15  16
HETATM   16  C   UNL     1      26.714  40.559  50.606  1.00  0.00     0.220 C 
HETATM   17  N   UNL     1      26.697  41.293  51.769  1.00  0.00    -0.357 N 
HETATM   18  H   UNL     1      25.793  41.381  52.219  1.00  0.00     0.162 HD
HETATM   19  O   UNL     1      27.670  39.882  50.243  1.00  0.00    -0.274 OA
BRANCH  17  20
HETATM   20  C   UNL     1      27.871  41.354  52.609  1.00  0.00     0.161 C 
BRANCH  20  21
HETATM   21  C   UNL     1      28.037  42.686  53.307  1.00  0.00    -0.038 A 
HETATM   22  C   UNL     1      29.086  42.839  54.231  1.00  0.00     0.048 A 
HETATM   23  C   UNL     1      29.254  44.068  54.837  1.00  0.00     0.105 A 
HETATM   24  C   UNL     1      28.432  45.133  54.558  1.00  0.00     0.105 A 
HETATM   25  O   UNL     1      30.215  44.379  55.748  1.00  0.00    -0.323 OA
HETATM   26  O   UNL     1      28.765  46.246  55.263  1.00  0.00    -0.323 OA
HETATM   27  C   UNL     1      27.406  45.033  53.646  1.00  0.00     0.040 A 
HETATM   28  C   UNL     1      29.901  45.764  56.010  1.00  0.00     0.352 A 
HETATM   29  C   UNL     1      27.219  43.802  53.007  1.00  0.00     0.012 A 
ENDBRANCH  20  21
ENDBRANCH  17  20
ENDBRANCH  15  16
ENDBRANCH  12  15
BRANCH   6  30
HETATM   30  S   UNL     1      21.547  44.269  47.846  1.00  0.00    -0.082 SA
BRANCH  30  31
HETATM   31  C   UNL     1      20.443  45.215  48.934  1.00  0.00     0.185 C 
BRANCH  31  32
HETATM   32  C   UNL     1      20.205  46.606  48.370  1.00  0.00     0.232 C 
HETATM   33  N   UNL     1      20.511  47.615  49.272  1.00  0.00    -0.324 N 
HETATM   34  H   UNL     1      21.139  47.347  50.024  1.00  0.00     0.169 HD
HETATM   35  O   UNL     1      19.781  46.752  47.228  1.00  0.00    -0.272 OA
BRANCH  33  36
HETATM   36  C   UNL     1      20.309  49.000  49.081  1.00  0.00     0.073 A 
HETATM   37  C   UNL     1      19.077  49.656  49.197  1.00  0.00     0.143 A 
HETATM   38  F   UNL     1      17.974  49.019  49.614  1.00  0.00    -0.204 F 
HETATM   39  C   UNL     1      18.969  51.029  48.971  1.00  0.00     0.044 A 
HETATM   40  C   UNL     1      20.097  51.774  48.644  1.00  0.00     0.003 A 
HETATM   41  C   UNL     1      21.338  51.146  48.562  1.00  0.00     0.002 A 
HETATM   42  C   UNL     1      21.445  49.769  48.787  1.00  0.00     0.033 A 
ENDBRANCH  33  36
ENDBRANCH  31  32
ENDBRANCH  30  31
ENDBRANCH   6  30
TORSDOF 8
ENDMDL
MODEL 8
REMARK VINA RESULT:      -9.9      2.060      3.128
REMARK  8 active torsions:
REMARK  status: ('A' for Active; 'I' for Inactive)
REMARK    1  A    between atoms: C_6  and  S_7 
REMARK    2  A    between atoms: S_7  and  C_8 
REMARK    3  A    between atoms: C_8  and  C_9 
REMARK       I    between atoms: C_9  and  N_10 
REMARK    4  A    between atoms: N_10  and  C_11 
REMARK    5  A    between atoms: C_24  and  C_25 
REMARK    6  A    between atoms: C_25  and  C_26 
REMARK       I    between atoms: C_26  and  N_27 
REMARK    7  A    between atoms: N_27  and  C_28 
REMARK    8  A    between atoms: C_28  and  C_29 
ROOT
HETATM    1  C   UNL     1      24.616  50.325  48.478  1.00  0.00     0.001 A 
HETATM    2  C   UNL     1      24.664  48.976  48.827  1.00  0.00     0.018 A 
HETATM    3  C   UNL     1      23.505  48.203  48.725  1.00  0.00     0.039 A 
HETATM    4  C   UNL     1      22.294  48.757  48.292  1.00  0.00     0.073 A 
HETATM    5  N   UNL     1      21.119  47.994  48.155  1.00  0.00    -0.223 NA
HETATM    6  C   UNL     1      21.191  46.726  48.412  1.00  0.00     0.178 A 
HETATM    7  N   UNL     1      22.344  46.092  48.848  1.00  0.00    -0.241 N 
HETATM    8  C   UNL     1      23.509  46.766  49.017  1.00  0.00     0.147 A 
HETATM    9  N   UNL     1      24.550  46.089  49.414  1.00  0.00    -0.256 NA
HETATM   10  C   UNL     1      22.570  44.783  49.203  1.00  0.00     0.257 C 
HETATM   11  O   UNL     1      21.775  43.865  49.324  1.00  0.00    -0.270 OA
HETATM   12  C   UNL     1      24.061  44.683  49.465  1.00  0.00     0.211 C 
HETATM   13  C   UNL     1      22.262  50.108  47.946  1.00  0.00     0.032 A 
HETATM   14  C   UNL     1      23.417  50.890  48.035  1.00  0.00     0.002 A 
ENDROOT
BRANCH  12  15
HETATM   15  C   UNL     1      24.357  43.936  50.754  1.00  0.00     0.140 C 
BRANCH  15  16
HETATM   16  C   UNL     1      25.623  43.115  50.817  1.00  0.00     0.220 C 
HETATM   17  N   UNL     1      26.100  42.912  52.090  1.00  0.00    -0.357 N 
HETATM   18  H   UNL     1      25.397  42.759  52.804  1.00  0.00     0.162 HD
HETATM   19  O   UNL     1      26.217  42.762  49.803  1.00  0.00    -0.274 OA
BRANCH  17  20
HETATM   20  C   UNL     1      27.400  42.314  52.293  1.00  0.00     0.161 C 
BRANCH  20  21
HETATM   21  C   UNL     1      28.235  43.039  53.325  1.00  0.00    -0.038 A 
HETATM   22  C   UNL     1      27.694  44.174  53.957  1.00  0.00     0.048 A 
HETATM   23  C   UNL     1      28.448  44.809  54.924  1.00  0.00     0.105 A 
HETATM   24  C   UNL     1      29.696  44.363  55.280  1.00  0.00     0.105 A 
HETATM   25  O   UNL     1      28.071  45.912  55.625  1.00  0.00    -0.323 OA
HETATM   26  O   UNL     1      30.268  45.130  56.245  1.00  0.00    -0.323 OA
HETATM   27  C   UNL     1      30.256  43.246  54.702  1.00  0.00     0.040 A 
HETATM   28  C   UNL     1      29.230  46.107  56.464  1.00  0.00     0.352 A 
HETATM   29  C   UNL     1      29.511  42.574  53.727  1.00  0.00     0.012 A 
ENDBRANCH  20  21
ENDBRANCH  17  20
ENDBRANCH  15  16
ENDBRANCH  12  15
BRANCH   6  30
HETATM   30  S   UNL     1      19.747  45.790  48.144  1.00  0.00    -0.082 SA
BRANCH  30  31
HETATM   31  C   UNL     1      18.768  47.046  47.272  1.00  0.00     0.185 C 
BRANCH  31  32
HETATM   32  C   UNL     1      18.119  47.998  48.264  1.00  0.00     0.232 C 
HETATM   33  N   UNL     1      17.976  49.284  47.765  1.00  0.00    -0.324 N 
HETATM   34  H   UNL     1      17.998  49.361  46.752  1.00  0.00     0.169 HD
HETATM   35  O   UNL     1      17.783  47.605  49.376  1.00  0.00    -0.272 OA
BRANCH  33  36
HETATM   36  C   UNL     1      17.498  50.410  48.472  1.00  0.00     0.073 A 
HETATM   37  C   UNL     1      18.291  51.270  49.242  1.00  0.00     0.143 A 
HETATM   38  F   UNL     1      19.625  51.151  49.288  1.00  0.00    -0.204 F 
HETATM   39  C   UNL     1      17.728  52.350  49.925  1.00  0.00     0.044 A 
HETATM   40  C   UNL     1      16.362  52.600  49.831  1.00  0.00     0.003 A 
HETATM   41  C   UNL     1      15.564  51.778  49.039  1.00  0.00     0.002 A 
HETATM   42  C   UNL     1      16.130  50.694  48.357  1.00  0.00     0.033 A 
ENDBRANCH  33  36
ENDBRANCH  31  32
ENDBRANCH  30  31
ENDBRANCH   6  30
TORSDOF 8
ENDMDL
MODEL 9
REMARK VINA RESULT:      -9.9      2.483      3.598
REMARK  8 active torsions:
REMARK  status: ('A' for Active; 'I' for Inactive)
REMARK    1  A    between atoms: C_6  and  S_7 
REMARK    2  A    between atoms: S_7  and  C_8 
REMARK    3  A    between atoms: C_8  and  C_9 
REMARK       I    between atoms: C_9  and  N_10 
REMARK    4  A    between atoms: N_10  and  C_11 
REMARK    5  A    between atoms: C_24  and  C_25 
REMARK    6  A    between atoms: C_25  and  C_26 
REMARK       I    between atoms: C_26  and  N_27 
REMARK    7  A    between atoms: N_27  and  C_28 
REMARK    8  A    between atoms: C_28  and  C_29 
ROOT
HETATM    1  C   UNL     1      22.114  51.332  48.709  1.00  0.00     0.001 A 
HETATM    2  C   UNL     1      22.963  50.311  49.134  1.00  0.00     0.018 A 
HETATM    3  C   UNL     1      22.572  48.981  48.958  1.00  0.00     0.039 A 
HETATM    4  C   UNL     1      21.341  48.652  48.376  1.00  0.00     0.073 A 
HETATM    5  N   UNL     1      20.936  47.322  48.164  1.00  0.00    -0.223 NA
HETATM    6  C   UNL     1      21.762  46.380  48.495  1.00  0.00     0.178 A 
HETATM    7  N   UNL     1      22.999  46.609  49.078  1.00  0.00    -0.241 N 
HETATM    8  C   UNL     1      23.450  47.865  49.327  1.00  0.00     0.147 A 
HETATM    9  N   UNL     1      24.631  47.991  49.861  1.00  0.00    -0.256 NA
HETATM   10  C   UNL     1      23.958  45.732  49.525  1.00  0.00     0.257 C 
HETATM   11  O   UNL     1      23.914  44.516  49.614  1.00  0.00    -0.270 OA
HETATM   12  C   UNL     1      25.137  46.593  49.940  1.00  0.00     0.211 C 
HETATM   13  C   UNL     1      20.503  49.686  47.957  1.00  0.00     0.032 A 
HETATM   14  C   UNL     1      20.887  51.020  48.118  1.00  0.00     0.002 A 
ENDROOT
BRANCH  12  15
HETATM   15  C   UNL     1      25.691  46.174  51.290  1.00  0.00     0.140 C 
BRANCH  15  16
HETATM   16  C   UNL     1      26.656  45.012  51.325  1.00  0.00     0.220 C 
HETATM   17  N   UNL     1      26.626  44.291  52.495  1.00  0.00    -0.357 N 
HETATM   18  H   UNL     1      25.709  44.162  52.908  1.00  0.00     0.162 HD
HETATM   19  O   UNL     1      27.464  44.814  50.423  1.00  0.00    -0.274 OA
BRANCH  17  20
HETATM   20  C   UNL     1      27.622  43.276  52.750  1.00  0.00     0.161 C 
BRANCH  20  21
HETATM   21  C   UNL     1      28.604  43.663  53.833  1.00  0.00    -0.038 A 
HETATM   22  C   UNL     1      28.287  44.740  54.680  1.00  0.00     0.048 A 
HETATM   23  C   UNL     1      29.171  45.065  55.690  1.00  0.00     0.105 A 
HETATM   24  C   UNL     1      30.337  44.367  55.886  1.00  0.00     0.105 A 
HETATM   25  O   UNL     1      29.012  46.073  56.590  1.00  0.00    -0.323 OA
HETATM   26  O   UNL     1      31.064  44.849  56.927  1.00  0.00    -0.323 OA
HETATM   27  C   UNL     1      30.678  43.294  55.094  1.00  0.00     0.040 A 
HETATM   28  C   UNL     1      30.215  45.927  57.374  1.00  0.00     0.352 A 
HETATM   29  C   UNL     1      29.795  42.934  54.069  1.00  0.00     0.012 A 
ENDBRANCH  20  21
ENDBRANCH  17  20
ENDBRANCH  15  16
ENDBRANCH  12  15
BRANCH   6  30
HETATM   30  S   UNL     1      21.274  44.748  48.136  1.00  0.00    -0.082 SA
BRANCH  30  31
HETATM   31  C   UNL     1      20.350  45.073  46.607  1.00  0.00     0.185 C 
BRANCH  31  32
HETATM   32  C   UNL     1      18.915  45.461  46.925  1.00  0.00     0.232 C 
HETATM   33  N   UNL     1      18.582  46.726  46.462  1.00  0.00    -0.324 N 
HETATM   34  H   UNL     1      19.174  47.085  45.718  1.00  0.00     0.169 HD
HETATM   35  O   UNL     1      18.181  44.691  47.535  1.00  0.00    -0.272 OA
BRANCH  33  36
HETATM   36  C   UNL     1      17.363  47.405  46.681  1.00  0.00     0.073 A 
HETATM   37  C   UNL     1      16.974  47.987  47.895  1.00  0.00     0.143 A 
HETATM   38  F   UNL     1      17.799  48.038  48.950  1.00  0.00    -0.204 F 
HETATM   39  C   UNL     1      15.739  48.623  48.025  1.00  0.00     0.044 A 
HETATM   40  C   UNL     1      14.878  48.705  46.936  1.00  0.00     0.003 A 
HETATM   41  C   UNL     1      15.263  48.166  45.710  1.00  0.00     0.002 A 
HETATM   42  C   UNL     1      16.501  47.527  45.582  1.00  0.00     0.033 A 
ENDBRANCH  33  36
ENDBRANCH  31  32
ENDBRANCH  30  31
ENDBRANCH   6  30
TORSDOF 8
ENDMDL
MODEL 10
REMARK VINA RESULT:      -9.8      3.753     10.172
REMARK  8 active torsions:
REMARK  status: ('A' for Active; 'I' for Inactive)
REMARK    1  A    between atoms: C_6  and  S_7 
REMARK    2  A    between atoms: S_7  and  C_8 
REMARK    3  A    between atoms: C_8  and  C_9 
REMARK       I    between atoms: C_9  and  N_10 
REMARK    4  A    between atoms: N_10  and  C_11 
REMARK    5  A    between atoms: C_24  and  C_25 
REMARK    6  A    between atoms: C_25  and  C_26 
REMARK       I    between atoms: C_26  and  N_27 
REMARK    7  A    between atoms: N_27  and  C_28 
REMARK    8  A    between atoms: C_28  and  C_29 
ROOT
HETATM    1  C   UNL     1      27.613  45.265  54.819  1.00  0.00     0.001 A 
HETATM    2  C   UNL     1      27.200  46.071  53.758  1.00  0.00     0.018 A 
HETATM    3  C   UNL     1      26.306  45.554  52.817  1.00  0.00     0.039 A 
HETATM    4  C   UNL     1      25.825  44.242  52.910  1.00  0.00     0.073 A 
HETATM    5  N   UNL     1      24.903  43.706  51.992  1.00  0.00    -0.223 NA
HETATM    6  C   UNL     1      24.469  44.484  51.051  1.00  0.00     0.178 A 
HETATM    7  N   UNL     1      24.889  45.794  50.879  1.00  0.00    -0.241 N 
HETATM    8  C   UNL     1      25.787  46.373  51.716  1.00  0.00     0.147 A 
HETATM    9  N   UNL     1      26.114  47.614  51.492  1.00  0.00    -0.256 NA
HETATM   10  C   UNL     1      24.565  46.723  49.918  1.00  0.00     0.257 C 
HETATM   11  O   UNL     1      23.898  46.589  48.906  1.00  0.00    -0.270 OA
HETATM   12  C   UNL     1      25.249  48.008  50.346  1.00  0.00     0.211 C 
HETATM   13  C   UNL     1      26.248  43.449  53.978  1.00  0.00     0.032 A 
HETATM   14  C   UNL     1      27.135  43.958  54.930  1.00  0.00     0.002 A 
ENDROOT
BRANCH  12  15
HETATM   15  C   UNL     1      25.966  48.677  49.187  1.00  0.00     0.140 C 
BRANCH  15  16
HETATM   16  C   UNL     1      25.217  49.734  48.411  1.00  0.00     0.220 C 
HETATM   17  N   UNL     1      23.978  50.036  48.923  1.00  0.00    -0.357 N 
HETATM   18  H   UNL     1      23.911  50.050  49.934  1.00  0.00     0.162 HD
HETATM   19  O   UNL     1      25.649  50.192  47.358  1.00  0.00    -0.274 OA
BRANCH  17  20
HETATM   20  C   UNL     1      23.070  50.882  48.182  1.00  0.00     0.161 C 
BRANCH  20  21
HETATM   21  C   UNL     1      21.614  50.585  48.463  1.00  0.00    -0.038 A 
HETATM   22  C   UNL     1      21.247  49.274  48.816  1.00  0.00     0.048 A 
HETATM   23  C   UNL     1      19.921  49.018  49.107  1.00  0.00     0.105 A 
HETATM   24  C   UNL     1      18.966  50.003  49.063  1.00  0.00     0.105 A 
HETATM   25  O   UNL     1      19.406  47.811  49.464  1.00  0.00    -0.323 OA
HETATM   26  O   UNL     1      17.727  49.542  49.379  1.00  0.00    -0.323 OA
HETATM   27  C   UNL     1      19.284  51.304  48.742  1.00  0.00     0.040 A 
HETATM   28  C   UNL     1      18.014  48.152  49.638  1.00  0.00     0.352 A 
HETATM   29  C   UNL     1      20.622  51.596  48.453  1.00  0.00     0.012 A 
ENDBRANCH  20  21
ENDBRANCH  17  20
ENDBRANCH  15  16
ENDBRANCH  12  15
BRANCH   6  30
HETATM   30  S   UNL     1      23.260  43.826  49.985  1.00  0.00    -0.082 SA
BRANCH  30  31
HETATM   31  C   UNL     1      24.340  43.375  48.597  1.00  0.00     0.185 C 
BRANCH  31  32
HETATM   32  C   UNL     1      25.092  42.090  48.903  1.00  0.00     0.232 C 
HETATM   33  N   UNL     1      26.264  41.962  48.172  1.00  0.00    -0.324 N 
HETATM   34  H   UNL     1      26.640  42.830  47.800  1.00  0.00     0.169 HD
HETATM   35  O   UNL     1      24.651  41.290  49.721  1.00  0.00    -0.272 OA
BRANCH  33  36
HETATM   36  C   UNL     1      27.128  40.845  48.163  1.00  0.00     0.073 A 
HETATM   37  C   UNL     1      27.961  40.464  49.224  1.00  0.00     0.143 A 
HETATM   38  F   UNL     1      27.926  41.090  50.408  1.00  0.00    -0.204 F 
HETATM   39  C   UNL     1      28.799  39.353  49.118  1.00  0.00     0.044 A 
HETATM   40  C   UNL     1      28.803  38.590  47.955  1.00  0.00     0.003 A 
HETATM   41  C   UNL     1      27.954  38.930  46.904  1.00  0.00     0.002 A 
HETATM   42  C   UNL     1      27.116  40.046  47.011  1.00  0.00     0.033 A 
ENDBRANCH  33  36
ENDBRANCH  31  32
ENDBRANCH  30  31
ENDBRANCH   6  30
TORSDOF 8
ENDMDL
