MODEL 1
REMARK VINA RESULT:     -10.3      0.000      0.000
REMARK  5 active torsions:
REMARK  status: ('A' for Active; 'I' for Inactive)
REMARK    1  A    between atoms: C_4  and  C_5 
REMARK    2  A    between atoms: C_5  and  C_6 
REMARK    3  A    between atoms: C_12  and  S_13 
REMARK    4  A    between atoms: S_13  and  C_14 
REMARK    5  A    between atoms: C_14  and  C_15 
ROOT
HETATM    1  C   UNL     1      29.223  41.848  52.507  1.00  0.00     0.283 C 
HETATM    2  O   UNL     1      28.895  42.559  51.326  1.00  0.00    -0.303 OA
HETATM    3  C   UNL     1      27.549  42.482  51.083  1.00  0.00     0.201 A 
HETATM    4  C   UNL     1      27.000  41.322  50.566  1.00  0.00     0.144 A 
HETATM    5  N   UNL     1      25.688  41.324  50.260  1.00  0.00    -0.142 NA
HETATM    6  N   UNL     1      24.959  42.460  50.481  1.00  0.00    -0.122 NA
HETATM    7  C   UNL     1      25.560  43.558  50.995  1.00  0.00     0.212 A 
HETATM    8  N   UNL     1      26.866  43.621  51.301  1.00  0.00    -0.195 NA
HETATM    9  C   UNL     1      27.773  40.103  50.336  1.00  0.00     0.020 A 
HETATM   10  C   UNL     1      28.823  39.724  51.203  1.00  0.00     0.023 A 
HETATM   11  N   UNL     1      29.130  40.373  52.405  1.00  0.00    -0.259 NA
HETATM   12  C   UNL     1      27.473  39.278  49.232  1.00  0.00     0.016 A 
HETATM   13  C   UNL     1      28.175  38.096  48.994  1.00  0.00     0.001 A 
HETATM   14  C   UNL     1      29.178  37.705  49.871  1.00  0.00     0.002 A 
HETATM   15  C   UNL     1      29.481  38.504  50.972  1.00  0.00     0.024 A 
HETATM   16  H   UNL     1      28.494  40.039  53.139  1.00  0.00     0.130 HD
ENDROOT
BRANCH   7  17
HETATM   17  S   UNL     1      24.600  45.022  51.272  1.00  0.00    -0.084 SA
BRANCH  17  18
HETATM   18  C   UNL     1      25.880  46.278  50.970  1.00  0.00     0.121 C 
BRANCH  18  19
HETATM   19  C   UNL     1      25.341  47.424  50.147  1.00  0.00    -0.048 A 
HETATM   20  C   UNL     1      23.959  47.563  49.943  1.00  0.00     0.009 A 
HETATM   21  C   UNL     1      23.460  48.616  49.173  1.00  0.00     0.024 A 
HETATM   22  C   UNL     1      24.338  49.532  48.599  1.00  0.00     0.034 A 
HETATM   23 CL   UNL     1      23.722  50.828  47.649  1.00  0.00    -0.084 Cl
HETATM   24  C   UNL     1      25.713  49.404  48.786  1.00  0.00     0.024 A 
HETATM   25  C   UNL     1      26.213  48.351  49.556  1.00  0.00     0.009 A 
ENDBRANCH  18  19
ENDBRANCH  17  18
ENDBRANCH   7  17
BRANCH   1  26
HETATM   26  C   UNL     1      28.514  42.326  53.805  1.00  0.00     0.203 C 
HETATM   27  O   UNL     1      27.465  41.798  54.188  1.00  0.00    -0.288 OA
BRANCH  26  28
HETATM   28  C   UNL     1      29.136  43.416  54.620  1.00  0.00     0.014 A 
HETATM   29  C   UNL     1      28.535  44.669  54.797  1.00  0.00     0.015 A 
HETATM   30  C   UNL     1      29.176  45.657  55.550  1.00  0.00     0.001 A 
HETATM   31  C   UNL     1      30.418  45.403  56.130  1.00  0.00     0.000 A 
HETATM   32  C   UNL     1      31.021  44.159  55.963  1.00  0.00     0.001 A 
HETATM   33  C   UNL     1      30.383  43.169  55.212  1.00  0.00     0.015 A 
ENDBRANCH  26  28
ENDBRANCH   1  26
TORSDOF 5
ENDMDL
MODEL 2
REMARK VINA RESULT:     -10.0      2.987      6.530
REMARK  5 active torsions:
REMARK  status: ('A' for Active; 'I' for Inactive)
REMARK    1  A    between atoms: C_4  and  C_5 
REMARK    2  A    between atoms: C_5  and  C_6 
REMARK    3  A    between atoms: C_12  and  S_13 
REMARK    4  A    between atoms: S_13  and  C_14 
REMARK    5  A    between atoms: C_14  and  C_15 
ROOT
HETATM    1  C   UNL     1      26.014  43.329  51.584  1.00  0.00     0.283 C 
HETATM    2  O   UNL     1      24.878  44.070  51.994  1.00  0.00    -0.303 OA
HETATM    3  C   UNL     1      24.966  45.361  51.545  1.00  0.00     0.201 A 
HETATM    4  C   UNL     1      25.808  46.261  52.172  1.00  0.00     0.144 A 
HETATM    5  N   UNL     1      25.795  47.541  51.752  1.00  0.00    -0.142 NA
HETATM    6  N   UNL     1      24.962  47.890  50.725  1.00  0.00    -0.122 NA
HETATM    7  C   UNL     1      24.167  46.957  50.152  1.00  0.00     0.212 A 
HETATM    8  N   UNL     1      24.124  45.673  50.541  1.00  0.00    -0.195 NA
HETATM    9  C   UNL     1      26.706  45.889  53.264  1.00  0.00     0.020 A 
HETATM   10  C   UNL     1      27.336  44.625  53.300  1.00  0.00     0.023 A 
HETATM   11  N   UNL     1      27.281  43.683  52.265  1.00  0.00    -0.259 NA
HETATM   12  C   UNL     1      26.961  46.804  54.307  1.00  0.00     0.016 A 
HETATM   13  C   UNL     1      27.829  46.493  55.354  1.00  0.00     0.001 A 
HETATM   14  C   UNL     1      28.478  45.266  55.364  1.00  0.00     0.002 A 
HETATM   15  C   UNL     1      28.245  44.353  54.337  1.00  0.00     0.024 A 
HETATM   16  H   UNL     1      27.973  43.931  51.548  1.00  0.00     0.130 HD
ENDROOT
BRANCH   7  17
HETATM   17  S   UNL     1      23.092  47.430  48.825  1.00  0.00    -0.084 SA
BRANCH  17  18
HETATM   18  C   UNL     1      23.458  49.210  48.767  1.00  0.00     0.121 C 
BRANCH  18  19
HETATM   19  C   UNL     1      22.191  50.032  48.820  1.00  0.00    -0.048 A 
HETATM   20  C   UNL     1      21.747  50.576  50.035  1.00  0.00     0.009 A 
HETATM   21  C   UNL     1      20.570  51.327  50.086  1.00  0.00     0.024 A 
HETATM   22  C   UNL     1      19.828  51.532  48.926  1.00  0.00     0.034 A 
HETATM   23 CL   UNL     1      18.377  52.456  48.991  1.00  0.00    -0.084 Cl
HETATM   24  C   UNL     1      20.251  50.992  47.713  1.00  0.00     0.024 A 
HETATM   25  C   UNL     1      21.428  50.242  47.661  1.00  0.00     0.009 A 
ENDBRANCH  18  19
ENDBRANCH  17  18
ENDBRANCH   7  17
BRANCH   1  26
HETATM   26  C   UNL     1      26.252  43.245  50.051  1.00  0.00     0.203 C 
HETATM   27  O   UNL     1      27.158  43.890  49.512  1.00  0.00    -0.288 OA
BRANCH  26  28
HETATM   28  C   UNL     1      25.394  42.340  49.224  1.00  0.00     0.014 A 
HETATM   29  C   UNL     1      23.995  42.397  49.240  1.00  0.00     0.015 A 
HETATM   30  C   UNL     1      23.246  41.507  48.464  1.00  0.00     0.001 A 
HETATM   31  C   UNL     1      23.885  40.558  47.670  1.00  0.00     0.000 A 
HETATM   32  C   UNL     1      25.276  40.496  47.644  1.00  0.00     0.001 A 
HETATM   33  C   UNL     1      26.028  41.384  48.417  1.00  0.00     0.015 A 
ENDBRANCH  26  28
ENDBRANCH   1  26
TORSDOF 5
ENDMDL
MODEL 3
REMARK VINA RESULT:      -9.9      3.478      6.276
REMARK  5 active torsions:
REMARK  status: ('A' for Active; 'I' for Inactive)
REMARK    1  A    between atoms: C_4  and  C_5 
REMARK    2  A    between atoms: C_5  and  C_6 
REMARK    3  A    between atoms: C_12  and  S_13 
REMARK    4  A    between atoms: S_13  and  C_14 
REMARK    5  A    between atoms: C_14  and  C_15 
ROOT
HETATM    1  C   UNL     1      24.834  43.642  49.919  1.00  0.00     0.283 C 
HETATM    2  O   UNL     1      24.757  42.468  50.708  1.00  0.00    -0.303 OA
HETATM    3  C   UNL     1      25.924  41.757  50.618  1.00  0.00     0.201 A 
HETATM    4  C   UNL     1      26.197  41.007  49.488  1.00  0.00     0.144 A 
HETATM    5  N   UNL     1      27.314  40.255  49.481  1.00  0.00    -0.142 NA
HETATM    6  N   UNL     1      28.129  40.272  50.579  1.00  0.00    -0.122 NA
HETATM    7  C   UNL     1      27.804  41.033  51.649  1.00  0.00     0.212 A 
HETATM    8  N   UNL     1      26.696  41.787  51.721  1.00  0.00    -0.195 NA
HETATM    9  C   UNL     1      25.333  40.993  48.309  1.00  0.00     0.020 A 
HETATM   10  C   UNL     1      24.641  42.152  47.890  1.00  0.00     0.023 A 
HETATM   11  N   UNL     1      24.811  43.423  48.454  1.00  0.00    -0.259 NA
HETATM   12  C   UNL     1      25.182  39.806  47.562  1.00  0.00     0.016 A 
HETATM   13  C   UNL     1      24.384  39.760  46.419  1.00  0.00     0.001 A 
HETATM   14  C   UNL     1      23.738  40.911  45.987  1.00  0.00     0.002 A 
HETATM   15  C   UNL     1      23.884  42.096  46.707  1.00  0.00     0.024 A 
HETATM   16  H   UNL     1      25.649  43.860  48.050  1.00  0.00     0.130 HD
ENDROOT
BRANCH   7  17
HETATM   17  S   UNL     1      28.871  41.040  53.064  1.00  0.00    -0.084 SA
BRANCH  17  18
HETATM   18  C   UNL     1      29.760  42.597  52.757  1.00  0.00     0.121 C 
BRANCH  18  19
HETATM   19  C   UNL     1      29.799  43.459  53.996  1.00  0.00    -0.048 A 
HETATM   20  C   UNL     1      30.796  43.267  54.965  1.00  0.00     0.009 A 
HETATM   21  C   UNL     1      30.826  44.058  56.117  1.00  0.00     0.024 A 
HETATM   22  C   UNL     1      29.857  45.039  56.309  1.00  0.00     0.034 A 
HETATM   23 CL   UNL     1      29.894  46.011  57.729  1.00  0.00    -0.084 Cl
HETATM   24  C   UNL     1      28.856  45.237  55.361  1.00  0.00     0.024 A 
HETATM   25  C   UNL     1      28.825  44.448  54.209  1.00  0.00     0.009 A 
ENDBRANCH  18  19
ENDBRANCH  17  18
ENDBRANCH   7  17
BRANCH   1  26
HETATM   26  C   UNL     1      25.979  44.629  50.280  1.00  0.00     0.203 C 
HETATM   27  O   UNL     1      26.925  44.815  49.508  1.00  0.00    -0.288 OA
BRANCH  26  28
HETATM   28  C   UNL     1      25.910  45.391  51.566  1.00  0.00     0.014 A 
HETATM   29  C   UNL     1      26.345  46.717  51.687  1.00  0.00     0.015 A 
HETATM   30  C   UNL     1      26.278  47.369  52.922  1.00  0.00     0.001 A 
HETATM   31  C   UNL     1      25.779  46.706  54.041  1.00  0.00     0.000 A 
HETATM   32  C   UNL     1      25.339  45.389  53.929  1.00  0.00     0.001 A 
HETATM   33  C   UNL     1      25.404  44.734  52.697  1.00  0.00     0.015 A 
ENDBRANCH  26  28
ENDBRANCH   1  26
TORSDOF 5
ENDMDL
MODEL 4
REMARK VINA RESULT:      -9.8      2.713      3.709
REMARK  5 active torsions:
REMARK  status: ('A' for Active; 'I' for Inactive)
REMARK    1  A    between atoms: C_4  and  C_5 
REMARK    2  A    between atoms: C_5  and  C_6 
REMARK    3  A    between atoms: C_12  and  S_13 
REMARK    4  A    between atoms: S_13  and  C_14 
REMARK    5  A    between atoms: C_14  and  C_15 
ROOT
HETATM    1  C   UNL     1      26.886  43.687  52.076  1.00  0.00     0.283 C 
HETATM    2  O   UNL     1      27.135  44.392  50.872  1.00  0.00    -0.303 OA
HETATM    3  C   UNL     1      25.956  44.670  50.232  1.00  0.00     0.201 A 
HETATM    4  C   UNL     1      25.288  43.677  49.540  1.00  0.00     0.144 A 
HETATM    5  N   UNL     1      24.181  44.018  48.853  1.00  0.00    -0.142 NA
HETATM    6  N   UNL     1      23.763  45.321  48.876  1.00  0.00    -0.122 NA
HETATM    7  C   UNL     1      24.463  46.241  49.579  1.00  0.00     0.212 A 
HETATM    8  N   UNL     1      25.582  45.964  50.266  1.00  0.00    -0.195 NA
HETATM    9  C   UNL     1      25.726  42.282  49.519  1.00  0.00     0.020 A 
HETATM   10  C   UNL     1      26.321  41.681  50.651  1.00  0.00     0.023 A 
HETATM   11  N   UNL     1      26.424  42.290  51.908  1.00  0.00    -0.259 NA
HETATM   12  C   UNL     1      25.552  41.508  48.353  1.00  0.00     0.016 A 
HETATM   13  C   UNL     1      25.937  40.168  48.303  1.00  0.00     0.001 A 
HETATM   14  C   UNL     1      26.484  39.570  49.430  1.00  0.00     0.002 A 
HETATM   15  C   UNL     1      26.654  40.317  50.595  1.00  0.00     0.024 A 
HETATM   16  H   UNL     1      25.531  42.184  52.406  1.00  0.00     0.130 HD
ENDROOT
BRANCH   7  17
HETATM   17  S   UNL     1      23.908  47.924  49.596  1.00  0.00    -0.084 SA
BRANCH  17  18
HETATM   18  C   UNL     1      22.418  47.755  48.567  1.00  0.00     0.121 C 
BRANCH  18  19
HETATM   19  C   UNL     1      21.482  48.924  48.762  1.00  0.00    -0.048 A 
HETATM   20  C   UNL     1      20.226  48.736  49.360  1.00  0.00     0.009 A 
HETATM   21  C   UNL     1      19.355  49.815  49.532  1.00  0.00     0.024 A 
HETATM   22  C   UNL     1      19.731  51.085  49.100  1.00  0.00     0.034 A 
HETATM   23 CL   UNL     1      18.656  52.412  49.311  1.00  0.00    -0.084 Cl
HETATM   24  C   UNL     1      20.971  51.287  48.498  1.00  0.00     0.024 A 
HETATM   25  C   UNL     1      21.843  50.209  48.327  1.00  0.00     0.009 A 
ENDBRANCH  18  19
ENDBRANCH  17  18
ENDBRANCH   7  17
BRANCH   1  26
HETATM   26  C   UNL     1      25.984  44.414  53.113  1.00  0.00     0.203 C 
HETATM   27  O   UNL     1      24.841  44.010  53.354  1.00  0.00    -0.288 OA
BRANCH  26  28
HETATM   28  C   UNL     1      26.526  45.595  53.854  1.00  0.00     0.014 A 
HETATM   29  C   UNL     1      25.838  46.812  53.951  1.00  0.00     0.015 A 
HETATM   30  C   UNL     1      26.407  47.888  54.637  1.00  0.00     0.001 A 
HETATM   31  C   UNL     1      27.661  47.760  55.231  1.00  0.00     0.000 A 
HETATM   32  C   UNL     1      28.350  46.552  55.145  1.00  0.00     0.001 A 
HETATM   33  C   UNL     1      27.785  45.474  54.460  1.00  0.00     0.015 A 
ENDBRANCH  26  28
ENDBRANCH   1  26
TORSDOF 5
ENDMDL
MODEL 5
REMARK VINA RESULT:      -9.7      5.560     10.078
REMARK  5 active torsions:
REMARK  status: ('A' for Active; 'I' for Inactive)
REMARK    1  A    between atoms: C_4  and  C_5 
REMARK    2  A    between atoms: C_5  and  C_6 
REMARK    3  A    between atoms: C_12  and  S_13 
REMARK    4  A    between atoms: S_13  and  C_14 
REMARK    5  A    between atoms: C_14  and  C_15 
ROOT
HETATM    1  C   UNL     1      22.540  50.156  49.152  1.00  0.00     0.283 C 
HETATM    2  O   UNL     1      21.898  49.001  49.665  1.00  0.00    -0.303 OA
HETATM    3  C   UNL     1      21.426  48.225  48.640  1.00  0.00     0.201 A 
HETATM    4  C   UNL     1      20.278  48.590  47.961  1.00  0.00     0.144 A 
HETATM    5  N   UNL     1      19.803  47.750  47.021  1.00  0.00    -0.142 NA
HETATM    6  N   UNL     1      20.477  46.586  46.774  1.00  0.00    -0.122 NA
HETATM    7  C   UNL     1      21.598  46.293  47.473  1.00  0.00     0.212 A 
HETATM    8  N   UNL     1      22.107  47.081  48.433  1.00  0.00    -0.195 NA
HETATM    9  C   UNL     1      19.560  49.838  48.216  1.00  0.00     0.020 A 
HETATM   10  C   UNL     1      20.247  51.025  48.555  1.00  0.00     0.023 A 
HETATM   11  N   UNL     1      21.640  51.164  48.546  1.00  0.00    -0.259 NA
HETATM   12  C   UNL     1      18.153  49.871  48.121  1.00  0.00     0.016 A 
HETATM   13  C   UNL     1      17.436  51.048  48.335  1.00  0.00     0.001 A 
HETATM   14  C   UNL     1      18.117  52.222  48.627  1.00  0.00     0.002 A 
HETATM   15  C   UNL     1      19.508  52.210  48.716  1.00  0.00     0.024 A 
HETATM   16  H   UNL     1      21.954  51.339  47.583  1.00  0.00     0.130 HD
ENDROOT
BRANCH   7  17
HETATM   17  S   UNL     1      22.456  44.779  47.141  1.00  0.00    -0.084 SA
BRANCH  17  18
HETATM   18  C   UNL     1      22.371  44.021  48.792  1.00  0.00     0.121 C 
BRANCH  18  19
HETATM   19  C   UNL     1      23.717  44.047  49.477  1.00  0.00    -0.048 A 
HETATM   20  C   UNL     1      24.872  43.643  48.788  1.00  0.00     0.009 A 
HETATM   21  C   UNL     1      26.116  43.656  49.424  1.00  0.00     0.024 A 
HETATM   22  C   UNL     1      26.211  44.065  50.752  1.00  0.00     0.034 A 
HETATM   23 CL   UNL     1      27.744  44.079  51.535  1.00  0.00    -0.084 Cl
HETATM   24  C   UNL     1      25.074  44.461  51.452  1.00  0.00     0.024 A 
HETATM   25  C   UNL     1      23.830  44.450  50.816  1.00  0.00     0.009 A 
ENDBRANCH  18  19
ENDBRANCH  17  18
ENDBRANCH   7  17
BRANCH   1  26
HETATM   26  C   UNL     1      23.746  49.897  48.206  1.00  0.00     0.203 C 
HETATM   27  O   UNL     1      23.690  50.197  47.008  1.00  0.00    -0.288 OA
BRANCH  26  28
HETATM   28  C   UNL     1      25.004  49.313  48.766  1.00  0.00     0.014 A 
HETATM   29  C   UNL     1      25.010  48.214  49.635  1.00  0.00     0.015 A 
HETATM   30  C   UNL     1      26.217  47.728  50.146  1.00  0.00     0.001 A 
HETATM   31  C   UNL     1      27.423  48.331  49.794  1.00  0.00     0.000 A 
HETATM   32  C   UNL     1      27.427  49.420  48.926  1.00  0.00     0.001 A 
HETATM   33  C   UNL     1      26.224  49.909  48.413  1.00  0.00     0.015 A 
ENDBRANCH  26  28
ENDBRANCH   1  26
TORSDOF 5
ENDMDL
MODEL 6
REMARK VINA RESULT:      -9.7      3.147      7.445
REMARK  5 active torsions:
REMARK  status: ('A' for Active; 'I' for Inactive)
REMARK    1  A    between atoms: C_4  and  C_5 
REMARK    2  A    between atoms: C_5  and  C_6 
REMARK    3  A    between atoms: C_12  and  S_13 
REMARK    4  A    between atoms: S_13  and  C_14 
REMARK    5  A    between atoms: C_14  and  C_15 
ROOT
HETATM    1  C   UNL     1      26.889  45.247  52.906  1.00  0.00     0.283 C 
HETATM    2  O   UNL     1      27.843  44.681  52.023  1.00  0.00    -0.303 OA
HETATM    3  C   UNL     1      27.925  43.328  52.217  1.00  0.00     0.201 A 
HETATM    4  C   UNL     1      28.602  42.821  53.312  1.00  0.00     0.144 A 
HETATM    5  N   UNL     1      28.733  41.484  53.413  1.00  0.00    -0.142 NA
HETATM    6  N   UNL     1      28.187  40.691  52.441  1.00  0.00    -0.122 NA
HETATM    7  C   UNL     1      27.533  41.254  51.399  1.00  0.00     0.212 A 
HETATM    8  N   UNL     1      27.387  42.579  51.236  1.00  0.00    -0.195 NA
HETATM    9  C   UNL     1      29.179  43.664  54.357  1.00  0.00     0.020 A 
HETATM   10  C   UNL     1      28.551  44.862  54.766  1.00  0.00     0.023 A 
HETATM   11  N   UNL     1      27.287  45.281  54.332  1.00  0.00    -0.259 NA
HETATM   12  C   UNL     1      30.386  43.284  54.981  1.00  0.00     0.016 A 
HETATM   13  C   UNL     1      30.955  44.052  55.997  1.00  0.00     0.001 A 
HETATM   14  C   UNL     1      30.313  45.206  56.425  1.00  0.00     0.002 A 
HETATM   15  C   UNL     1      29.115  45.592  55.826  1.00  0.00     0.024 A 
HETATM   16  H   UNL     1      26.566  44.796  54.880  1.00  0.00     0.130 HD
ENDROOT
BRANCH   7  17
HETATM   17  S   UNL     1      26.834  40.211  50.148  1.00  0.00    -0.084 SA
BRANCH  17  18
HETATM   18  C   UNL     1      28.366  39.610  49.373  1.00  0.00     0.121 C 
BRANCH  18  19
HETATM   19  C   UNL     1      28.269  39.646  47.867  1.00  0.00    -0.048 A 
HETATM   20  C   UNL     1      28.212  40.873  47.187  1.00  0.00     0.009 A 
HETATM   21  C   UNL     1      28.112  40.907  45.794  1.00  0.00     0.024 A 
HETATM   22  C   UNL     1      28.060  39.716  45.074  1.00  0.00     0.034 A 
HETATM   23 CL   UNL     1      27.934  39.759  43.358  1.00  0.00    -0.084 Cl
HETATM   24  C   UNL     1      28.107  38.490  45.734  1.00  0.00     0.024 A 
HETATM   25  C   UNL     1      28.209  38.455  47.127  1.00  0.00     0.009 A 
ENDBRANCH  18  19
ENDBRANCH  17  18
ENDBRANCH   7  17
BRANCH   1  26
HETATM   26  C   UNL     1      25.440  44.696  52.782  1.00  0.00     0.203 C 
HETATM   27  O   UNL     1      24.895  44.124  53.732  1.00  0.00    -0.288 OA
BRANCH  26  28
HETATM   28  C   UNL     1      24.686  44.898  51.506  1.00  0.00     0.014 A 
HETATM   29  C   UNL     1      23.964  43.874  50.880  1.00  0.00     0.015 A 
HETATM   30  C   UNL     1      23.299  44.117  49.675  1.00  0.00     0.001 A 
HETATM   31  C   UNL     1      23.349  45.380  49.087  1.00  0.00     0.000 A 
HETATM   32  C   UNL     1      24.060  46.406  49.705  1.00  0.00     0.001 A 
HETATM   33  C   UNL     1      24.725  46.167  50.909  1.00  0.00     0.015 A 
ENDBRANCH  26  28
ENDBRANCH   1  26
TORSDOF 5
ENDMDL
MODEL 7
REMARK VINA RESULT:      -9.7      3.549      7.910
REMARK  5 active torsions:
REMARK  status: ('A' for Active; 'I' for Inactive)
REMARK    1  A    between atoms: C_4  and  C_5 
REMARK    2  A    between atoms: C_5  and  C_6 
REMARK    3  A    between atoms: C_12  and  S_13 
REMARK    4  A    between atoms: S_13  and  C_14 
REMARK    5  A    between atoms: C_14  and  C_15 
ROOT
HETATM    1  C   UNL     1      24.853  44.013  49.211  1.00  0.00     0.283 C 
HETATM    2  O   UNL     1      25.782  45.083  49.233  1.00  0.00    -0.303 OA
HETATM    3  C   UNL     1      25.542  45.898  50.307  1.00  0.00     0.201 A 
HETATM    4  C   UNL     1      24.483  46.788  50.282  1.00  0.00     0.144 A 
HETATM    5  N   UNL     1      24.339  47.632  51.322  1.00  0.00    -0.142 NA
HETATM    6  N   UNL     1      25.234  47.566  52.355  1.00  0.00    -0.122 NA
HETATM    7  C   UNL     1      26.244  46.667  52.317  1.00  0.00     0.212 A 
HETATM    8  N   UNL     1      26.448  45.815  51.299  1.00  0.00    -0.195 NA
HETATM    9  C   UNL     1      23.520  46.855  49.184  1.00  0.00     0.020 A 
HETATM   10  C   UNL     1      23.112  45.693  48.492  1.00  0.00     0.023 A 
HETATM   11  N   UNL     1      23.464  44.388  48.858  1.00  0.00    -0.259 NA
HETATM   12  C   UNL     1      22.976  48.099  48.802  1.00  0.00     0.016 A 
HETATM   13  C   UNL     1      22.038  48.200  47.774  1.00  0.00     0.001 A 
HETATM   14  C   UNL     1      21.608  47.051  47.124  1.00  0.00     0.002 A 
HETATM   15  C   UNL     1      22.128  45.812  47.495  1.00  0.00     0.024 A 
HETATM   16  H   UNL     1      22.844  44.073  49.614  1.00  0.00     0.130 HD
ENDROOT
BRANCH   7  17
HETATM   17  S   UNL     1      27.394  46.598  53.663  1.00  0.00    -0.084 SA
BRANCH  17  18
HETATM   18  C   UNL     1      27.680  44.803  53.718  1.00  0.00     0.121 C 
BRANCH  18  19
HETATM   19  C   UNL     1      28.835  44.459  54.628  1.00  0.00    -0.048 A 
HETATM   20  C   UNL     1      29.301  45.391  55.568  1.00  0.00     0.009 A 
HETATM   21  C   UNL     1      30.376  45.077  56.403  1.00  0.00     0.024 A 
HETATM   22  C   UNL     1      30.996  43.834  56.298  1.00  0.00     0.034 A 
HETATM   23 CL   UNL     1      32.321  43.450  57.326  1.00  0.00    -0.084 Cl
HETATM   24  C   UNL     1      30.550  42.901  55.365  1.00  0.00     0.024 A 
HETATM   25  C   UNL     1      29.474  43.213  54.531  1.00  0.00     0.009 A 
ENDBRANCH  18  19
ENDBRANCH  17  18
ENDBRANCH   7  17
BRANCH   1  26
HETATM   26  C   UNL     1      24.842  43.096  50.466  1.00  0.00     0.203 C 
HETATM   27  O   UNL     1      23.932  43.168  51.298  1.00  0.00    -0.288 OA
BRANCH  26  28
HETATM   28  C   UNL     1      25.933  42.087  50.644  1.00  0.00     0.014 A 
HETATM   29  C   UNL     1      27.056  42.317  51.449  1.00  0.00     0.015 A 
HETATM   30  C   UNL     1      28.055  41.345  51.557  1.00  0.00     0.001 A 
HETATM   31  C   UNL     1      27.940  40.140  50.866  1.00  0.00     0.000 A 
HETATM   32  C   UNL     1      26.824  39.900  50.069  1.00  0.00     0.001 A 
HETATM   33  C   UNL     1      25.824  40.868  49.958  1.00  0.00     0.015 A 
ENDBRANCH  26  28
ENDBRANCH   1  26
TORSDOF 5
ENDMDL
MODEL 8
REMARK VINA RESULT:      -9.6      3.568      8.163
REMARK  5 active torsions:
REMARK  status: ('A' for Active; 'I' for Inactive)
REMARK    1  A    between atoms: C_4  and  C_5 
REMARK    2  A    between atoms: C_5  and  C_6 
REMARK    3  A    between atoms: C_12  and  S_13 
REMARK    4  A    between atoms: S_13  and  C_14 
REMARK    5  A    between atoms: C_14  and  C_15 
ROOT
HETATM    1  C   UNL     1      26.869  45.511  52.608  1.00  0.00     0.283 C 
HETATM    2  O   UNL     1      27.731  44.821  51.721  1.00  0.00    -0.303 OA
HETATM    3  C   UNL     1      27.616  43.468  51.904  1.00  0.00     0.201 A 
HETATM    4  C   UNL     1      28.211  42.859  52.994  1.00  0.00     0.144 A 
HETATM    5  N   UNL     1      28.146  41.516  53.084  1.00  0.00    -0.142 NA
HETATM    6  N   UNL     1      27.491  40.820  52.106  1.00  0.00    -0.122 NA
HETATM    7  C   UNL     1      26.927  41.480  51.069  1.00  0.00     0.212 A 
HETATM    8  N   UNL     1      26.976  42.813  50.917  1.00  0.00    -0.195 NA
HETATM    9  C   UNL     1      28.904  43.601  54.046  1.00  0.00     0.020 A 
HETATM   10  C   UNL     1      28.456  44.874  54.465  1.00  0.00     0.023 A 
HETATM   11  N   UNL     1      27.267  45.476  54.035  1.00  0.00    -0.259 NA
HETATM   12  C   UNL     1      30.042  43.044  54.666  1.00  0.00     0.016 A 
HETATM   13  C   UNL     1      30.715  43.712  55.689  1.00  0.00     0.001 A 
HETATM   14  C   UNL     1      30.248  44.944  56.126  1.00  0.00     0.002 A 
HETATM   15  C   UNL     1      29.119  45.505  55.531  1.00  0.00     0.024 A 
HETATM   16  H   UNL     1      26.483  45.096  54.579  1.00  0.00     0.130 HD
ENDROOT
BRANCH   7  17
HETATM   17  S   UNL     1      26.085  40.560  49.810  1.00  0.00    -0.084 SA
BRANCH  17  18
HETATM   18  C   UNL     1      27.523  39.903  48.911  1.00  0.00     0.121 C 
BRANCH  18  19
HETATM   19  C   UNL     1      28.137  38.731  49.640  1.00  0.00    -0.048 A 
HETATM   20  C   UNL     1      29.408  38.844  50.224  1.00  0.00     0.009 A 
HETATM   21  C   UNL     1      29.981  37.757  50.890  1.00  0.00     0.024 A 
HETATM   22  C   UNL     1      29.290  36.551  50.969  1.00  0.00     0.034 A 
HETATM   23 CL   UNL     1      29.997  35.213  51.788  1.00  0.00    -0.084 Cl
HETATM   24  C   UNL     1      28.030  36.420  50.388  1.00  0.00     0.024 A 
HETATM   25  C   UNL     1      27.457  37.506  49.724  1.00  0.00     0.009 A 
ENDBRANCH  18  19
ENDBRANCH  17  18
ENDBRANCH   7  17
BRANCH   1  26
HETATM   26  C   UNL     1      25.356  45.178  52.481  1.00  0.00     0.203 C 
HETATM   27  O   UNL     1      24.741  44.649  53.413  1.00  0.00    -0.288 OA
BRANCH  26  28
HETATM   28  C   UNL     1      24.630  45.541  51.225  1.00  0.00     0.014 A 
HETATM   29  C   UNL     1      24.654  46.831  50.679  1.00  0.00     0.015 A 
HETATM   30  C   UNL     1      23.934  47.116  49.514  1.00  0.00     0.001 A 
HETATM   31  C   UNL     1      23.189  46.119  48.888  1.00  0.00     0.000 A 
HETATM   32  C   UNL     1      23.163  44.833  49.420  1.00  0.00     0.001 A 
HETATM   33  C   UNL     1      23.881  44.544  50.583  1.00  0.00     0.015 A 
ENDBRANCH  26  28
ENDBRANCH   1  26
TORSDOF 5
ENDMDL
MODEL 9
REMARK VINA RESULT:      -9.4      3.152      6.830
REMARK  5 active torsions:
REMARK  status: ('A' for Active; 'I' for Inactive)
REMARK    1  A    between atoms: C_4  and  C_5 
REMARK    2  A    between atoms: C_5  and  C_6 
REMARK    3  A    between atoms: C_12  and  S_13 
REMARK    4  A    between atoms: S_13  and  C_14 
REMARK    5  A    between atoms: C_14  and  C_15 
ROOT
HETATM    1  C   UNL     1      27.040  45.346  52.934  1.00  0.00     0.283 C 
HETATM    2  O   UNL     1      28.018  44.738  52.109  1.00  0.00    -0.303 OA
HETATM    3  C   UNL     1      28.057  43.387  52.333  1.00  0.00     0.201 A 
HETATM    4  C   UNL     1      28.670  42.887  53.468  1.00  0.00     0.144 A 
HETATM    5  N   UNL     1      28.762  41.550  53.601  1.00  0.00    -0.142 NA
HETATM    6  N   UNL     1      28.240  40.751  52.621  1.00  0.00    -0.122 NA
HETATM    7  C   UNL     1      27.649  41.307  51.539  1.00  0.00     0.212 A 
HETATM    8  N   UNL     1      27.545  42.631  51.343  1.00  0.00    -0.195 NA
HETATM    9  C   UNL     1      29.220  43.738  54.521  1.00  0.00     0.020 A 
HETATM   10  C   UNL     1      28.605  44.959  54.877  1.00  0.00     0.023 A 
HETATM   11  N   UNL     1      27.374  45.401  54.377  1.00  0.00    -0.259 NA
HETATM   12  C   UNL     1      30.387  43.341  55.207  1.00  0.00     0.016 A 
HETATM   13  C   UNL     1      30.929  44.116  56.233  1.00  0.00     0.001 A 
HETATM   14  C   UNL     1      30.298  45.294  56.608  1.00  0.00     0.002 A 
HETATM   15  C   UNL     1      29.139  45.698  55.947  1.00  0.00     0.024 A 
HETATM   16  H   UNL     1      26.616  44.945  54.900  1.00  0.00     0.130 HD
ENDROOT
BRANCH   7  17
HETATM   17  S   UNL     1      26.981  40.256  50.279  1.00  0.00    -0.084 SA
BRANCH  17  18
HETATM   18  C   UNL     1      26.755  41.484  48.957  1.00  0.00     0.121 C 
BRANCH  18  19
HETATM   19  C   UNL     1      25.494  41.216  48.170  1.00  0.00    -0.048 A 
HETATM   20  C   UNL     1      24.234  41.395  48.763  1.00  0.00     0.009 A 
HETATM   21  C   UNL     1      23.068  41.137  48.039  1.00  0.00     0.024 A 
HETATM   22  C   UNL     1      23.154  40.693  46.721  1.00  0.00     0.034 A 
HETATM   23 CL   UNL     1      21.716  40.374  45.831  1.00  0.00    -0.084 Cl
HETATM   24  C   UNL     1      24.396  40.503  46.121  1.00  0.00     0.024 A 
HETATM   25  C   UNL     1      25.563  40.762  46.844  1.00  0.00     0.009 A 
ENDBRANCH  18  19
ENDBRANCH  17  18
ENDBRANCH   7  17
BRANCH   1  26
HETATM   26  C   UNL     1      25.585  44.829  52.756  1.00  0.00     0.203 C 
HETATM   27  O   UNL     1      25.043  44.142  53.628  1.00  0.00    -0.288 OA
BRANCH  26  28
HETATM   28  C   UNL     1      24.821  45.204  51.525  1.00  0.00     0.014 A 
HETATM   29  C   UNL     1      24.011  44.297  50.828  1.00  0.00     0.015 A 
HETATM   30  C   UNL     1      23.341  44.700  49.669  1.00  0.00     0.001 A 
HETATM   31  C   UNL     1      23.471  46.005  49.200  1.00  0.00     0.000 A 
HETATM   32  C   UNL     1      24.269  46.915  49.889  1.00  0.00     0.001 A 
HETATM   33  C   UNL     1      24.941  46.517  51.047  1.00  0.00     0.015 A 
ENDBRANCH  26  28
ENDBRANCH   1  26
TORSDOF 5
ENDMDL
MODEL 10
REMARK VINA RESULT:      -9.4      3.267      6.044
REMARK  5 active torsions:
REMARK  status: ('A' for Active; 'I' for Inactive)
REMARK    1  A    between atoms: C_4  and  C_5 
REMARK    2  A    between atoms: C_5  and  C_6 
REMARK    3  A    between atoms: C_12  and  S_13 
REMARK    4  A    between atoms: S_13  and  C_14 
REMARK    5  A    between atoms: C_14  and  C_15 
ROOT
HETATM    1  C   UNL     1      26.495  45.966  50.048  1.00  0.00     0.283 C 
HETATM    2  O   UNL     1      25.959  45.097  49.066  1.00  0.00    -0.303 OA
HETATM    3  C   UNL     1      24.807  44.515  49.526  1.00  0.00     0.201 A 
HETATM    4  C   UNL     1      24.866  43.481  50.443  1.00  0.00     0.144 A 
HETATM    5  N   UNL     1      23.714  42.881  50.798  1.00  0.00    -0.142 NA
HETATM    6  N   UNL     1      22.542  43.324  50.248  1.00  0.00    -0.122 NA
HETATM    7  C   UNL     1      22.556  44.344  49.360  1.00  0.00     0.212 A 
HETATM    8  N   UNL     1      23.674  44.966  48.955  1.00  0.00    -0.195 NA
HETATM    9  C   UNL     1      26.116  43.012  51.040  1.00  0.00     0.020 A 
HETATM   10  C   UNL     1      27.168  43.905  51.341  1.00  0.00     0.023 A 
HETATM   11  N   UNL     1      27.079  45.299  51.235  1.00  0.00    -0.259 NA
HETATM   12  C   UNL     1      26.285  41.642  51.330  1.00  0.00     0.016 A 
HETATM   13  C   UNL     1      27.454  41.161  51.920  1.00  0.00     0.001 A 
HETATM   14  C   UNL     1      28.469  42.047  52.252  1.00  0.00     0.002 A 
HETATM   15  C   UNL     1      28.315  43.406  51.982  1.00  0.00     0.024 A 
HETATM   16  H   UNL     1      26.615  45.670  52.073  1.00  0.00     0.130 HD
ENDROOT
BRANCH   7  17
HETATM   17  S   UNL     1      21.028  44.901  48.656  1.00  0.00    -0.084 SA
BRANCH  17  18
HETATM   18  C   UNL     1      21.576  46.502  47.987  1.00  0.00     0.121 C 
BRANCH  18  19
HETATM   19  C   UNL     1      20.540  47.576  48.219  1.00  0.00    -0.048 A 
HETATM   20  C   UNL     1      19.506  47.378  49.147  1.00  0.00     0.009 A 
HETATM   21  C   UNL     1      18.541  48.367  49.354  1.00  0.00     0.024 A 
HETATM   22  C   UNL     1      18.602  49.556  48.631  1.00  0.00     0.034 A 
HETATM   23 CL   UNL     1      17.412  50.773  48.886  1.00  0.00    -0.084 Cl
HETATM   24  C   UNL     1      19.617  49.765  47.701  1.00  0.00     0.024 A 
HETATM   25  C   UNL     1      20.583  48.777  47.494  1.00  0.00     0.009 A 
ENDBRANCH  18  19
ENDBRANCH  17  18
ENDBRANCH   7  17
BRANCH   1  26
HETATM   26  C   UNL     1      25.569  47.128  50.506  1.00  0.00     0.203 C 
HETATM   27  O   UNL     1      25.066  47.132  51.634  1.00  0.00    -0.288 OA
BRANCH  26  28
HETATM   28  C   UNL     1      25.317  48.273  49.576  1.00  0.00     0.014 A 
HETATM   29  C   UNL     1      24.030  48.730  49.265  1.00  0.00     0.015 A 
HETATM   30  C   UNL     1      23.857  49.790  48.370  1.00  0.00     0.001 A 
HETATM   31  C   UNL     1      24.963  50.399  47.781  1.00  0.00     0.000 A 
HETATM   32  C   UNL     1      26.246  49.955  48.088  1.00  0.00     0.001 A 
HETATM   33  C   UNL     1      26.424  48.897  48.982  1.00  0.00     0.015 A 
ENDBRANCH  26  28
ENDBRANCH   1  26
TORSDOF 5
ENDMDL
