MODEL 1
REMARK VINA RESULT:      -9.0      0.000      0.000
REMARK  8 active torsions:
REMARK  status: ('A' for Active; 'I' for Inactive)
REMARK    1  A    between atoms: C_2  and  C_3 
REMARK    2  A    between atoms: C_3  and  O_4 
REMARK    3  A    between atoms: O_4  and  C_5 
REMARK    4  A    between atoms: C_8  and  C_9 
REMARK    5  A    between atoms: N_10  and  C_11 
REMARK    6  A    between atoms: C_11  and  C_12 
REMARK    7  A    between atoms: C_25  and  C_26 
REMARK    8  A    between atoms: C_27  and  O_28 
ROOT
HETATM    1  C   UNL     1      26.698  42.846  49.765  1.00  0.00     0.159 A 
HETATM    2  N   UNL     1      26.344  41.647  48.959  1.00  0.00    -0.329 N 
HETATM    3  C   UNL     1      24.965  41.412  48.871  1.00  0.00     0.273 A 
HETATM    4  O   UNL     1      24.379  40.563  48.224  1.00  0.00    -0.266 OA
HETATM    5  C   UNL     1      24.403  42.410  49.703  1.00  0.00     0.129 A 
HETATM    6  C   UNL     1      25.348  43.234  50.234  1.00  0.00     0.034 A 
HETATM    7  N   UNL     1      23.209  42.793  50.180  1.00  0.00    -0.272 N 
HETATM    8  H   UNL     1      22.289  42.403  50.002  1.00  0.00     0.189 HD
HETATM    9  N   UNL     1      23.331  43.834  51.047  1.00  0.00    -0.173 NA
HETATM   10  C   UNL     1      24.658  44.097  51.098  1.00  0.00     0.101 A 
ENDROOT
BRANCH   1  11
HETATM   11  C   UNL     1      27.519  42.574  51.003  1.00  0.00    -0.030 A 
HETATM   12  C   UNL     1      28.437  43.548  51.434  1.00  0.00     0.012 A 
HETATM   13  C   UNL     1      29.088  43.422  52.660  1.00  0.00     0.037 A 
HETATM   14  C   UNL     1      28.817  42.328  53.475  1.00  0.00     0.069 A 
HETATM   15  C   UNL     1      27.977  41.308  53.034  1.00  0.00     0.037 A 
HETATM   16  C   UNL     1      27.331  41.431  51.802  1.00  0.00     0.012 A 
BRANCH  14  17
HETATM   17  O   UNL     1      29.399  42.306  54.714  1.00  0.00    -0.348 OA
BRANCH  17  18
HETATM   18  C   UNL     1      30.575  43.127  54.743  1.00  0.00     0.202 C 
BRANCH  18  19
HETATM   19  C   UNL     1      30.728  43.655  56.138  1.00  0.00    -0.011 C 
HETATM   20  C   UNL     1      31.754  43.379  56.954  1.00  0.00     0.009 C 
ENDBRANCH  18  19
ENDBRANCH  17  18
ENDBRANCH  14  17
ENDBRANCH   1  11
BRANCH   2  21
HETATM   21  C   UNL     1      27.302  41.004  48.086  1.00  0.00     0.167 C 
BRANCH  21  22
HETATM   22  C   UNL     1      27.836  39.729  48.678  1.00  0.00    -0.023 A 
HETATM   23  C   UNL     1      27.018  38.618  48.855  1.00  0.00     0.125 A 
HETATM   24  N   UNL     1      27.425  37.457  49.414  1.00  0.00    -0.273 NA
HETATM   25  C   UNL     1      28.713  37.392  49.815  1.00  0.00     0.116 A 
HETATM   26  C   UNL     1      29.611  38.437  49.682  1.00  0.00     0.020 A 
HETATM   27  C   UNL     1      29.162  39.622  49.106  1.00  0.00     0.012 A 
ENDBRANCH  21  22
ENDBRANCH   2  21
BRANCH  10  28
HETATM   28  C   UNL     1      25.221  45.094  51.999  1.00  0.00     0.028 A 
HETATM   29  C   UNL     1      25.299  44.892  53.383  1.00  0.00     0.078 A 
HETATM   30  C   UNL     1      25.706  45.918  54.233  1.00  0.00     0.037 A 
HETATM   31  C   UNL     1      26.072  47.155  53.703  1.00  0.00     0.003 A 
HETATM   32  C   UNL     1      26.033  47.363  52.324  1.00  0.00     0.001 A 
HETATM   33  C   UNL     1      25.609  46.336  51.476  1.00  0.00     0.017 A 
BRANCH  29  34
HETATM   34  O   UNL     1      24.991  43.696  53.976  1.00  0.00    -0.360 OA
HETATM   35  H   UNL     1      25.317  43.740  54.894  1.00  0.00     0.217 HD
ENDBRANCH  29  34
ENDBRANCH  10  28
TORSDOF 8
ENDMDL
MODEL 2
REMARK VINA RESULT:      -8.3      2.448      6.073
REMARK  8 active torsions:
REMARK  status: ('A' for Active; 'I' for Inactive)
REMARK    1  A    between atoms: C_2  and  C_3 
REMARK    2  A    between atoms: C_3  and  O_4 
REMARK    3  A    between atoms: O_4  and  C_5 
REMARK    4  A    between atoms: C_8  and  C_9 
REMARK    5  A    between atoms: N_10  and  C_11 
REMARK    6  A    between atoms: C_11  and  C_12 
REMARK    7  A    between atoms: C_25  and  C_26 
REMARK    8  A    between atoms: C_27  and  O_28 
ROOT
HETATM    1  C   UNL     1      25.059  42.298  50.661  1.00  0.00     0.159 A 
HETATM    2  N   UNL     1      24.358  41.893  49.413  1.00  0.00    -0.329 N 
HETATM    3  C   UNL     1      25.087  40.996  48.621  1.00  0.00     0.273 A 
HETATM    4  O   UNL     1      24.744  40.435  47.596  1.00  0.00    -0.266 OA
HETATM    5  C   UNL     1      26.322  40.876  49.302  1.00  0.00     0.129 A 
HETATM    6  C   UNL     1      26.350  41.603  50.454  1.00  0.00     0.034 A 
HETATM    7  N   UNL     1      27.521  40.292  49.156  1.00  0.00    -0.272 N 
HETATM    8  H   UNL     1      27.855  39.686  48.413  1.00  0.00     0.189 HD
HETATM    9  N   UNL     1      28.367  40.635  50.164  1.00  0.00    -0.173 NA
HETATM   10  C   UNL     1      27.651  41.464  50.959  1.00  0.00     0.101 A 
ENDROOT
BRANCH   1  11
HETATM   11  C   UNL     1      25.378  43.769  50.775  1.00  0.00    -0.030 A 
HETATM   12  C   UNL     1      26.008  44.410  49.692  1.00  0.00     0.012 A 
HETATM   13  C   UNL     1      26.165  45.795  49.677  1.00  0.00     0.037 A 
HETATM   14  C   UNL     1      25.682  46.555  50.737  1.00  0.00     0.069 A 
HETATM   15  C   UNL     1      25.133  45.937  51.858  1.00  0.00     0.037 A 
HETATM   16  C   UNL     1      24.982  44.549  51.877  1.00  0.00     0.012 A 
BRANCH  14  17
HETATM   17  O   UNL     1      25.764  47.917  50.625  1.00  0.00    -0.348 OA
BRANCH  17  18
HETATM   18  C   UNL     1      25.331  48.351  49.328  1.00  0.00     0.202 C 
BRANCH  18  19
HETATM   19  C   UNL     1      26.398  49.243  48.766  1.00  0.00    -0.011 C 
HETATM   20  C   UNL     1      27.691  49.206  49.115  1.00  0.00     0.009 C 
ENDBRANCH  18  19
ENDBRANCH  17  18
ENDBRANCH  14  17
ENDBRANCH   1  11
BRANCH   2  21
HETATM   21  C   UNL     1      22.944  42.133  49.220  1.00  0.00     0.167 C 
BRANCH  21  22
HETATM   22  C   UNL     1      22.689  43.410  48.468  1.00  0.00    -0.023 A 
HETATM   23  C   UNL     1      22.807  43.468  47.083  1.00  0.00     0.125 A 
HETATM   24  N   UNL     1      22.628  44.591  46.353  1.00  0.00    -0.273 NA
HETATM   25  C   UNL     1      22.310  45.715  47.030  1.00  0.00     0.116 A 
HETATM   26  C   UNL     1      22.164  45.766  48.406  1.00  0.00     0.020 A 
HETATM   27  C   UNL     1      22.358  44.595  49.132  1.00  0.00     0.012 A 
ENDBRANCH  21  22
ENDBRANCH   2  21
BRANCH  10  28
HETATM   28  C   UNL     1      28.235  42.135  52.113  1.00  0.00     0.028 A 
HETATM   29  C   UNL     1      28.597  41.443  53.276  1.00  0.00     0.078 A 
HETATM   30  C   UNL     1      29.016  42.130  54.414  1.00  0.00     0.037 A 
HETATM   31  C   UNL     1      29.110  43.521  54.392  1.00  0.00     0.003 A 
HETATM   32  C   UNL     1      28.786  44.223  53.231  1.00  0.00     0.001 A 
HETATM   33  C   UNL     1      28.351  43.533  52.096  1.00  0.00     0.017 A 
BRANCH  29  34
HETATM   34  O   UNL     1      28.566  40.077  53.366  1.00  0.00    -0.360 OA
HETATM   35  H   UNL     1      27.665  39.828  53.642  1.00  0.00     0.217 HD
ENDBRANCH  29  34
ENDBRANCH  10  28
TORSDOF 8
ENDMDL
MODEL 3
REMARK VINA RESULT:      -8.2      2.668      5.962
REMARK  8 active torsions:
REMARK  status: ('A' for Active; 'I' for Inactive)
REMARK    1  A    between atoms: C_2  and  C_3 
REMARK    2  A    between atoms: C_3  and  O_4 
REMARK    3  A    between atoms: O_4  and  C_5 
REMARK    4  A    between atoms: C_8  and  C_9 
REMARK    5  A    between atoms: N_10  and  C_11 
REMARK    6  A    between atoms: C_11  and  C_12 
REMARK    7  A    between atoms: C_25  and  C_26 
REMARK    8  A    between atoms: C_27  and  O_28 
ROOT
HETATM    1  C   UNL     1      24.395  43.435  50.712  1.00  0.00     0.159 A 
HETATM    2  N   UNL     1      23.543  43.699  49.521  1.00  0.00    -0.329 N 
HETATM    3  C   UNL     1      24.103  43.254  48.316  1.00  0.00     0.273 A 
HETATM    4  O   UNL     1      23.611  43.260  47.202  1.00  0.00    -0.266 OA
HETATM    5  C   UNL     1      25.378  42.774  48.698  1.00  0.00     0.129 A 
HETATM    6  C   UNL     1      25.586  42.867  50.040  1.00  0.00     0.034 A 
HETATM    7  N   UNL     1      26.495  42.278  48.143  1.00  0.00    -0.272 N 
HETATM    8  H   UNL     1      26.697  42.081  47.167  1.00  0.00     0.189 HD
HETATM    9  N   UNL     1      27.462  42.066  49.075  1.00  0.00    -0.173 NA
HETATM   10  C   UNL     1      26.909  42.450  50.250  1.00  0.00     0.101 A 
ENDROOT
BRANCH   1  11
HETATM   11  C   UNL     1      24.867  44.662  51.454  1.00  0.00    -0.030 A 
HETATM   12  C   UNL     1      24.981  44.604  52.855  1.00  0.00     0.012 A 
HETATM   13  C   UNL     1      25.575  45.646  53.566  1.00  0.00     0.037 A 
HETATM   14  C   UNL     1      26.074  46.749  52.883  1.00  0.00     0.069 A 
HETATM   15  C   UNL     1      25.896  46.870  51.507  1.00  0.00     0.037 A 
HETATM   16  C   UNL     1      25.295  45.829  50.794  1.00  0.00     0.012 A 
BRANCH  14  17
HETATM   17  O   UNL     1      26.743  47.693  53.614  1.00  0.00    -0.348 OA
BRANCH  17  18
HETATM   18  C   UNL     1      26.961  47.241  54.958  1.00  0.00     0.202 C 
BRANCH  18  19
HETATM   19  C   UNL     1      28.425  46.955  55.112  1.00  0.00    -0.011 C 
HETATM   20  C   UNL     1      28.943  46.023  55.922  1.00  0.00     0.009 C 
ENDBRANCH  18  19
ENDBRANCH  17  18
ENDBRANCH  14  17
ENDBRANCH   1  11
BRANCH   2  21
HETATM   21  C   UNL     1      22.148  44.062  49.647  1.00  0.00     0.167 C 
BRANCH  21  22
HETATM   22  C   UNL     1      21.796  45.247  48.790  1.00  0.00    -0.023 A 
HETATM   23  C   UNL     1      20.651  45.252  48.002  1.00  0.00     0.125 A 
HETATM   24  N   UNL     1      20.298  46.268  47.182  1.00  0.00    -0.273 NA
HETATM   25  C   UNL     1      21.122  47.336  47.147  1.00  0.00     0.116 A 
HETATM   26  C   UNL     1      22.284  47.435  47.893  1.00  0.00     0.020 A 
HETATM   27  C   UNL     1      22.624  46.372  48.725  1.00  0.00     0.012 A 
ENDBRANCH  21  22
ENDBRANCH   2  21
BRANCH  10  28
HETATM   28  C   UNL     1      27.662  42.470  51.497  1.00  0.00     0.028 A 
HETATM   29  C   UNL     1      27.579  41.435  52.437  1.00  0.00     0.078 A 
HETATM   30  C   UNL     1      28.196  41.549  53.681  1.00  0.00     0.037 A 
HETATM   31  C   UNL     1      28.932  42.692  53.990  1.00  0.00     0.003 A 
HETATM   32  C   UNL     1      29.054  43.717  53.052  1.00  0.00     0.001 A 
HETATM   33  C   UNL     1      28.421  43.607  51.811  1.00  0.00     0.017 A 
BRANCH  29  34
HETATM   34  O   UNL     1      26.904  40.267  52.196  1.00  0.00    -0.360 OA
HETATM   35  H   UNL     1      26.931  40.115  51.234  1.00  0.00     0.217 HD
ENDBRANCH  29  34
ENDBRANCH  10  28
TORSDOF 8
ENDMDL
MODEL 4
REMARK VINA RESULT:      -8.2      1.602      5.944
REMARK  8 active torsions:
REMARK  status: ('A' for Active; 'I' for Inactive)
REMARK    1  A    between atoms: C_2  and  C_3 
REMARK    2  A    between atoms: C_3  and  O_4 
REMARK    3  A    between atoms: O_4  and  C_5 
REMARK    4  A    between atoms: C_8  and  C_9 
REMARK    5  A    between atoms: N_10  and  C_11 
REMARK    6  A    between atoms: C_11  and  C_12 
REMARK    7  A    between atoms: C_25  and  C_26 
REMARK    8  A    between atoms: C_27  and  O_28 
ROOT
HETATM    1  C   UNL     1      25.835  41.792  51.005  1.00  0.00     0.159 A 
HETATM    2  N   UNL     1      25.134  43.066  50.693  1.00  0.00    -0.329 N 
HETATM    3  C   UNL     1      25.003  43.318  49.320  1.00  0.00     0.273 A 
HETATM    4  O   UNL     1      24.414  44.230  48.767  1.00  0.00    -0.266 OA
HETATM    5  C   UNL     1      25.706  42.248  48.716  1.00  0.00     0.129 A 
HETATM    6  C   UNL     1      26.199  41.370  49.633  1.00  0.00     0.034 A 
HETATM    7  N   UNL     1      26.087  41.828  47.500  1.00  0.00    -0.272 N 
HETATM    8  H   UNL     1      25.903  42.241  46.590  1.00  0.00     0.189 HD
HETATM    9  N   UNL     1      26.853  40.707  47.577  1.00  0.00    -0.173 NA
HETATM   10  C   UNL     1      26.942  40.432  48.900  1.00  0.00     0.101 A 
ENDROOT
BRANCH   1  11
HETATM   11  C   UNL     1      27.132  41.937  51.765  1.00  0.00    -0.030 A 
HETATM   12  C   UNL     1      28.007  42.982  51.417  1.00  0.00     0.012 A 
HETATM   13  C   UNL     1      29.127  43.264  52.198  1.00  0.00     0.037 A 
HETATM   14  C   UNL     1      29.375  42.515  53.343  1.00  0.00     0.069 A 
HETATM   15  C   UNL     1      28.572  41.422  53.661  1.00  0.00     0.037 A 
HETATM   16  C   UNL     1      27.454  41.134  52.875  1.00  0.00     0.012 A 
BRANCH  14  17
HETATM   17  O   UNL     1      30.425  42.900  54.132  1.00  0.00    -0.348 OA
BRANCH  17  18
HETATM   18  C   UNL     1      30.003  43.857  55.114  1.00  0.00     0.202 C 
BRANCH  18  19
HETATM   19  C   UNL     1      31.117  44.014  56.106  1.00  0.00    -0.011 C 
HETATM   20  C   UNL     1      31.473  43.094  57.011  1.00  0.00     0.009 C 
ENDBRANCH  18  19
ENDBRANCH  17  18
ENDBRANCH  14  17
ENDBRANCH   1  11
BRANCH   2  21
HETATM   21  C   UNL     1      24.374  43.784  51.693  1.00  0.00     0.167 C 
BRANCH  21  22
HETATM   22  C   UNL     1      25.122  44.977  52.218  1.00  0.00    -0.023 A 
HETATM   23  C   UNL     1      25.112  46.191  51.539  1.00  0.00     0.125 A 
HETATM   24  N   UNL     1      25.792  47.289  51.937  1.00  0.00    -0.273 NA
HETATM   25  C   UNL     1      26.517  47.180  53.071  1.00  0.00     0.116 A 
HETATM   26  C   UNL     1      26.592  46.021  53.824  1.00  0.00     0.020 A 
HETATM   27  C   UNL     1      25.884  44.905  53.388  1.00  0.00     0.012 A 
ENDBRANCH  21  22
ENDBRANCH   2  21
BRANCH  10  28
HETATM   28  C   UNL     1      27.767  39.348  49.417  1.00  0.00     0.028 A 
HETATM   29  C   UNL     1      27.336  38.015  49.416  1.00  0.00     0.078 A 
HETATM   30  C   UNL     1      28.083  37.023  50.047  1.00  0.00     0.037 A 
HETATM   31  C   UNL     1      29.291  37.348  50.663  1.00  0.00     0.003 A 
HETATM   32  C   UNL     1      29.752  38.664  50.644  1.00  0.00     0.001 A 
HETATM   33  C   UNL     1      28.992  39.660  50.023  1.00  0.00     0.017 A 
BRANCH  29  34
HETATM   34  O   UNL     1      26.180  37.610  48.803  1.00  0.00    -0.360 OA
HETATM   35  H   UNL     1      25.894  36.790  49.245  1.00  0.00     0.217 HD
ENDBRANCH  29  34
ENDBRANCH  10  28
TORSDOF 8
ENDMDL
MODEL 5
REMARK VINA RESULT:      -7.9      6.593      8.849
REMARK  8 active torsions:
REMARK  status: ('A' for Active; 'I' for Inactive)
REMARK    1  A    between atoms: C_2  and  C_3 
REMARK    2  A    between atoms: C_3  and  O_4 
REMARK    3  A    between atoms: O_4  and  C_5 
REMARK    4  A    between atoms: C_8  and  C_9 
REMARK    5  A    between atoms: N_10  and  C_11 
REMARK    6  A    between atoms: C_11  and  C_12 
REMARK    7  A    between atoms: C_25  and  C_26 
REMARK    8  A    between atoms: C_27  and  O_28 
ROOT
HETATM    1  C   UNL     1      20.038  47.290  46.928  1.00  0.00     0.159 A 
HETATM    2  N   UNL     1      20.086  45.804  46.875  1.00  0.00    -0.329 N 
HETATM    3  C   UNL     1      19.007  45.181  47.519  1.00  0.00     0.273 A 
HETATM    4  O   UNL     1      18.737  43.995  47.573  1.00  0.00    -0.266 OA
HETATM    5  C   UNL     1      18.288  46.260  48.085  1.00  0.00     0.129 A 
HETATM    6  C   UNL     1      18.842  47.467  47.783  1.00  0.00     0.034 A 
HETATM    7  N   UNL     1      17.228  46.483  48.877  1.00  0.00    -0.272 N 
HETATM    8  H   UNL     1      16.586  45.816  49.295  1.00  0.00     0.189 HD
HETATM    9  N   UNL     1      17.074  47.807  49.143  1.00  0.00    -0.173 NA
HETATM   10  C   UNL     1      18.086  48.419  48.483  1.00  0.00     0.101 A 
ENDROOT
BRANCH   1  11
HETATM   11  C   UNL     1      21.186  47.947  47.657  1.00  0.00    -0.030 A 
HETATM   12  C   UNL     1      21.946  47.178  48.556  1.00  0.00     0.012 A 
HETATM   13  C   UNL     1      23.116  47.686  49.119  1.00  0.00     0.037 A 
HETATM   14  C   UNL     1      23.545  48.964  48.777  1.00  0.00     0.069 A 
HETATM   15  C   UNL     1      22.766  49.777  47.957  1.00  0.00     0.037 A 
HETATM   16  C   UNL     1      21.590  49.270  47.399  1.00  0.00     0.012 A 
BRANCH  14  17
HETATM   17  O   UNL     1      24.753  49.376  49.272  1.00  0.00    -0.348 OA
BRANCH  17  18
HETATM   18  C   UNL     1      25.586  49.895  48.224  1.00  0.00     0.202 C 
BRANCH  18  19
HETATM   19  C   UNL     1      27.009  49.806  48.687  1.00  0.00    -0.011 C 
HETATM   20  C   UNL     1      27.614  48.682  49.095  1.00  0.00     0.009 C 
ENDBRANCH  18  19
ENDBRANCH  17  18
ENDBRANCH  14  17
ENDBRANCH   1  11
BRANCH   2  21
HETATM   21  C   UNL     1      20.963  45.101  45.965  1.00  0.00     0.167 C 
BRANCH  21  22
HETATM   22  C   UNL     1      21.632  43.927  46.623  1.00  0.00    -0.023 A 
HETATM   23  C   UNL     1      21.318  42.621  46.263  1.00  0.00     0.125 A 
HETATM   24  N   UNL     1      21.856  41.524  46.842  1.00  0.00    -0.273 NA
HETATM   25  C   UNL     1      22.756  41.733  47.826  1.00  0.00     0.116 A 
HETATM   26  C   UNL     1      23.142  42.990  48.259  1.00  0.00     0.020 A 
HETATM   27  C   UNL     1      22.569  44.101  47.647  1.00  0.00     0.012 A 
ENDBRANCH  21  22
ENDBRANCH   2  21
BRANCH  10  28
HETATM   28  C   UNL     1      18.335  49.850  48.591  1.00  0.00     0.028 A 
HETATM   29  C   UNL     1      18.524  50.484  49.826  1.00  0.00     0.078 A 
HETATM   30  C   UNL     1      18.615  51.873  49.909  1.00  0.00     0.037 A 
HETATM   31  C   UNL     1      18.546  52.645  48.750  1.00  0.00     0.003 A 
HETATM   32  C   UNL     1      18.392  52.027  47.509  1.00  0.00     0.001 A 
HETATM   33  C   UNL     1      18.286  50.636  47.430  1.00  0.00     0.017 A 
BRANCH  29  34
HETATM   34  O   UNL     1      18.637  49.795  51.004  1.00  0.00    -0.360 OA
HETATM   35  H   UNL     1      19.507  50.016  51.383  1.00  0.00     0.217 HD
ENDBRANCH  29  34
ENDBRANCH  10  28
TORSDOF 8
ENDMDL
MODEL 6
REMARK VINA RESULT:      -7.8     11.732     13.189
REMARK  8 active torsions:
REMARK  status: ('A' for Active; 'I' for Inactive)
REMARK    1  A    between atoms: C_2  and  C_3 
REMARK    2  A    between atoms: C_3  and  O_4 
REMARK    3  A    between atoms: O_4  and  C_5 
REMARK    4  A    between atoms: C_8  and  C_9 
REMARK    5  A    between atoms: N_10  and  C_11 
REMARK    6  A    between atoms: C_11  and  C_12 
REMARK    7  A    between atoms: C_25  and  C_26 
REMARK    8  A    between atoms: C_27  and  O_28 
ROOT
HETATM    1  C   UNL     1      28.724  47.991  38.374  1.00  0.00     0.159 A 
HETATM    2  N   UNL     1      28.088  46.674  38.106  1.00  0.00    -0.329 N 
HETATM    3  C   UNL     1      26.697  46.740  37.941  1.00  0.00     0.273 A 
HETATM    4  O   UNL     1      25.925  45.849  37.637  1.00  0.00    -0.266 OA
HETATM    5  C   UNL     1      26.396  48.100  38.194  1.00  0.00     0.129 A 
HETATM    6  C   UNL     1      27.511  48.838  38.452  1.00  0.00     0.034 A 
HETATM    7  N   UNL     1      25.333  48.911  38.304  1.00  0.00    -0.272 N 
HETATM    8  H   UNL     1      24.347  48.700  38.184  1.00  0.00     0.189 HD
HETATM    9  N   UNL     1      25.702  50.170  38.662  1.00  0.00    -0.173 NA
HETATM   10  C   UNL     1      27.051  50.123  38.775  1.00  0.00     0.101 A 
ENDROOT
BRANCH   1  11
HETATM   11  C   UNL     1      29.418  48.114  39.710  1.00  0.00    -0.030 A 
HETATM   12  C   UNL     1      30.789  48.426  39.734  1.00  0.00     0.012 A 
HETATM   13  C   UNL     1      31.433  48.720  40.934  1.00  0.00     0.037 A 
HETATM   14  C   UNL     1      30.709  48.721  42.122  1.00  0.00     0.069 A 
HETATM   15  C   UNL     1      29.372  48.332  42.136  1.00  0.00     0.037 A 
HETATM   16  C   UNL     1      28.728  48.029  40.933  1.00  0.00     0.012 A 
BRANCH  14  17
HETATM   17  O   UNL     1      31.361  49.121  43.257  1.00  0.00    -0.348 OA
BRANCH  17  18
HETATM   18  C   UNL     1      32.376  50.087  42.951  1.00  0.00     0.202 C 
BRANCH  18  19
HETATM   19  C   UNL     1      32.047  51.346  43.696  1.00  0.00    -0.011 C 
HETATM   20  C   UNL     1      32.838  51.927  44.607  1.00  0.00     0.009 C 
ENDBRANCH  18  19
ENDBRANCH  17  18
ENDBRANCH  14  17
ENDBRANCH   1  11
BRANCH   2  21
HETATM   21  C   UNL     1      28.864  45.516  37.718  1.00  0.00     0.167 C 
BRANCH  21  22
HETATM   22  C   UNL     1      28.659  44.361  38.658  1.00  0.00    -0.023 A 
HETATM   23  C   UNL     1      29.045  43.071  38.311  1.00  0.00     0.125 A 
HETATM   24  N   UNL     1      28.854  41.985  39.093  1.00  0.00    -0.273 NA
HETATM   25  C   UNL     1      28.253  42.190  40.284  1.00  0.00     0.116 A 
HETATM   26  C   UNL     1      27.834  43.432  40.729  1.00  0.00     0.020 A 
HETATM   27  C   UNL     1      28.040  44.531  39.900  1.00  0.00     0.012 A 
ENDBRANCH  21  22
ENDBRANCH   2  21
BRANCH  10  28
HETATM   28  C   UNL     1      27.834  51.259  39.241  1.00  0.00     0.028 A 
HETATM   29  C   UNL     1      27.808  51.688  40.575  1.00  0.00     0.078 A 
HETATM   30  C   UNL     1      28.452  52.863  40.960  1.00  0.00     0.037 A 
HETATM   31  C   UNL     1      29.157  53.610  40.018  1.00  0.00     0.003 A 
HETATM   32  C   UNL     1      29.222  53.180  38.693  1.00  0.00     0.001 A 
HETATM   33  C   UNL     1      28.562  52.009  38.306  1.00  0.00     0.017 A 
BRANCH  29  34
HETATM   34  O   UNL     1      27.167  50.991  41.566  1.00  0.00    -0.360 OA
HETATM   35  H   UNL     1      27.850  50.497  42.054  1.00  0.00     0.217 HD
ENDBRANCH  29  34
ENDBRANCH  10  28
TORSDOF 8
ENDMDL
MODEL 7
REMARK VINA RESULT:      -7.8      2.892      6.004
REMARK  8 active torsions:
REMARK  status: ('A' for Active; 'I' for Inactive)
REMARK    1  A    between atoms: C_2  and  C_3 
REMARK    2  A    between atoms: C_3  and  O_4 
REMARK    3  A    between atoms: O_4  and  C_5 
REMARK    4  A    between atoms: C_8  and  C_9 
REMARK    5  A    between atoms: N_10  and  C_11 
REMARK    6  A    between atoms: C_11  and  C_12 
REMARK    7  A    between atoms: C_25  and  C_26 
REMARK    8  A    between atoms: C_27  and  O_28 
ROOT
HETATM    1  C   UNL     1      24.773  44.568  51.982  1.00  0.00     0.159 A 
HETATM    2  N   UNL     1      25.657  45.177  53.012  1.00  0.00    -0.329 N 
HETATM    3  C   UNL     1      25.928  46.535  52.793  1.00  0.00     0.273 A 
HETATM    4  O   UNL     1      26.547  47.310  53.499  1.00  0.00    -0.266 OA
HETATM    5  C   UNL     1      25.295  46.805  51.556  1.00  0.00     0.129 A 
HETATM    6  C   UNL     1      24.640  45.719  51.061  1.00  0.00     0.034 A 
HETATM    7  N   UNL     1      25.160  47.805  50.671  1.00  0.00    -0.272 N 
HETATM    8  H   UNL     1      25.521  48.753  50.710  1.00  0.00     0.189 HD
HETATM    9  N   UNL     1      24.458  47.408  49.576  1.00  0.00    -0.173 NA
HETATM   10  C   UNL     1      24.152  46.109  49.805  1.00  0.00     0.101 A 
ENDROOT
BRANCH   1  11
HETATM   11  C   UNL     1      25.392  43.448  51.181  1.00  0.00    -0.030 A 
HETATM   12  C   UNL     1      26.723  43.581  50.747  1.00  0.00     0.012 A 
HETATM   13  C   UNL     1      27.393  42.510  50.158  1.00  0.00     0.037 A 
HETATM   14  C   UNL     1      26.743  41.289  50.010  1.00  0.00     0.069 A 
HETATM   15  C   UNL     1      25.399  41.157  50.352  1.00  0.00     0.037 A 
HETATM   16  C   UNL     1      24.726  42.233  50.936  1.00  0.00     0.012 A 
BRANCH  14  17
HETATM   17  O   UNL     1      27.477  40.240  49.526  1.00  0.00    -0.348 OA
BRANCH  17  18
HETATM   18  C   UNL     1      28.474  39.832  50.473  1.00  0.00     0.202 C 
BRANCH  18  19
HETATM   19  C   UNL     1      29.127  38.591  49.942  1.00  0.00    -0.011 C 
HETATM   20  C   UNL     1      29.892  37.759  50.661  1.00  0.00     0.009 C 
ENDBRANCH  18  19
ENDBRANCH  17  18
ENDBRANCH  14  17
ENDBRANCH   1  11
BRANCH   2  21
HETATM   21  C   UNL     1      25.919  44.524  54.276  1.00  0.00     0.167 C 
BRANCH  21  22
HETATM   22  C   UNL     1      27.324  43.995  54.356  1.00  0.00    -0.023 A 
HETATM   23  C   UNL     1      28.368  44.787  54.823  1.00  0.00     0.125 A 
HETATM   24  N   UNL     1      29.657  44.385  54.884  1.00  0.00    -0.273 NA
HETATM   25  C   UNL     1      29.924  43.131  54.463  1.00  0.00     0.116 A 
HETATM   26  C   UNL     1      28.961  42.259  53.984  1.00  0.00     0.020 A 
HETATM   27  C   UNL     1      27.643  42.702  53.929  1.00  0.00     0.012 A 
ENDBRANCH  21  22
ENDBRANCH   2  21
BRANCH  10  28
HETATM   28  C   UNL     1      23.478  45.281  48.814  1.00  0.00     0.028 A 
HETATM   29  C   UNL     1      22.113  45.417  48.530  1.00  0.00     0.078 A 
HETATM   30  C   UNL     1      21.465  44.516  47.687  1.00  0.00     0.037 A 
HETATM   31  C   UNL     1      22.186  43.482  47.090  1.00  0.00     0.003 A 
HETATM   32  C   UNL     1      23.553  43.352  47.334  1.00  0.00     0.001 A 
HETATM   33  C   UNL     1      24.196  44.248  48.193  1.00  0.00     0.017 A 
BRANCH  29  34
HETATM   34  O   UNL     1      21.345  46.426  49.049  1.00  0.00    -0.360 OA
HETATM   35  H   UNL     1      21.954  47.133  49.330  1.00  0.00     0.217 HD
ENDBRANCH  29  34
ENDBRANCH  10  28
TORSDOF 8
ENDMDL
MODEL 8
REMARK VINA RESULT:      -7.7      3.301      4.739
REMARK  8 active torsions:
REMARK  status: ('A' for Active; 'I' for Inactive)
REMARK    1  A    between atoms: C_2  and  C_3 
REMARK    2  A    between atoms: C_3  and  O_4 
REMARK    3  A    between atoms: O_4  and  C_5 
REMARK    4  A    between atoms: C_8  and  C_9 
REMARK    5  A    between atoms: N_10  and  C_11 
REMARK    6  A    between atoms: C_11  and  C_12 
REMARK    7  A    between atoms: C_25  and  C_26 
REMARK    8  A    between atoms: C_27  and  O_28 
ROOT
HETATM    1  C   UNL     1      24.007  45.099  48.713  1.00  0.00     0.159 A 
HETATM    2  N   UNL     1      22.828  44.206  48.873  1.00  0.00    -0.329 N 
HETATM    3  C   UNL     1      21.609  44.891  48.969  1.00  0.00     0.273 A 
HETATM    4  O   UNL     1      20.482  44.433  49.026  1.00  0.00    -0.266 OA
HETATM    5  C   UNL     1      21.991  46.254  48.966  1.00  0.00     0.129 A 
HETATM    6  C   UNL     1      23.337  46.414  48.833  1.00  0.00     0.034 A 
HETATM    7  N   UNL     1      21.444  47.472  49.095  1.00  0.00    -0.272 N 
HETATM    8  H   UNL     1      20.469  47.730  49.217  1.00  0.00     0.189 HD
HETATM    9  N   UNL     1      22.392  48.447  49.085  1.00  0.00    -0.173 NA
HETATM   10  C   UNL     1      23.568  47.793  48.944  1.00  0.00     0.101 A 
ENDROOT
BRANCH   1  11
HETATM   11  C   UNL     1      25.023  45.034  49.829  1.00  0.00    -0.030 A 
HETATM   12  C   UNL     1      24.568  45.032  51.160  1.00  0.00     0.012 A 
HETATM   13  C   UNL     1      25.448  44.798  52.214  1.00  0.00     0.037 A 
HETATM   14  C   UNL     1      26.791  44.549  51.949  1.00  0.00     0.069 A 
HETATM   15  C   UNL     1      27.282  44.631  50.648  1.00  0.00     0.037 A 
HETATM   16  C   UNL     1      26.400  44.872  49.591  1.00  0.00     0.012 A 
BRANCH  14  17
HETATM   17  O   UNL     1      27.592  44.219  53.009  1.00  0.00    -0.348 OA
BRANCH  17  18
HETATM   18  C   UNL     1      27.495  42.820  53.308  1.00  0.00     0.202 C 
BRANCH  18  19
HETATM   19  C   UNL     1      28.873  42.327  53.638  1.00  0.00    -0.011 C 
HETATM   20  C   UNL     1      30.003  42.786  53.085  1.00  0.00     0.009 C 
ENDBRANCH  18  19
ENDBRANCH  17  18
ENDBRANCH  14  17
ENDBRANCH   1  11
BRANCH   2  21
HETATM   21  C   UNL     1      22.906  42.785  48.611  1.00  0.00     0.167 C 
BRANCH  21  22
HETATM   22  C   UNL     1      24.259  42.225  48.950  1.00  0.00    -0.023 A 
HETATM   23  C   UNL     1      25.239  42.066  47.975  1.00  0.00     0.125 A 
HETATM   24  N   UNL     1      26.460  41.534  48.206  1.00  0.00    -0.273 NA
HETATM   25  C   UNL     1      26.726  41.143  49.471  1.00  0.00     0.116 A 
HETATM   26  C   UNL     1      25.824  41.260  50.515  1.00  0.00     0.020 A 
HETATM   27  C   UNL     1      24.573  41.807  50.247  1.00  0.00     0.012 A 
ENDBRANCH  21  22
ENDBRANCH   2  21
BRANCH  10  28
HETATM   28  C   UNL     1      24.852  48.481  48.985  1.00  0.00     0.028 A 
HETATM   29  C   UNL     1      25.147  49.564  48.147  1.00  0.00     0.078 A 
HETATM   30  C   UNL     1      26.430  50.107  48.106  1.00  0.00     0.037 A 
HETATM   31  C   UNL     1      27.429  49.591  48.930  1.00  0.00     0.003 A 
HETATM   32  C   UNL     1      27.144  48.536  49.796  1.00  0.00     0.001 A 
HETATM   33  C   UNL     1      25.861  47.983  49.823  1.00  0.00     0.017 A 
BRANCH  29  34
HETATM   34  O   UNL     1      24.212  50.148  47.334  1.00  0.00    -0.360 OA
HETATM   35  H   UNL     1      24.393  51.106  47.334  1.00  0.00     0.217 HD
ENDBRANCH  29  34
ENDBRANCH  10  28
TORSDOF 8
ENDMDL
MODEL 9
REMARK VINA RESULT:      -7.6      3.753      5.475
REMARK  8 active torsions:
REMARK  status: ('A' for Active; 'I' for Inactive)
REMARK    1  A    between atoms: C_2  and  C_3 
REMARK    2  A    between atoms: C_3  and  O_4 
REMARK    3  A    between atoms: O_4  and  C_5 
REMARK    4  A    between atoms: C_8  and  C_9 
REMARK    5  A    between atoms: N_10  and  C_11 
REMARK    6  A    between atoms: C_11  and  C_12 
REMARK    7  A    between atoms: C_25  and  C_26 
REMARK    8  A    between atoms: C_27  and  O_28 
ROOT
HETATM    1  C   UNL     1      23.779  45.162  48.643  1.00  0.00     0.159 A 
HETATM    2  N   UNL     1      22.549  44.334  48.764  1.00  0.00    -0.329 N 
HETATM    3  C   UNL     1      21.370  45.085  48.869  1.00  0.00     0.273 A 
HETATM    4  O   UNL     1      20.218  44.690  48.901  1.00  0.00    -0.266 OA
HETATM    5  C   UNL     1      21.829  46.422  48.911  1.00  0.00     0.129 A 
HETATM    6  C   UNL     1      23.183  46.509  48.796  1.00  0.00     0.034 A 
HETATM    7  N   UNL     1      21.351  47.666  49.071  1.00  0.00    -0.272 N 
HETATM    8  H   UNL     1      20.391  47.976  49.192  1.00  0.00     0.189 HD
HETATM    9  N   UNL     1      22.352  48.585  49.099  1.00  0.00    -0.173 NA
HETATM   10  C   UNL     1      23.492  47.869  48.950  1.00  0.00     0.101 A 
ENDROOT
BRANCH   1  11
HETATM   11  C   UNL     1      24.777  45.006  49.765  1.00  0.00    -0.030 A 
HETATM   12  C   UNL     1      24.313  45.044  51.093  1.00  0.00     0.012 A 
HETATM   13  C   UNL     1      25.162  44.732  52.153  1.00  0.00     0.037 A 
HETATM   14  C   UNL     1      26.479  44.364  51.897  1.00  0.00     0.069 A 
HETATM   15  C   UNL     1      26.984  44.403  50.600  1.00  0.00     0.037 A 
HETATM   16  C   UNL     1      26.136  44.722  49.537  1.00  0.00     0.012 A 
BRANCH  14  17
HETATM   17  O   UNL     1      27.240  43.964  52.962  1.00  0.00    -0.348 OA
BRANCH  17  18
HETATM   18  C   UNL     1      27.797  42.662  52.733  1.00  0.00     0.202 C 
BRANCH  18  19
HETATM   19  C   UNL     1      29.007  42.523  53.607  1.00  0.00    -0.011 C 
HETATM   20  C   UNL     1      30.269  42.737  53.210  1.00  0.00     0.009 C 
ENDBRANCH  18  19
ENDBRANCH  17  18
ENDBRANCH  14  17
ENDBRANCH   1  11
BRANCH   2  21
HETATM   21  C   UNL     1      22.549  42.919  48.461  1.00  0.00     0.167 C 
BRANCH  21  22
HETATM   22  C   UNL     1      22.836  42.656  47.009  1.00  0.00    -0.023 A 
HETATM   23  C   UNL     1      21.936  43.029  46.016  1.00  0.00     0.125 A 
HETATM   24  N   UNL     1      22.117  42.787  44.698  1.00  0.00    -0.273 NA
HETATM   25  C   UNL     1      23.252  42.147  44.346  1.00  0.00     0.116 A 
HETATM   26  C   UNL     1      24.214  41.736  45.252  1.00  0.00     0.020 A 
HETATM   27  C   UNL     1      23.999  41.994  46.602  1.00  0.00     0.012 A 
ENDBRANCH  21  22
ENDBRANCH   2  21
BRANCH  10  28
HETATM   28  C   UNL     1      24.812  48.480  49.024  1.00  0.00     0.028 A 
HETATM   29  C   UNL     1      25.194  49.536  48.187  1.00  0.00     0.078 A 
HETATM   30  C   UNL     1      26.508  50.003  48.180  1.00  0.00     0.037 A 
HETATM   31  C   UNL     1      27.451  49.437  49.037  1.00  0.00     0.003 A 
HETATM   32  C   UNL     1      27.079  48.408  49.901  1.00  0.00     0.001 A 
HETATM   33  C   UNL     1      25.765  47.931  49.895  1.00  0.00     0.017 A 
BRANCH  29  34
HETATM   34  O   UNL     1      24.319  50.168  47.343  1.00  0.00    -0.360 OA
HETATM   35  H   UNL     1      24.556  51.113  47.341  1.00  0.00     0.217 HD
ENDBRANCH  29  34
ENDBRANCH  10  28
TORSDOF 8
ENDMDL
MODEL 10
REMARK VINA RESULT:      -7.5      7.630     10.021
REMARK  8 active torsions:
REMARK  status: ('A' for Active; 'I' for Inactive)
REMARK    1  A    between atoms: C_2  and  C_3 
REMARK    2  A    between atoms: C_3  and  O_4 
REMARK    3  A    between atoms: O_4  and  C_5 
REMARK    4  A    between atoms: C_8  and  C_9 
REMARK    5  A    between atoms: N_10  and  C_11 
REMARK    6  A    between atoms: C_11  and  C_12 
REMARK    7  A    between atoms: C_25  and  C_26 
REMARK    8  A    between atoms: C_27  and  O_28 
ROOT
HETATM    1  C   UNL     1      20.069  47.415  46.830  1.00  0.00     0.159 A 
HETATM    2  N   UNL     1      20.233  45.938  46.758  1.00  0.00    -0.329 N 
HETATM    3  C   UNL     1      19.220  45.224  47.415  1.00  0.00     0.273 A 
HETATM    4  O   UNL     1      19.046  44.020  47.459  1.00  0.00    -0.266 OA
HETATM    5  C   UNL     1      18.429  46.237  48.007  1.00  0.00     0.129 A 
HETATM    6  C   UNL     1      18.879  47.487  47.709  1.00  0.00     0.034 A 
HETATM    7  N   UNL     1      17.371  46.366  48.822  1.00  0.00    -0.272 N 
HETATM    8  H   UNL     1      16.792  45.646  49.245  1.00  0.00     0.189 HD
HETATM    9  N   UNL     1      17.118  47.672  49.107  1.00  0.00    -0.173 NA
HETATM   10  C   UNL     1      18.064  48.368  48.435  1.00  0.00     0.101 A 
ENDROOT
BRANCH   1  11
HETATM   11  C   UNL     1      21.174  48.154  47.545  1.00  0.00    -0.030 A 
HETATM   12  C   UNL     1      22.042  47.429  48.382  1.00  0.00     0.012 A 
HETATM   13  C   UNL     1      23.178  48.029  48.923  1.00  0.00     0.037 A 
HETATM   14  C   UNL     1      23.466  49.355  48.622  1.00  0.00     0.069 A 
HETATM   15  C   UNL     1      22.579  50.118  47.866  1.00  0.00     0.037 A 
HETATM   16  C   UNL     1      21.437  49.519  47.329  1.00  0.00     0.012 A 
BRANCH  14  17
HETATM   17  O   UNL     1      24.647  49.865  49.089  1.00  0.00    -0.348 OA
BRANCH  17  18
HETATM   18  C   UNL     1      25.648  49.865  48.061  1.00  0.00     0.202 C 
BRANCH  18  19
HETATM   19  C   UNL     1      26.990  49.870  48.731  1.00  0.00    -0.011 C 
HETATM   20  C   UNL     1      27.681  48.774  49.072  1.00  0.00     0.009 C 
ENDBRANCH  18  19
ENDBRANCH  17  18
ENDBRANCH  14  17
ENDBRANCH   1  11
BRANCH   2  21
HETATM   21  C   UNL     1      21.144  45.316  45.823  1.00  0.00     0.167 C 
BRANCH  21  22
HETATM   22  C   UNL     1      20.874  45.742  44.406  1.00  0.00    -0.023 A 
HETATM   23  C   UNL     1      21.880  45.734  43.446  1.00  0.00     0.125 A 
HETATM   24  N   UNL     1      21.712  46.139  42.167  1.00  0.00    -0.273 NA
HETATM   25  C   UNL     1      20.481  46.571  41.822  1.00  0.00     0.116 A 
HETATM   26  C   UNL     1      19.409  46.617  42.698  1.00  0.00     0.020 A 
HETATM   27  C   UNL     1      19.613  46.197  44.008  1.00  0.00     0.012 A 
ENDBRANCH  21  22
ENDBRANCH   2  21
BRANCH  10  28
HETATM   28  C   UNL     1      18.201  49.814  48.556  1.00  0.00     0.028 A 
HETATM   29  C   UNL     1      17.921  50.682  47.493  1.00  0.00     0.078 A 
HETATM   30  C   UNL     1      18.199  52.044  47.591  1.00  0.00     0.037 A 
HETATM   31  C   UNL     1      18.734  52.561  48.770  1.00  0.00     0.003 A 
HETATM   32  C   UNL     1      18.987  51.716  49.850  1.00  0.00     0.001 A 
HETATM   33  C   UNL     1      18.722  50.348  49.743  1.00  0.00     0.017 A 
BRANCH  29  34
HETATM   34  O   UNL     1      17.362  50.258  46.316  1.00  0.00    -0.360 OA
HETATM   35  H   UNL     1      16.501  50.707  46.230  1.00  0.00     0.217 HD
ENDBRANCH  29  34
ENDBRANCH  10  28
TORSDOF 8
ENDMDL
