MODEL 1
REMARK VINA RESULT:      -8.9      0.000      0.000
REMARK  12 active torsions:
REMARK  status: ('A' for Active; 'I' for Inactive)
REMARK    1  A    between atoms: C_2  and  C_3 
REMARK    2  A    between atoms: C_3  and  N_4 
REMARK    3  A    between atoms: C_3  and  C_25 
REMARK    4  A    between atoms: N_4  and  C_6 
REMARK    5  A    between atoms: N_4  and  C_21 
REMARK    6  A    between atoms: C_6  and  C_7 
REMARK    7  A    between atoms: C_8  and  O_9 
REMARK    8  A    between atoms: C_21  and  C_22 
REMARK    9  A    between atoms: C_22  and  C_23 
REMARK   10  A    between atoms: C_23  and  O_24 
REMARK   11  A    between atoms: N_26  and  C_27 
REMARK   12  A    between atoms: C_27  and  C_28 
ROOT
HETATM    1  N   UNL     1      23.690  45.088  50.359  1.00  0.00    -0.055 N 
HETATM    2  H   UNL     1      23.158  45.646  51.035  1.00  0.00     0.281 HD
ENDROOT
BRANCH   1   3
HETATM    3  C   UNL     1      24.954  44.751  51.199  1.00  0.00     0.263 C 
BRANCH   3   4
HETATM    4  C   UNL     1      26.192  44.303  50.362  1.00  0.00     0.016 C 
HETATM    5  C   UNL     1      26.259  42.769  50.262  1.00  0.00     0.012 C 
HETATM    6  C   UNL     1      27.554  44.814  50.824  1.00  0.00     0.012 C 
ENDBRANCH   3   4
BRANCH   3   7
HETATM    7  C   UNL     1      25.266  45.752  52.271  1.00  0.00     0.168 A 
HETATM    8  N   UNL     1      25.560  45.493  53.593  1.00  0.00    -0.257 N 
HETATM    9  N   UNL     1      25.722  46.654  54.247  1.00  0.00    -0.003 NA
HETATM   10  N   UNL     1      25.560  47.603  53.343  1.00  0.00     0.018 NA
HETATM   11  N   UNL     1      25.282  47.062  52.122  1.00  0.00    -0.145 NA
BRANCH   8  12
HETATM   12  C   UNL     1      25.733  44.248  54.322  1.00  0.00     0.186 C 
BRANCH  12  13
HETATM   13  C   UNL     1      27.164  43.774  54.342  1.00  0.00    -0.039 A 
HETATM   14  C   UNL     1      27.496  42.532  53.777  1.00  0.00     0.009 A 
HETATM   15  C   UNL     1      28.822  42.099  53.744  1.00  0.00     0.001 A 
HETATM   16  C   UNL     1      29.832  42.906  54.263  1.00  0.00     0.000 A 
HETATM   17  C   UNL     1      29.519  44.149  54.808  1.00  0.00     0.001 A 
HETATM   18  C   UNL     1      28.194  44.587  54.843  1.00  0.00     0.009 A 
ENDBRANCH  12  13
ENDBRANCH   8  12
ENDBRANCH   3   7
ENDBRANCH   1   3
BRANCH   1  19
HETATM   19  C   UNL     1      23.772  46.092  49.201  1.00  0.00     0.278 C 
BRANCH  19  20
HETATM   20  C   UNL     1      23.107  47.433  49.226  1.00  0.00     0.021 A 
HETATM   21  C   UNL     1      23.789  48.618  49.429  1.00  0.00     0.170 A 
HETATM   22  N   UNL     1      23.275  49.857  49.372  1.00  0.00    -0.224 NA
HETATM   23  C   UNL     1      21.984  49.983  49.026  1.00  0.00     0.072 A 
HETATM   24  C   UNL     1      21.174  48.850  48.750  1.00  0.00    -0.004 A 
HETATM   25  C   UNL     1      21.435  51.254  48.903  1.00  0.00     0.072 A 
HETATM   26  C   UNL     1      21.760  47.578  48.869  1.00  0.00     0.027 A 
HETATM   27  C   UNL     1      19.836  49.007  48.341  1.00  0.00     0.053 A 
HETATM   28  C   UNL     1      19.349  50.287  48.208  1.00  0.00     0.106 A 
HETATM   29  C   UNL     1      20.126  51.381  48.487  1.00  0.00     0.107 A 
HETATM   30  O   UNL     1      18.102  50.628  47.791  1.00  0.00    -0.323 OA
HETATM   31  O   UNL     1      19.467  52.552  48.283  1.00  0.00    -0.323 OA
HETATM   32  C   UNL     1      18.194  52.069  47.801  1.00  0.00     0.352 A 
BRANCH  21  33
HETATM   33  O   UNL     1      25.118  48.635  49.672  1.00  0.00    -0.344 OA
HETATM   34  H   UNL     1      25.115  48.860  50.625  1.00  0.00     0.219 HD
ENDBRANCH  21  33
ENDBRANCH  19  20
ENDBRANCH   1  19
BRANCH   1  35
HETATM   35  C   UNL     1      22.782  43.885  50.131  1.00  0.00     0.238 C 
BRANCH  35  36
HETATM   36  C   UNL     1      22.456  43.682  48.650  1.00  0.00     0.054 C 
BRANCH  36  37
HETATM   37  C   UNL     1      23.285  42.556  48.042  1.00  0.00     0.165 C 
BRANCH  37  38
HETATM   38  O   UNL     1      24.252  43.109  47.167  1.00  0.00    -0.401 OA
HETATM   39  H   UNL     1      23.773  43.597  46.469  1.00  0.00     0.209 HD
ENDBRANCH  37  38
ENDBRANCH  36  37
ENDBRANCH  35  36
ENDBRANCH   1  35
TORSDOF 12
ENDMDL
MODEL 2
REMARK VINA RESULT:      -8.6      2.146      3.520
REMARK  12 active torsions:
REMARK  status: ('A' for Active; 'I' for Inactive)
REMARK    1  A    between atoms: C_2  and  C_3 
REMARK    2  A    between atoms: C_3  and  N_4 
REMARK    3  A    between atoms: C_3  and  C_25 
REMARK    4  A    between atoms: N_4  and  C_6 
REMARK    5  A    between atoms: N_4  and  C_21 
REMARK    6  A    between atoms: C_6  and  C_7 
REMARK    7  A    between atoms: C_8  and  O_9 
REMARK    8  A    between atoms: C_21  and  C_22 
REMARK    9  A    between atoms: C_22  and  C_23 
REMARK   10  A    between atoms: C_23  and  O_24 
REMARK   11  A    between atoms: N_26  and  C_27 
REMARK   12  A    between atoms: C_27  and  C_28 
ROOT
HETATM    1  N   UNL     1      26.108  46.355  51.609  1.00  0.00    -0.055 N 
HETATM    2  H   UNL     1      27.100  46.155  51.783  1.00  0.00     0.281 HD
ENDROOT
BRANCH   1   3
HETATM    3  C   UNL     1      25.494  44.940  51.800  1.00  0.00     0.263 C 
BRANCH   3   4
HETATM    4  C   UNL     1      25.825  43.927  50.660  1.00  0.00     0.016 C 
HETATM    5  C   UNL     1      25.188  42.556  50.946  1.00  0.00     0.012 C 
HETATM    6  C   UNL     1      27.302  43.713  50.340  1.00  0.00     0.012 C 
ENDBRANCH   3   4
BRANCH   3   7
HETATM    7  C   UNL     1      25.651  44.382  53.183  1.00  0.00     0.168 A 
HETATM    8  N   UNL     1      26.826  44.025  53.809  1.00  0.00    -0.257 N 
HETATM    9  N   UNL     1      26.547  43.512  55.018  1.00  0.00    -0.003 NA
HETATM   10  N   UNL     1      25.234  43.579  55.144  1.00  0.00     0.018 NA
HETATM   11  N   UNL     1      24.670  44.115  54.023  1.00  0.00    -0.145 NA
BRANCH   8  12
HETATM   12  C   UNL     1      28.216  44.135  53.399  1.00  0.00     0.186 C 
BRANCH  12  13
HETATM   13  C   UNL     1      29.168  44.200  54.567  1.00  0.00    -0.039 A 
HETATM   14  C   UNL     1      30.033  43.124  54.823  1.00  0.00     0.009 A 
HETATM   15  C   UNL     1      30.953  43.187  55.870  1.00  0.00     0.001 A 
HETATM   16  C   UNL     1      31.028  44.329  56.665  1.00  0.00     0.000 A 
HETATM   17  C   UNL     1      30.189  45.411  56.409  1.00  0.00     0.001 A 
HETATM   18  C   UNL     1      29.267  45.353  55.363  1.00  0.00     0.009 A 
ENDBRANCH  12  13
ENDBRANCH   8  12
ENDBRANCH   3   7
ENDBRANCH   1   3
BRANCH   1  19
HETATM   19  C   UNL     1      26.212  46.974  50.208  1.00  0.00     0.278 C 
BRANCH  19  20
HETATM   20  C   UNL     1      25.198  47.923  49.650  1.00  0.00     0.021 A 
HETATM   21  C   UNL     1      25.529  49.076  48.963  1.00  0.00     0.170 A 
HETATM   22  N   UNL     1      24.677  49.919  48.358  1.00  0.00    -0.224 NA
HETATM   23  C   UNL     1      23.374  49.598  48.358  1.00  0.00     0.072 A 
HETATM   24  C   UNL     1      22.897  48.420  48.991  1.00  0.00    -0.004 A 
HETATM   25  C   UNL     1      22.473  50.420  47.692  1.00  0.00     0.072 A 
HETATM   26  C   UNL     1      23.835  47.601  49.644  1.00  0.00     0.027 A 
HETATM   27  C   UNL     1      21.534  48.077  48.936  1.00  0.00     0.053 A 
HETATM   28  C   UNL     1      20.688  48.910  48.241  1.00  0.00     0.106 A 
HETATM   29  C   UNL     1      21.144  50.054  47.640  1.00  0.00     0.107 A 
HETATM   30  O   UNL     1      19.356  48.720  48.052  1.00  0.00    -0.323 OA
HETATM   31  O   UNL     1      20.157  50.731  46.996  1.00  0.00    -0.323 OA
HETATM   32  C   UNL     1      19.030  49.859  47.226  1.00  0.00     0.352 A 
BRANCH  21  33
HETATM   33  O   UNL     1      26.815  49.451  48.793  1.00  0.00    -0.344 OA
HETATM   34  H   UNL     1      27.066  49.628  49.723  1.00  0.00     0.219 HD
ENDBRANCH  21  33
ENDBRANCH  19  20
ENDBRANCH   1  19
BRANCH   1  35
HETATM   35  C   UNL     1      25.759  47.319  52.737  1.00  0.00     0.238 C 
BRANCH  35  36
HETATM   36  C   UNL     1      26.910  47.485  53.730  1.00  0.00     0.054 C 
BRANCH  36  37
HETATM   37  C   UNL     1      26.400  47.788  55.134  1.00  0.00     0.165 C 
BRANCH  37  38
HETATM   38  O   UNL     1      25.495  48.876  55.077  1.00  0.00    -0.401 OA
HETATM   39  H   UNL     1      24.947  48.846  55.886  1.00  0.00     0.209 HD
ENDBRANCH  37  38
ENDBRANCH  36  37
ENDBRANCH  35  36
ENDBRANCH   1  35
TORSDOF 12
ENDMDL
MODEL 3
REMARK VINA RESULT:      -8.5     11.759     13.849
REMARK  12 active torsions:
REMARK  status: ('A' for Active; 'I' for Inactive)
REMARK    1  A    between atoms: C_2  and  C_3 
REMARK    2  A    between atoms: C_3  and  N_4 
REMARK    3  A    between atoms: C_3  and  C_25 
REMARK    4  A    between atoms: N_4  and  C_6 
REMARK    5  A    between atoms: N_4  and  C_21 
REMARK    6  A    between atoms: C_6  and  C_7 
REMARK    7  A    between atoms: C_8  and  O_9 
REMARK    8  A    between atoms: C_21  and  C_22 
REMARK    9  A    between atoms: C_22  and  C_23 
REMARK   10  A    between atoms: C_23  and  O_24 
REMARK   11  A    between atoms: N_26  and  C_27 
REMARK   12  A    between atoms: C_27  and  C_28 
ROOT
HETATM    1  N   UNL     1      26.138  48.976  38.989  1.00  0.00    -0.055 N 
HETATM    2  H   UNL     1      26.766  48.834  39.788  1.00  0.00     0.281 HD
ENDROOT
BRANCH   1   3
HETATM    3  C   UNL     1      26.168  47.560  38.347  1.00  0.00     0.263 C 
BRANCH   3   4
HETATM    4  C   UNL     1      26.587  47.535  36.845  1.00  0.00     0.016 C 
HETATM    5  C   UNL     1      25.466  48.103  35.956  1.00  0.00     0.012 C 
HETATM    6  C   UNL     1      27.014  46.186  36.274  1.00  0.00     0.012 C 
ENDBRANCH   3   4
BRANCH   3   7
HETATM    7  C   UNL     1      26.839  46.516  39.190  1.00  0.00     0.168 A 
HETATM    8  N   UNL     1      28.190  46.375  39.422  1.00  0.00    -0.257 N 
HETATM    9  N   UNL     1      28.399  45.286  40.180  1.00  0.00    -0.003 NA
HETATM   10  N   UNL     1      27.202  44.787  40.431  1.00  0.00     0.018 NA
HETATM   11  N   UNL     1      26.232  45.535  39.830  1.00  0.00    -0.145 NA
BRANCH   8  12
HETATM   12  C   UNL     1      29.332  47.180  39.024  1.00  0.00     0.186 C 
BRANCH  12  13
HETATM   13  C   UNL     1      30.076  47.764  40.198  1.00  0.00    -0.039 A 
HETATM   14  C   UNL     1      31.478  47.853  40.162  1.00  0.00     0.009 A 
HETATM   15  C   UNL     1      32.179  48.433  41.219  1.00  0.00     0.001 A 
HETATM   16  C   UNL     1      31.489  48.942  42.317  1.00  0.00     0.000 A 
HETATM   17  C   UNL     1      30.099  48.877  42.357  1.00  0.00     0.001 A 
HETATM   18  C   UNL     1      29.393  48.298  41.302  1.00  0.00     0.009 A 
ENDBRANCH  12  13
ENDBRANCH   8  12
ENDBRANCH   3   7
ENDBRANCH   1   3
BRANCH   1  19
HETATM   19  C   UNL     1      26.849  50.153  38.307  1.00  0.00     0.278 C 
BRANCH  19  20
HETATM   20  C   UNL     1      28.051  50.833  38.883  1.00  0.00     0.021 A 
HETATM   21  C   UNL     1      28.064  51.436  40.127  1.00  0.00     0.170 A 
HETATM   22  N   UNL     1      29.126  51.981  40.742  1.00  0.00    -0.224 NA
HETATM   23  C   UNL     1      30.317  51.888  40.131  1.00  0.00     0.072 A 
HETATM   24  C   UNL     1      30.458  51.259  38.866  1.00  0.00    -0.004 A 
HETATM   25  C   UNL     1      31.447  52.391  40.766  1.00  0.00     0.072 A 
HETATM   26  C   UNL     1      29.301  50.746  38.255  1.00  0.00     0.027 A 
HETATM   27  C   UNL     1      31.724  51.129  38.266  1.00  0.00     0.053 A 
HETATM   28  C   UNL     1      32.814  51.619  38.949  1.00  0.00     0.106 A 
HETATM   29  C   UNL     1      32.678  52.239  40.163  1.00  0.00     0.107 A 
HETATM   30  O   UNL     1      34.109  51.550  38.542  1.00  0.00    -0.323 OA
HETATM   31  O   UNL     1      33.870  52.641  40.677  1.00  0.00    -0.323 OA
HETATM   32  C   UNL     1      34.781  52.165  39.663  1.00  0.00     0.352 A 
BRANCH  21  33
HETATM   33  O   UNL     1      26.954  51.492  40.895  1.00  0.00    -0.344 OA
HETATM   34  H   UNL     1      26.274  51.631  40.203  1.00  0.00     0.219 HD
ENDBRANCH  21  33
ENDBRANCH  19  20
ENDBRANCH   1  19
BRANCH   1  35
HETATM   35  C   UNL     1      24.810  49.302  39.662  1.00  0.00     0.238 C 
BRANCH  35  36
HETATM   36  C   UNL     1      23.620  48.705  38.908  1.00  0.00     0.054 C 
BRANCH  36  37
HETATM   37  C   UNL     1      22.739  49.790  38.302  1.00  0.00     0.165 C 
BRANCH  37  38
HETATM   38  O   UNL     1      23.529  50.933  38.026  1.00  0.00    -0.401 OA
HETATM   39  H   UNL     1      23.132  51.688  38.503  1.00  0.00     0.209 HD
ENDBRANCH  37  38
ENDBRANCH  36  37
ENDBRANCH  35  36
ENDBRANCH   1  35
TORSDOF 12
ENDMDL
MODEL 4
REMARK VINA RESULT:      -8.4      3.242      9.509
REMARK  12 active torsions:
REMARK  status: ('A' for Active; 'I' for Inactive)
REMARK    1  A    between atoms: C_2  and  C_3 
REMARK    2  A    between atoms: C_3  and  N_4 
REMARK    3  A    between atoms: C_3  and  C_25 
REMARK    4  A    between atoms: N_4  and  C_6 
REMARK    5  A    between atoms: N_4  and  C_21 
REMARK    6  A    between atoms: C_6  and  C_7 
REMARK    7  A    between atoms: C_8  and  O_9 
REMARK    8  A    between atoms: C_21  and  C_22 
REMARK    9  A    between atoms: C_22  and  C_23 
REMARK   10  A    between atoms: C_23  and  O_24 
REMARK   11  A    between atoms: N_26  and  C_27 
REMARK   12  A    between atoms: C_27  and  C_28 
ROOT
HETATM    1  N   UNL     1      25.321  46.909  50.911  1.00  0.00    -0.055 N 
HETATM    2  H   UNL     1      24.498  47.521  50.932  1.00  0.00     0.281 HD
ENDROOT
BRANCH   1   3
HETATM    3  C   UNL     1      25.013  46.060  49.646  1.00  0.00     0.263 C 
BRANCH   3   4
HETATM    4  C   UNL     1      25.551  44.596  49.698  1.00  0.00     0.016 C 
HETATM    5  C   UNL     1      24.872  43.804  50.829  1.00  0.00     0.012 C 
HETATM    6  C   UNL     1      27.062  44.425  49.832  1.00  0.00     0.012 C 
ENDBRANCH   3   4
BRANCH   3   7
HETATM    7  C   UNL     1      23.602  46.179  49.151  1.00  0.00     0.168 A 
HETATM    8  N   UNL     1      22.949  47.330  48.767  1.00  0.00    -0.257 N 
HETATM    9  N   UNL     1      21.680  47.033  48.444  1.00  0.00    -0.003 NA
HETATM   10  N   UNL     1      21.566  45.726  48.597  1.00  0.00     0.018 NA
HETATM   11  N   UNL     1      22.741  45.187  49.029  1.00  0.00    -0.145 NA
BRANCH   8  12
HETATM   12  C   UNL     1      23.399  48.706  48.645  1.00  0.00     0.186 C 
BRANCH  12  13
HETATM   13  C   UNL     1      22.276  49.704  48.783  1.00  0.00    -0.039 A 
HETATM   14  C   UNL     1      21.537  50.084  47.650  1.00  0.00     0.009 A 
HETATM   15  C   UNL     1      20.466  50.969  47.766  1.00  0.00     0.001 A 
HETATM   16  C   UNL     1      20.111  51.475  49.015  1.00  0.00     0.000 A 
HETATM   17  C   UNL     1      20.823  51.092  50.149  1.00  0.00     0.001 A 
HETATM   18  C   UNL     1      21.896  50.206  50.038  1.00  0.00     0.009 A 
ENDBRANCH  12  13
ENDBRANCH   8  12
ENDBRANCH   3   7
ENDBRANCH   1   3
BRANCH   1  19
HETATM   19  C   UNL     1      25.215  46.286  52.310  1.00  0.00     0.278 C 
BRANCH  19  20
HETATM   20  C   UNL     1      26.336  46.294  53.301  1.00  0.00     0.021 A 
HETATM   21  C   UNL     1      26.446  47.223  54.320  1.00  0.00     0.170 A 
HETATM   22  N   UNL     1      27.368  47.235  55.296  1.00  0.00    -0.224 NA
HETATM   23  C   UNL     1      28.245  46.219  55.339  1.00  0.00     0.072 A 
HETATM   24  C   UNL     1      28.222  45.174  54.379  1.00  0.00    -0.004 A 
HETATM   25  C   UNL     1      29.177  46.171  56.369  1.00  0.00     0.072 A 
HETATM   26  C   UNL     1      27.258  45.241  53.358  1.00  0.00     0.027 A 
HETATM   27  C   UNL     1      29.118  44.093  54.473  1.00  0.00     0.053 A 
HETATM   28  C   UNL     1      30.002  44.079  55.527  1.00  0.00     0.106 A 
HETATM   29  C   UNL     1      30.035  45.094  56.447  1.00  0.00     0.107 A 
HETATM   30  O   UNL     1      30.910  43.104  55.796  1.00  0.00    -0.323 OA
HETATM   31  O   UNL     1      30.968  44.888  57.414  1.00  0.00    -0.323 OA
HETATM   32  C   UNL     1      31.494  43.603  57.019  1.00  0.00     0.352 A 
BRANCH  21  33
HETATM   33  O   UNL     1      25.557  48.231  54.456  1.00  0.00    -0.344 OA
HETATM   34  H   UNL     1      25.653  48.416  55.413  1.00  0.00     0.219 HD
ENDBRANCH  21  33
ENDBRANCH  19  20
ENDBRANCH   1  19
BRANCH   1  35
HETATM   35  C   UNL     1      26.465  47.896  50.709  1.00  0.00     0.238 C 
BRANCH  35  36
HETATM   36  C   UNL     1      26.906  47.974  49.246  1.00  0.00     0.054 C 
BRANCH  36  37
HETATM   37  C   UNL     1      27.094  49.417  48.793  1.00  0.00     0.165 C 
BRANCH  37  38
HETATM   38  O   UNL     1      28.441  49.801  49.005  1.00  0.00    -0.401 OA
HETATM   39  H   UNL     1      28.437  50.557  49.624  1.00  0.00     0.209 HD
ENDBRANCH  37  38
ENDBRANCH  36  37
ENDBRANCH  35  36
ENDBRANCH   1  35
TORSDOF 12
ENDMDL
MODEL 5
REMARK VINA RESULT:      -8.4      2.571      3.768
REMARK  12 active torsions:
REMARK  status: ('A' for Active; 'I' for Inactive)
REMARK    1  A    between atoms: C_2  and  C_3 
REMARK    2  A    between atoms: C_3  and  N_4 
REMARK    3  A    between atoms: C_3  and  C_25 
REMARK    4  A    between atoms: N_4  and  C_6 
REMARK    5  A    between atoms: N_4  and  C_21 
REMARK    6  A    between atoms: C_6  and  C_7 
REMARK    7  A    between atoms: C_8  and  O_9 
REMARK    8  A    between atoms: C_21  and  C_22 
REMARK    9  A    between atoms: C_22  and  C_23 
REMARK   10  A    between atoms: C_23  and  O_24 
REMARK   11  A    between atoms: N_26  and  C_27 
REMARK   12  A    between atoms: C_27  and  C_28 
ROOT
HETATM    1  N   UNL     1      26.840  44.601  50.975  1.00  0.00    -0.055 N 
HETATM    2  H   UNL     1      25.876  44.911  51.140  1.00  0.00     0.281 HD
ENDROOT
BRANCH   1   3
HETATM    3  C   UNL     1      27.386  44.579  52.431  1.00  0.00     0.263 C 
BRANCH   3   4
HETATM    4  C   UNL     1      26.567  45.436  53.446  1.00  0.00     0.016 C 
HETATM    5  C   UNL     1      25.057  45.294  53.187  1.00  0.00     0.012 C 
HETATM    6  C   UNL     1      26.904  46.922  53.518  1.00  0.00     0.012 C 
ENDBRANCH   3   4
BRANCH   3   7
HETATM    7  C   UNL     1      27.750  43.213  52.932  1.00  0.00     0.168 A 
HETATM    8  N   UNL     1      28.968  42.807  53.432  1.00  0.00    -0.257 N 
HETATM    9  N   UNL     1      28.915  41.497  53.721  1.00  0.00    -0.003 NA
HETATM   10  N   UNL     1      27.685  41.114  53.432  1.00  0.00     0.018 NA
HETATM   11  N   UNL     1      26.956  42.161  52.948  1.00  0.00    -0.145 NA
BRANCH   8  12
HETATM   12  C   UNL     1      30.199  43.533  53.698  1.00  0.00     0.186 C 
BRANCH  12  13
HETATM   13  C   UNL     1      30.312  43.989  55.131  1.00  0.00    -0.039 A 
HETATM   14  C   UNL     1      31.187  43.326  56.008  1.00  0.00     0.009 A 
HETATM   15  C   UNL     1      31.340  43.763  57.323  1.00  0.00     0.001 A 
HETATM   16  C   UNL     1      30.631  44.874  57.775  1.00  0.00     0.000 A 
HETATM   17  C   UNL     1      29.775  45.553  56.911  1.00  0.00     0.001 A 
HETATM   18  C   UNL     1      29.619  45.119  55.594  1.00  0.00     0.009 A 
ENDBRANCH  12  13
ENDBRANCH   8  12
ENDBRANCH   3   7
ENDBRANCH   1   3
BRANCH   1  19
HETATM   19  C   UNL     1      27.296  45.687  49.991  1.00  0.00     0.278 C 
BRANCH  19  20
HETATM   20  C   UNL     1      26.498  46.919  49.697  1.00  0.00     0.021 A 
HETATM   21  C   UNL     1      27.028  48.044  49.092  1.00  0.00     0.170 A 
HETATM   22  N   UNL     1      26.354  49.142  48.716  1.00  0.00    -0.224 NA
HETATM   23  C   UNL     1      25.022  49.145  48.880  1.00  0.00     0.072 A 
HETATM   24  C   UNL     1      24.340  48.039  49.452  1.00  0.00    -0.004 A 
HETATM   25  C   UNL     1      24.287  50.244  48.450  1.00  0.00     0.072 A 
HETATM   26  C   UNL     1      25.108  46.936  49.864  1.00  0.00     0.027 A 
HETATM   27  C   UNL     1      22.938  48.043  49.570  1.00  0.00     0.053 A 
HETATM   28  C   UNL     1      22.255  49.143  49.103  1.00  0.00     0.106 A 
HETATM   29  C   UNL     1      22.913  50.217  48.563  1.00  0.00     0.107 A 
HETATM   30  O   UNL     1      20.906  49.305  49.101  1.00  0.00    -0.323 OA
HETATM   31  O   UNL     1      22.062  51.194  48.152  1.00  0.00    -0.323 OA
HETATM   32  C   UNL     1      20.786  50.593  48.458  1.00  0.00     0.352 A 
BRANCH  21  33
HETATM   33  O   UNL     1      28.337  48.121  48.768  1.00  0.00    -0.344 OA
HETATM   34  H   UNL     1      28.604  47.189  48.913  1.00  0.00     0.219 HD
ENDBRANCH  21  33
ENDBRANCH  19  20
ENDBRANCH   1  19
BRANCH   1  35
HETATM   35  C   UNL     1      26.647  43.209  50.385  1.00  0.00     0.238 C 
BRANCH  35  36
HETATM   36  C   UNL     1      25.449  43.148  49.435  1.00  0.00     0.054 C 
BRANCH  36  37
HETATM   37  C   UNL     1      24.128  43.200  50.194  1.00  0.00     0.165 C 
BRANCH  37  38
HETATM   38  O   UNL     1      24.303  42.620  51.475  1.00  0.00    -0.401 OA
HETATM   39  H   UNL     1      25.112  43.006  51.865  1.00  0.00     0.209 HD
ENDBRANCH  37  38
ENDBRANCH  36  37
ENDBRANCH  35  36
ENDBRANCH   1  35
TORSDOF 12
ENDMDL
MODEL 6
REMARK VINA RESULT:      -8.3      4.239      8.712
REMARK  12 active torsions:
REMARK  status: ('A' for Active; 'I' for Inactive)
REMARK    1  A    between atoms: C_2  and  C_3 
REMARK    2  A    between atoms: C_3  and  N_4 
REMARK    3  A    between atoms: C_3  and  C_25 
REMARK    4  A    between atoms: N_4  and  C_6 
REMARK    5  A    between atoms: N_4  and  C_21 
REMARK    6  A    between atoms: C_6  and  C_7 
REMARK    7  A    between atoms: C_8  and  O_9 
REMARK    8  A    between atoms: C_21  and  C_22 
REMARK    9  A    between atoms: C_22  and  C_23 
REMARK   10  A    between atoms: C_23  and  O_24 
REMARK   11  A    between atoms: N_26  and  C_27 
REMARK   12  A    between atoms: C_27  and  C_28 
ROOT
HETATM    1  N   UNL     1      26.513  43.652  50.404  1.00  0.00    -0.055 N 
HETATM    2  H   UNL     1      27.307  43.878  49.796  1.00  0.00     0.281 HD
ENDROOT
BRANCH   1   3
HETATM    3  C   UNL     1      26.407  44.963  51.234  1.00  0.00     0.263 C 
BRANCH   3   4
HETATM    4  C   UNL     1      25.784  46.170  50.468  1.00  0.00     0.016 C 
HETATM    5  C   UNL     1      26.853  46.900  49.636  1.00  0.00     0.012 C 
HETATM    6  C   UNL     1      25.040  47.205  51.307  1.00  0.00     0.012 C 
ENDBRANCH   3   4
BRANCH   3   7
HETATM    7  C   UNL     1      25.871  44.771  52.622  1.00  0.00     0.168 A 
HETATM    8  N   UNL     1      26.472  45.141  53.805  1.00  0.00    -0.257 N 
HETATM    9  N   UNL     1      25.705  44.747  54.835  1.00  0.00    -0.003 NA
HETATM   10  N   UNL     1      24.644  44.175  54.295  1.00  0.00     0.018 NA
HETATM   11  N   UNL     1      24.731  44.185  52.934  1.00  0.00    -0.145 NA
BRANCH   8  12
HETATM   12  C   UNL     1      27.703  45.860  54.085  1.00  0.00     0.186 C 
BRANCH  12  13
HETATM   13  C   UNL     1      28.783  44.974  54.653  1.00  0.00    -0.039 A 
HETATM   14  C   UNL     1      29.100  43.763  54.015  1.00  0.00     0.009 A 
HETATM   15  C   UNL     1      30.127  42.953  54.499  1.00  0.00     0.001 A 
HETATM   16  C   UNL     1      30.859  43.349  55.616  1.00  0.00     0.000 A 
HETATM   17  C   UNL     1      30.569  44.557  56.246  1.00  0.00     0.001 A 
HETATM   18  C   UNL     1      29.542  45.370  55.766  1.00  0.00     0.009 A 
ENDBRANCH  12  13
ENDBRANCH   8  12
ENDBRANCH   3   7
ENDBRANCH   1   3
BRANCH   1  19
HETATM   19  C   UNL     1      27.040  42.364  51.050  1.00  0.00     0.278 C 
BRANCH  19  20
HETATM   20  C   UNL     1      27.667  41.250  50.271  1.00  0.00     0.021 A 
HETATM   21  C   UNL     1      28.364  40.208  50.856  1.00  0.00     0.170 A 
HETATM   22  N   UNL     1      28.870  39.133  50.231  1.00  0.00    -0.224 NA
HETATM   23  C   UNL     1      28.636  39.007  48.915  1.00  0.00     0.072 A 
HETATM   24  C   UNL     1      27.899  39.983  48.194  1.00  0.00    -0.004 A 
HETATM   25  C   UNL     1      29.097  37.878  48.249  1.00  0.00     0.072 A 
HETATM   26  C   UNL     1      27.432  41.107  48.897  1.00  0.00     0.027 A 
HETATM   27  C   UNL     1      27.623  39.807  46.825  1.00  0.00     0.053 A 
HETATM   28  C   UNL     1      28.078  38.658  46.219  1.00  0.00     0.106 A 
HETATM   29  C   UNL     1      28.801  37.722  46.911  1.00  0.00     0.107 A 
HETATM   30  O   UNL     1      27.876  38.305  44.923  1.00  0.00    -0.323 OA
HETATM   31  O   UNL     1      29.147  36.659  46.139  1.00  0.00    -0.323 OA
HETATM   32  C   UNL     1      28.522  37.014  44.886  1.00  0.00     0.352 A 
BRANCH  21  33
HETATM   33  O   UNL     1      28.568  40.157  52.191  1.00  0.00    -0.344 OA
HETATM   34  H   UNL     1      27.741  39.716  52.473  1.00  0.00     0.219 HD
ENDBRANCH  21  33
ENDBRANCH  19  20
ENDBRANCH   1  19
BRANCH   1  35
HETATM   35  C   UNL     1      25.370  43.477  49.410  1.00  0.00     0.238 C 
BRANCH  35  36
HETATM   36  C   UNL     1      24.256  42.587  49.964  1.00  0.00     0.054 C 
BRANCH  36  37
HETATM   37  C   UNL     1      22.891  43.253  49.836  1.00  0.00     0.165 C 
BRANCH  37  38
HETATM   38  O   UNL     1      22.770  44.263  50.822  1.00  0.00    -0.401 OA
HETATM   39  H   UNL     1      23.207  43.937  51.632  1.00  0.00     0.209 HD
ENDBRANCH  37  38
ENDBRANCH  36  37
ENDBRANCH  35  36
ENDBRANCH   1  35
TORSDOF 12
ENDMDL
MODEL 7
REMARK VINA RESULT:      -8.2     12.677     15.681
REMARK  12 active torsions:
REMARK  status: ('A' for Active; 'I' for Inactive)
REMARK    1  A    between atoms: C_2  and  C_3 
REMARK    2  A    between atoms: C_3  and  N_4 
REMARK    3  A    between atoms: C_3  and  C_25 
REMARK    4  A    between atoms: N_4  and  C_6 
REMARK    5  A    between atoms: N_4  and  C_21 
REMARK    6  A    between atoms: C_6  and  C_7 
REMARK    7  A    between atoms: C_8  and  O_9 
REMARK    8  A    between atoms: C_21  and  C_22 
REMARK    9  A    between atoms: C_22  and  C_23 
REMARK   10  A    between atoms: C_23  and  O_24 
REMARK   11  A    between atoms: N_26  and  C_27 
REMARK   12  A    between atoms: C_27  and  C_28 
ROOT
HETATM    1  N   UNL     1      31.165  50.017  41.739  1.00  0.00    -0.055 N 
HETATM    2  H   UNL     1      31.877  49.829  41.025  1.00  0.00     0.281 HD
ENDROOT
BRANCH   1   3
HETATM    3  C   UNL     1      30.211  50.958  40.952  1.00  0.00     0.263 C 
BRANCH   3   4
HETATM    4  C   UNL     1      29.907  52.316  41.657  1.00  0.00     0.016 C 
HETATM    5  C   UNL     1      28.412  52.666  41.548  1.00  0.00     0.012 C 
HETATM    6  C   UNL     1      30.717  53.524  41.198  1.00  0.00     0.012 C 
ENDBRANCH   3   4
BRANCH   3   7
HETATM    7  C   UNL     1      30.534  51.082  39.492  1.00  0.00     0.168 A 
HETATM    8  N   UNL     1      29.641  51.172  38.446  1.00  0.00    -0.257 N 
HETATM    9  N   UNL     1      30.318  51.210  37.287  1.00  0.00    -0.003 NA
HETATM   10  N   UNL     1      31.596  51.174  37.615  1.00  0.00     0.018 NA
HETATM   11  N   UNL     1      31.744  51.097  38.969  1.00  0.00    -0.145 NA
BRANCH   8  12
HETATM   12  C   UNL     1      28.191  51.252  38.413  1.00  0.00     0.186 C 
BRANCH  12  13
HETATM   13  C   UNL     1      27.523  49.950  38.781  1.00  0.00    -0.039 A 
HETATM   14  C   UNL     1      27.666  48.832  37.944  1.00  0.00     0.009 A 
HETATM   15  C   UNL     1      27.096  47.607  38.292  1.00  0.00     0.001 A 
HETATM   16  C   UNL     1      26.387  47.483  39.485  1.00  0.00     0.000 A 
HETATM   17  C   UNL     1      26.255  48.579  40.334  1.00  0.00     0.001 A 
HETATM   18  C   UNL     1      26.824  49.806  39.990  1.00  0.00     0.009 A 
ENDBRANCH  12  13
ENDBRANCH   8  12
ENDBRANCH   3   7
ENDBRANCH   1   3
BRANCH   1  19
HETATM   19  C   UNL     1      32.061  50.575  42.854  1.00  0.00     0.278 C 
BRANCH  19  20
HETATM   20  C   UNL     1      33.522  50.849  42.678  1.00  0.00     0.021 A 
HETATM   21  C   UNL     1      34.242  50.455  41.564  1.00  0.00     0.170 A 
HETATM   22  N   UNL     1      35.525  50.745  41.298  1.00  0.00    -0.224 NA
HETATM   23  C   UNL     1      36.176  51.546  42.156  1.00  0.00     0.072 A 
HETATM   24  C   UNL     1      35.546  52.057  43.321  1.00  0.00    -0.004 A 
HETATM   25  C   UNL     1      37.488  51.912  41.881  1.00  0.00     0.072 A 
HETATM   26  C   UNL     1      34.213  51.682  43.566  1.00  0.00     0.027 A 
HETATM   27  C   UNL     1      36.231  52.935  44.181  1.00  0.00     0.053 A 
HETATM   28  C   UNL     1      37.519  53.288  43.849  1.00  0.00     0.106 A 
HETATM   29  C   UNL     1      38.133  52.785  42.732  1.00  0.00     0.107 A 
HETATM   30  O   UNL     1      38.315  54.148  44.538  1.00  0.00    -0.323 OA
HETATM   31  O   UNL     1      39.396  53.263  42.574  1.00  0.00    -0.323 OA
HETATM   32  C   UNL     1      39.493  54.160  43.702  1.00  0.00     0.352 A 
BRANCH  21  33
HETATM   33  O   UNL     1      33.670  49.741  40.570  1.00  0.00    -0.344 OA
HETATM   34  H   UNL     1      33.243  50.463  40.065  1.00  0.00     0.219 HD
ENDBRANCH  21  33
ENDBRANCH  19  20
ENDBRANCH   1  19
BRANCH   1  35
HETATM   35  C   UNL     1      30.573  48.635  41.993  1.00  0.00     0.238 C 
BRANCH  35  36
HETATM   36  C   UNL     1      30.006  48.009  40.718  1.00  0.00     0.054 C 
BRANCH  36  37
HETATM   37  C   UNL     1      31.111  47.468  39.819  1.00  0.00     0.165 C 
BRANCH  37  38
HETATM   38  O   UNL     1      32.320  47.400  40.556  1.00  0.00    -0.401 OA
HETATM   39  H   UNL     1      32.865  48.169  40.298  1.00  0.00     0.209 HD
ENDBRANCH  37  38
ENDBRANCH  36  37
ENDBRANCH  35  36
ENDBRANCH   1  35
TORSDOF 12
ENDMDL
MODEL 8
REMARK VINA RESULT:      -8.2      2.282      3.333
REMARK  12 active torsions:
REMARK  status: ('A' for Active; 'I' for Inactive)
REMARK    1  A    between atoms: C_2  and  C_3 
REMARK    2  A    between atoms: C_3  and  N_4 
REMARK    3  A    between atoms: C_3  and  C_25 
REMARK    4  A    between atoms: N_4  and  C_6 
REMARK    5  A    between atoms: N_4  and  C_21 
REMARK    6  A    between atoms: C_6  and  C_7 
REMARK    7  A    between atoms: C_8  and  O_9 
REMARK    8  A    between atoms: C_21  and  C_22 
REMARK    9  A    between atoms: C_22  and  C_23 
REMARK   10  A    between atoms: C_23  and  O_24 
REMARK   11  A    between atoms: N_26  and  C_27 
REMARK   12  A    between atoms: C_27  and  C_28 
ROOT
HETATM    1  N   UNL     1      25.030  44.293  50.472  1.00  0.00    -0.055 N 
HETATM    2  H   UNL     1      24.110  44.174  50.910  1.00  0.00     0.281 HD
ENDROOT
BRANCH   1   3
HETATM    3  C   UNL     1      25.760  45.128  51.561  1.00  0.00     0.263 C 
BRANCH   3   4
HETATM    4  C   UNL     1      25.423  46.652  51.548  1.00  0.00     0.016 C 
HETATM    5  C   UNL     1      26.251  47.385  50.478  1.00  0.00     0.012 C 
HETATM    6  C   UNL     1      25.576  47.400  52.869  1.00  0.00     0.012 C 
ENDBRANCH   3   4
BRANCH   3   7
HETATM    7  C   UNL     1      25.745  44.507  52.926  1.00  0.00     0.168 A 
HETATM    8  N   UNL     1      26.812  43.953  53.601  1.00  0.00    -0.257 N 
HETATM    9  N   UNL     1      26.385  43.450  54.770  1.00  0.00    -0.003 NA
HETATM   10  N   UNL     1      25.092  43.715  54.825  1.00  0.00     0.018 NA
HETATM   11  N   UNL     1      24.685  44.367  53.699  1.00  0.00    -0.145 NA
BRANCH   8  12
HETATM   12  C   UNL     1      28.225  43.862  53.274  1.00  0.00     0.186 C 
BRANCH  12  13
HETATM   13  C   UNL     1      29.118  44.082  54.468  1.00  0.00    -0.039 A 
HETATM   14  C   UNL     1      30.062  43.105  54.825  1.00  0.00     0.009 A 
HETATM   15  C   UNL     1      30.928  43.313  55.898  1.00  0.00     0.001 A 
HETATM   16  C   UNL     1      30.872  44.503  56.619  1.00  0.00     0.000 A 
HETATM   17  C   UNL     1      29.954  45.489  56.264  1.00  0.00     0.001 A 
HETATM   18  C   UNL     1      29.085  45.286  55.191  1.00  0.00     0.009 A 
ENDBRANCH  12  13
ENDBRANCH   8  12
ENDBRANCH   3   7
ENDBRANCH   1   3
BRANCH   1  19
HETATM   19  C   UNL     1      24.603  44.945  49.149  1.00  0.00     0.278 C 
BRANCH  19  20
HETATM   20  C   UNL     1      23.189  45.326  48.839  1.00  0.00     0.021 A 
HETATM   21  C   UNL     1      22.137  44.429  48.852  1.00  0.00     0.170 A 
HETATM   22  N   UNL     1      20.838  44.717  48.675  1.00  0.00    -0.224 NA
HETATM   23  C   UNL     1      20.498  46.007  48.529  1.00  0.00     0.072 A 
HETATM   24  C   UNL     1      21.472  47.039  48.537  1.00  0.00    -0.004 A 
HETATM   25  C   UNL     1      19.155  46.345  48.401  1.00  0.00     0.072 A 
HETATM   26  C   UNL     1      22.820  46.669  48.684  1.00  0.00     0.027 A 
HETATM   27  C   UNL     1      21.089  48.389  48.433  1.00  0.00     0.053 A 
HETATM   28  C   UNL     1      19.746  48.672  48.336  1.00  0.00     0.106 A 
HETATM   29  C   UNL     1      18.805  47.676  48.315  1.00  0.00     0.107 A 
HETATM   30  O   UNL     1      19.193  49.911  48.264  1.00  0.00    -0.323 OA
HETATM   31  O   UNL     1      17.538  48.160  48.226  1.00  0.00    -0.323 OA
HETATM   32  C   UNL     1      17.787  49.583  48.235  1.00  0.00     0.352 A 
BRANCH  21  33
HETATM   33  O   UNL     1      22.332  43.116  49.102  1.00  0.00    -0.344 OA
HETATM   34  H   UNL     1      22.776  42.848  48.270  1.00  0.00     0.219 HD
ENDBRANCH  21  33
ENDBRANCH  19  20
ENDBRANCH   1  19
BRANCH   1  35
HETATM   35  C   UNL     1      25.541  42.860  50.371  1.00  0.00     0.238 C 
BRANCH  35  36
HETATM   36  C   UNL     1      27.022  42.802  49.993  1.00  0.00     0.054 C 
BRANCH  36  37
HETATM   37  C   UNL     1      27.323  41.614  49.087  1.00  0.00     0.165 C 
BRANCH  37  38
HETATM   38  O   UNL     1      27.064  41.975  47.742  1.00  0.00    -0.401 OA
HETATM   39  H   UNL     1      26.534  41.259  47.342  1.00  0.00     0.209 HD
ENDBRANCH  37  38
ENDBRANCH  36  37
ENDBRANCH  35  36
ENDBRANCH   1  35
TORSDOF 12
ENDMDL
MODEL 9
REMARK VINA RESULT:      -8.0      1.783      2.114
REMARK  12 active torsions:
REMARK  status: ('A' for Active; 'I' for Inactive)
REMARK    1  A    between atoms: C_2  and  C_3 
REMARK    2  A    between atoms: C_3  and  N_4 
REMARK    3  A    between atoms: C_3  and  C_25 
REMARK    4  A    between atoms: N_4  and  C_6 
REMARK    5  A    between atoms: N_4  and  C_21 
REMARK    6  A    between atoms: C_6  and  C_7 
REMARK    7  A    between atoms: C_8  and  O_9 
REMARK    8  A    between atoms: C_21  and  C_22 
REMARK    9  A    between atoms: C_22  and  C_23 
REMARK   10  A    between atoms: C_23  and  O_24 
REMARK   11  A    between atoms: N_26  and  C_27 
REMARK   12  A    between atoms: C_27  and  C_28 
ROOT
HETATM    1  N   UNL     1      22.631  45.627  49.493  1.00  0.00    -0.055 N 
HETATM    2  H   UNL     1      22.026  45.917  50.270  1.00  0.00     0.281 HD
ENDROOT
BRANCH   1   3
HETATM    3  C   UNL     1      23.879  45.127  50.273  1.00  0.00     0.263 C 
BRANCH   3   4
HETATM    4  C   UNL     1      24.525  43.827  49.702  1.00  0.00     0.016 C 
HETATM    5  C   UNL     1      24.389  42.665  50.701  1.00  0.00     0.012 C 
HETATM    6  C   UNL     1      25.985  43.919  49.269  1.00  0.00     0.012 C 
ENDBRANCH   3   4
BRANCH   3   7
HETATM    7  C   UNL     1      24.864  46.204  50.615  1.00  0.00     0.168 A 
HETATM    8  N   UNL     1      25.451  46.437  51.841  1.00  0.00    -0.257 N 
HETATM    9  N   UNL     1      26.230  47.527  51.759  1.00  0.00    -0.003 NA
HETATM   10  N   UNL     1      26.147  47.937  50.506  1.00  0.00     0.018 NA
HETATM   11  N   UNL     1      25.312  47.131  49.790  1.00  0.00    -0.145 NA
BRANCH   8  12
HETATM   12  C   UNL     1      25.379  45.721  53.103  1.00  0.00     0.186 C 
BRANCH  12  13
HETATM   13  C   UNL     1      26.688  45.078  53.487  1.00  0.00    -0.039 A 
HETATM   14  C   UNL     1      27.297  44.160  52.617  1.00  0.00     0.009 A 
HETATM   15  C   UNL     1      28.531  43.592  52.935  1.00  0.00     0.001 A 
HETATM   16  C   UNL     1      29.176  43.943  54.118  1.00  0.00     0.000 A 
HETATM   17  C   UNL     1      28.592  44.867  54.981  1.00  0.00     0.001 A 
HETATM   18  C   UNL     1      27.358  45.439  54.668  1.00  0.00     0.009 A 
ENDBRANCH  12  13
ENDBRANCH   8  12
ENDBRANCH   3   7
ENDBRANCH   1   3
BRANCH   1  19
HETATM   19  C   UNL     1      22.683  46.942  48.703  1.00  0.00     0.278 C 
BRANCH  19  20
HETATM   20  C   UNL     1      21.886  48.155  49.069  1.00  0.00     0.021 A 
HETATM   21  C   UNL     1      22.455  49.378  49.373  1.00  0.00     0.170 A 
HETATM   22  N   UNL     1      21.802  50.525  49.618  1.00  0.00    -0.224 NA
HETATM   23  C   UNL     1      20.464  50.520  49.502  1.00  0.00     0.072 A 
HETATM   24  C   UNL     1      19.752  49.342  49.155  1.00  0.00    -0.004 A 
HETATM   25  C   UNL     1      19.762  51.704  49.693  1.00  0.00     0.072 A 
HETATM   26  C   UNL     1      20.490  48.163  48.953  1.00  0.00     0.027 A 
HETATM   27  C   UNL     1      18.354  49.371  48.990  1.00  0.00     0.053 A 
HETATM   28  C   UNL     1      17.710  50.575  49.164  1.00  0.00     0.106 A 
HETATM   29  C   UNL     1      18.395  51.709  49.512  1.00  0.00     0.107 A 
HETATM   30  O   UNL     1      16.378  50.797  49.011  1.00  0.00    -0.323 OA
HETATM   31  O   UNL     1      17.582  52.793  49.623  1.00  0.00    -0.323 OA
HETATM   32  C   UNL     1      16.307  52.218  49.264  1.00  0.00     0.352 A 
BRANCH  21  33
HETATM   33  O   UNL     1      23.795  49.544  49.409  1.00  0.00    -0.344 OA
HETATM   34  H   UNL     1      23.934  49.600  50.377  1.00  0.00     0.219 HD
ENDBRANCH  21  33
ENDBRANCH  19  20
ENDBRANCH   1  19
BRANCH   1  35
HETATM   35  C   UNL     1      21.831  44.499  48.851  1.00  0.00     0.238 C 
BRANCH  35  36
HETATM   36  C   UNL     1      21.587  44.742  47.361  1.00  0.00     0.054 C 
BRANCH  36  37
HETATM   37  C   UNL     1      20.121  45.047  47.075  1.00  0.00     0.165 C 
BRANCH  37  38
HETATM   38  O   UNL     1      19.326  43.953  47.498  1.00  0.00    -0.401 OA
HETATM   39  H   UNL     1      19.317  43.298  46.774  1.00  0.00     0.209 HD
ENDBRANCH  37  38
ENDBRANCH  36  37
ENDBRANCH  35  36
ENDBRANCH   1  35
TORSDOF 12
ENDMDL
MODEL 10
REMARK VINA RESULT:      -7.9      2.356      3.866
REMARK  12 active torsions:
REMARK  status: ('A' for Active; 'I' for Inactive)
REMARK    1  A    between atoms: C_2  and  C_3 
REMARK    2  A    between atoms: C_3  and  N_4 
REMARK    3  A    between atoms: C_3  and  C_25 
REMARK    4  A    between atoms: N_4  and  C_6 
REMARK    5  A    between atoms: N_4  and  C_21 
REMARK    6  A    between atoms: C_6  and  C_7 
REMARK    7  A    between atoms: C_8  and  O_9 
REMARK    8  A    between atoms: C_21  and  C_22 
REMARK    9  A    between atoms: C_22  and  C_23 
REMARK   10  A    between atoms: C_23  and  O_24 
REMARK   11  A    between atoms: N_26  and  C_27 
REMARK   12  A    between atoms: C_27  and  C_28 
ROOT
HETATM    1  N   UNL     1      25.764  44.612  50.608  1.00  0.00    -0.055 N 
HETATM    2  H   UNL     1      26.763  44.486  50.802  1.00  0.00     0.281 HD
ENDROOT
BRANCH   1   3
HETATM    3  C   UNL     1      25.350  43.152  50.273  1.00  0.00     0.263 C 
BRANCH   3   4
HETATM    4  C   UNL     1      24.045  43.022  49.428  1.00  0.00     0.016 C 
HETATM    5  C   UNL     1      22.824  43.501  50.233  1.00  0.00     0.012 C 
HETATM    6  C   UNL     1      23.732  41.643  48.856  1.00  0.00     0.012 C 
ENDBRANCH   3   4
BRANCH   3   7
HETATM    7  C   UNL     1      26.479  42.286  49.798  1.00  0.00     0.168 A 
HETATM    8  N   UNL     1      27.249  41.431  50.557  1.00  0.00    -0.257 N 
HETATM    9  N   UNL     1      28.194  40.878  49.780  1.00  0.00    -0.003 NA
HETATM   10  N   UNL     1      27.991  41.359  48.567  1.00  0.00     0.018 NA
HETATM   11  N   UNL     1      26.937  42.224  48.562  1.00  0.00    -0.145 NA
BRANCH   8  12
HETATM   12  C   UNL     1      27.182  41.049  51.957  1.00  0.00     0.186 C 
BRANCH  12  13
HETATM   13  C   UNL     1      28.059  41.901  52.840  1.00  0.00    -0.039 A 
HETATM   14  C   UNL     1      29.435  41.995  52.575  1.00  0.00     0.009 A 
HETATM   15  C   UNL     1      30.252  42.815  53.352  1.00  0.00     0.001 A 
HETATM   16  C   UNL     1      29.704  43.561  54.393  1.00  0.00     0.000 A 
HETATM   17  C   UNL     1      28.338  43.492  54.654  1.00  0.00     0.001 A 
HETATM   18  C   UNL     1      27.515  42.673  53.879  1.00  0.00     0.009 A 
ENDBRANCH  12  13
ENDBRANCH   8  12
ENDBRANCH   3   7
ENDBRANCH   1   3
BRANCH   1  19
HETATM   19  C   UNL     1      25.848  45.670  49.499  1.00  0.00     0.278 C 
BRANCH  19  20
HETATM   20  C   UNL     1      25.011  46.911  49.479  1.00  0.00     0.021 A 
HETATM   21  C   UNL     1      25.539  48.188  49.520  1.00  0.00     0.170 A 
HETATM   22  N   UNL     1      24.857  49.339  49.413  1.00  0.00    -0.224 NA
HETATM   23  C   UNL     1      23.537  49.265  49.182  1.00  0.00     0.072 A 
HETATM   24  C   UNL     1      22.869  48.017  49.075  1.00  0.00    -0.004 A 
HETATM   25  C   UNL     1      22.811  50.438  49.009  1.00  0.00     0.072 A 
HETATM   26  C   UNL     1      23.632  46.848  49.239  1.00  0.00     0.027 A 
HETATM   27  C   UNL     1      21.494  47.962  48.783  1.00  0.00     0.053 A 
HETATM   28  C   UNL     1      20.827  49.150  48.594  1.00  0.00     0.106 A 
HETATM   29  C   UNL     1      21.467  50.356  48.709  1.00  0.00     0.107 A 
HETATM   30  O   UNL     1      19.514  49.288  48.271  1.00  0.00    -0.323 OA
HETATM   31  O   UNL     1      20.640  51.408  48.475  1.00  0.00    -0.323 OA
HETATM   32  C   UNL     1      19.409  50.724  48.156  1.00  0.00     0.352 A 
BRANCH  21  33
HETATM   33  O   UNL     1      26.869  48.398  49.634  1.00  0.00    -0.344 OA
HETATM   34  H   UNL     1      26.872  49.354  49.848  1.00  0.00     0.219 HD
ENDBRANCH  21  33
ENDBRANCH  19  20
ENDBRANCH   1  19
BRANCH   1  35
HETATM   35  C   UNL     1      25.222  45.098  51.948  1.00  0.00     0.238 C 
BRANCH  35  36
HETATM   36  C   UNL     1      26.277  45.859  52.753  1.00  0.00     0.054 C 
BRANCH  36  37
HETATM   37  C   UNL     1      25.783  47.244  53.155  1.00  0.00     0.165 C 
BRANCH  37  38
HETATM   38  O   UNL     1      25.712  47.323  54.567  1.00  0.00    -0.401 OA
HETATM   39  H   UNL     1      26.543  46.953  54.925  1.00  0.00     0.209 HD
ENDBRANCH  37  38
ENDBRANCH  36  37
ENDBRANCH  35  36
ENDBRANCH   1  35
TORSDOF 12
ENDMDL
