MODEL 1
REMARK VINA RESULT:      -9.1      0.000      0.000
REMARK  6 active torsions:
REMARK  status: ('A' for Active; 'I' for Inactive)
REMARK    1  A    between atoms: C_2  and  C_3 
REMARK       I    between atoms: C_3  and  N_4 
REMARK    2  A    between atoms: N_4  and  C_5 
REMARK    3  A    between atoms: C_5  and  C_6 
REMARK    4  A    between atoms: N_8  and  C_10 
REMARK    5  A    between atoms: C_10  and  C_11 
REMARK    6  A    between atoms: C_12  and  C_13 
ROOT
HETATM    1  C   UNL     1      25.877  47.097  50.333  1.00  0.00     0.029 C 
HETATM    2  C   UNL     1      26.971  46.044  50.119  1.00  0.00     0.241 C 
HETATM    3  N   UNL     1      26.729  44.836  51.006  1.00  0.00    -0.067 N 
HETATM    4  H   UNL     1      26.729  45.157  51.980  1.00  0.00     0.280 HD
HETATM    5  C   UNL     1      25.385  44.206  50.751  1.00  0.00     0.235 C 
HETATM    6  C   UNL     1      24.297  45.236  51.012  1.00  0.00     0.028 C 
HETATM    7  C   UNL     1      24.483  46.477  50.150  1.00  0.00     0.009 C 
ENDROOT
BRANCH   3   8
HETATM    8  C   UNL     1      27.884  43.853  50.886  1.00  0.00     0.277 C 
BRANCH   8   9
HETATM    9  C   UNL     1      27.731  42.650  51.749  1.00  0.00     0.016 A 
HETATM   10  C   UNL     1      28.101  42.474  53.125  1.00  0.00     0.096 A 
HETATM   11  N   UNL     1      27.821  41.227  53.528  1.00  0.00    -0.174 NA
HETATM   12  N   UNL     1      27.342  40.601  52.452  1.00  0.00    -0.288 N 
HETATM   13  H   UNL     1      27.096  39.617  52.537  1.00  0.00     0.188 HD
HETATM   14  C   UNL     1      27.261  41.408  51.358  1.00  0.00     0.120 A 
BRANCH  10  15
HETATM   15  C   UNL     1      28.727  43.412  54.062  1.00  0.00    -0.003 A 
HETATM   16  C   UNL     1      28.126  44.627  54.405  1.00  0.00     0.037 A 
HETATM   17  C   UNL     1      28.760  45.501  55.291  1.00  0.00     0.035 A 
HETATM   18 CL   UNL     1      28.007  47.004  55.664  1.00  0.00    -0.084 Cl
HETATM   19  C   UNL     1      29.984  45.171  55.866  1.00  0.00     0.024 A 
HETATM   20  C   UNL     1      30.581  43.952  55.552  1.00  0.00     0.003 A 
HETATM   21  C   UNL     1      29.956  43.080  54.656  1.00  0.00     0.014 A 
ENDBRANCH  10  15
ENDBRANCH   8   9
ENDBRANCH   3   8
BRANCH   1  22
HETATM   22  C   UNL     1      26.025  48.286  49.366  1.00  0.00     0.128 C 
BRANCH  22  23
HETATM   23  N   UNL     1      24.806  49.045  49.172  1.00  0.00    -0.360 N 
HETATM   24  C   UNL     1      24.633  49.867  48.075  1.00  0.00     0.221 C 
HETATM   25  O   UNL     1      25.581  50.187  47.362  1.00  0.00    -0.273 OA
HETATM   26  H   UNL     1      23.979  48.756  49.684  1.00  0.00     0.162 HD
BRANCH  24  27
HETATM   27  C   UNL     1      23.207  50.375  47.879  1.00  0.00     0.070 C 
HETATM   28  C   UNL     1      22.773  51.249  49.054  1.00  0.00     0.019 C 
HETATM   29  C   UNL     1      22.236  49.207  47.709  1.00  0.00     0.019 C 
ENDBRANCH  24  27
ENDBRANCH  22  23
ENDBRANCH   1  22
TORSDOF 6
ENDMDL
MODEL 2
REMARK VINA RESULT:      -9.0      1.083      1.432
REMARK  6 active torsions:
REMARK  status: ('A' for Active; 'I' for Inactive)
REMARK    1  A    between atoms: C_2  and  C_3 
REMARK       I    between atoms: C_3  and  N_4 
REMARK    2  A    between atoms: N_4  and  C_5 
REMARK    3  A    between atoms: C_5  and  C_6 
REMARK    4  A    between atoms: N_8  and  C_10 
REMARK    5  A    between atoms: C_10  and  C_11 
REMARK    6  A    between atoms: C_12  and  C_13 
ROOT
HETATM    1  C   UNL     1      25.517  47.015  50.279  1.00  0.00     0.029 C 
HETATM    2  C   UNL     1      26.755  46.115  50.191  1.00  0.00     0.241 C 
HETATM    3  N   UNL     1      26.532  44.824  50.957  1.00  0.00    -0.067 N 
HETATM    4  H   UNL     1      26.339  45.069  51.935  1.00  0.00     0.280 HD
HETATM    5  C   UNL     1      25.335  44.064  50.451  1.00  0.00     0.235 C 
HETATM    6  C   UNL     1      24.098  44.938  50.586  1.00  0.00     0.028 C 
HETATM    7  C   UNL     1      24.257  46.254  49.836  1.00  0.00     0.009 C 
ENDROOT
BRANCH   3   8
HETATM    8  C   UNL     1      27.806  43.992  50.975  1.00  0.00     0.277 C 
BRANCH   8   9
HETATM    9  C   UNL     1      27.697  42.758  51.797  1.00  0.00     0.016 A 
HETATM   10  C   UNL     1      28.108  42.540  53.156  1.00  0.00     0.096 A 
HETATM   11  N   UNL     1      27.861  41.274  53.521  1.00  0.00    -0.174 NA
HETATM   12  N   UNL     1      27.363  40.678  52.437  1.00  0.00    -0.288 N 
HETATM   13  H   UNL     1      27.136  39.688  52.494  1.00  0.00     0.188 HD
HETATM   14  C   UNL     1      27.239  41.522  51.376  1.00  0.00     0.120 A 
BRANCH  10  15
HETATM   15  C   UNL     1      28.744  43.455  54.109  1.00  0.00    -0.003 A 
HETATM   16  C   UNL     1      29.864  43.083  54.858  1.00  0.00     0.037 A 
HETATM   17  C   UNL     1      30.433  43.978  55.766  1.00  0.00     0.035 A 
HETATM   18 CL   UNL     1      31.792  43.473  56.697  1.00  0.00    -0.084 Cl
HETATM   19  C   UNL     1      29.914  45.259  55.927  1.00  0.00     0.024 A 
HETATM   20  C   UNL     1      28.813  45.651  55.168  1.00  0.00     0.003 A 
HETATM   21  C   UNL     1      28.233  44.754  54.267  1.00  0.00     0.014 A 
ENDBRANCH  10  15
ENDBRANCH   8   9
ENDBRANCH   3   8
BRANCH   1  22
HETATM   22  C   UNL     1      25.663  48.282  49.417  1.00  0.00     0.128 C 
BRANCH  22  23
HETATM   23  N   UNL     1      24.407  48.939  49.114  1.00  0.00    -0.360 N 
HETATM   24  C   UNL     1      24.258  49.733  47.994  1.00  0.00     0.221 C 
HETATM   25  O   UNL     1      25.231  50.121  47.353  1.00  0.00    -0.273 OA
HETATM   26  H   UNL     1      23.567  48.589  49.564  1.00  0.00     0.162 HD
BRANCH  24  27
HETATM   27  C   UNL     1      22.816  50.121  47.676  1.00  0.00     0.070 C 
HETATM   28  C   UNL     1      22.330  51.226  48.614  1.00  0.00     0.019 C 
HETATM   29  C   UNL     1      21.894  48.907  47.776  1.00  0.00     0.019 C 
ENDBRANCH  24  27
ENDBRANCH  22  23
ENDBRANCH   1  22
TORSDOF 6
ENDMDL
MODEL 3
REMARK VINA RESULT:      -8.6      2.099      2.661
REMARK  6 active torsions:
REMARK  status: ('A' for Active; 'I' for Inactive)
REMARK    1  A    between atoms: C_2  and  C_3 
REMARK       I    between atoms: C_3  and  N_4 
REMARK    2  A    between atoms: N_4  and  C_5 
REMARK    3  A    between atoms: C_5  and  C_6 
REMARK    4  A    between atoms: N_8  and  C_10 
REMARK    5  A    between atoms: C_10  and  C_11 
REMARK    6  A    between atoms: C_12  and  C_13 
ROOT
HETATM    1  C   UNL     1      24.794  45.814  49.987  1.00  0.00     0.029 C 
HETATM    2  C   UNL     1      24.890  44.743  51.081  1.00  0.00     0.241 C 
HETATM    3  N   UNL     1      26.136  44.950  51.922  1.00  0.00    -0.067 N 
HETATM    4  H   UNL     1      26.949  44.894  51.298  1.00  0.00     0.280 HD
HETATM    5  C   UNL     1      26.169  46.312  52.563  1.00  0.00     0.235 C 
HETATM    6  C   UNL     1      26.126  47.374  51.476  1.00  0.00     0.028 C 
HETATM    7  C   UNL     1      24.893  47.222  50.594  1.00  0.00     0.009 C 
ENDROOT
BRANCH   3   8
HETATM    8  C   UNL     1      26.295  43.814  52.921  1.00  0.00     0.277 C 
BRANCH   8   9
HETATM    9  C   UNL     1      27.442  42.915  52.622  1.00  0.00     0.016 A 
HETATM   10  C   UNL     1      28.732  42.859  53.249  1.00  0.00     0.096 A 
HETATM   11  N   UNL     1      29.496  41.926  52.665  1.00  0.00    -0.174 NA
HETATM   12  N   UNL     1      28.760  41.432  51.669  1.00  0.00    -0.288 N 
HETATM   13  H   UNL     1      29.175  40.722  51.070  1.00  0.00     0.188 HD
HETATM   14  C   UNL     1      27.518  41.986  51.599  1.00  0.00     0.120 A 
BRANCH  10  15
HETATM   15  C   UNL     1      29.284  43.659  54.347  1.00  0.00    -0.003 A 
HETATM   16  C   UNL     1      30.336  43.197  55.143  1.00  0.00     0.037 A 
HETATM   17  C   UNL     1      30.825  43.981  56.190  1.00  0.00     0.035 A 
HETATM   18 CL   UNL     1      32.099  43.365  57.171  1.00  0.00    -0.084 Cl
HETATM   19  C   UNL     1      30.295  45.243  56.445  1.00  0.00     0.024 A 
HETATM   20  C   UNL     1      29.263  45.725  55.642  1.00  0.00     0.003 A 
HETATM   21  C   UNL     1      28.762  44.938  54.602  1.00  0.00     0.014 A 
ENDBRANCH  10  15
ENDBRANCH   8   9
ENDBRANCH   3   8
BRANCH   1  22
HETATM   22  C   UNL     1      23.482  45.706  49.189  1.00  0.00     0.128 C 
BRANCH  22  23
HETATM   23  N   UNL     1      22.688  46.917  49.191  1.00  0.00    -0.360 N 
HETATM   24  C   UNL     1      21.968  47.311  48.080  1.00  0.00     0.221 C 
HETATM   25  O   UNL     1      22.165  46.804  46.979  1.00  0.00    -0.273 OA
HETATM   26  H   UNL     1      22.435  47.319  50.088  1.00  0.00     0.162 HD
BRANCH  24  27
HETATM   27  C   UNL     1      20.979  48.447  48.333  1.00  0.00     0.070 C 
HETATM   28  C   UNL     1      21.619  49.551  49.172  1.00  0.00     0.019 C 
HETATM   29  C   UNL     1      19.721  47.924  49.026  1.00  0.00     0.019 C 
ENDBRANCH  24  27
ENDBRANCH  22  23
ENDBRANCH   1  22
TORSDOF 6
ENDMDL
MODEL 4
REMARK VINA RESULT:      -8.5      3.364      7.562
REMARK  6 active torsions:
REMARK  status: ('A' for Active; 'I' for Inactive)
REMARK    1  A    between atoms: C_2  and  C_3 
REMARK       I    between atoms: C_3  and  N_4 
REMARK    2  A    between atoms: N_4  and  C_5 
REMARK    3  A    between atoms: C_5  and  C_6 
REMARK    4  A    between atoms: N_8  and  C_10 
REMARK    5  A    between atoms: C_10  and  C_11 
REMARK    6  A    between atoms: C_12  and  C_13 
ROOT
HETATM    1  C   UNL     1      28.503  44.178  54.187  1.00  0.00     0.029 C 
HETATM    2  C   UNL     1      27.836  45.159  53.215  1.00  0.00     0.241 C 
HETATM    3  N   UNL     1      26.960  46.143  53.969  1.00  0.00    -0.067 N 
HETATM    4  H   UNL     1      26.249  45.606  54.476  1.00  0.00     0.280 HD
HETATM    5  C   UNL     1      27.737  46.922  54.998  1.00  0.00     0.235 C 
HETATM    6  C   UNL     1      28.356  45.951  55.991  1.00  0.00     0.028 C 
HETATM    7  C   UNL     1      29.251  44.934  55.296  1.00  0.00     0.009 C 
ENDROOT
BRANCH   3   8
HETATM    8  C   UNL     1      26.202  47.031  52.993  1.00  0.00     0.277 C 
BRANCH   8   9
HETATM    9  C   UNL     1      25.379  46.271  52.015  1.00  0.00     0.016 A 
HETATM   10  C   UNL     1      25.066  46.598  50.652  1.00  0.00     0.096 A 
HETATM   11  N   UNL     1      24.268  45.662  50.119  1.00  0.00    -0.174 NA
HETATM   12  N   UNL     1      24.026  44.794  51.101  1.00  0.00    -0.288 N 
HETATM   13  H   UNL     1      23.403  44.012  50.911  1.00  0.00     0.188 HD
HETATM   14  C   UNL     1      24.671  45.107  52.259  1.00  0.00     0.120 A 
BRANCH  10  15
HETATM   15  C   UNL     1      25.458  47.757  49.845  1.00  0.00    -0.003 A 
HETATM   16  C   UNL     1      24.514  48.605  49.260  1.00  0.00     0.037 A 
HETATM   17  C   UNL     1      24.927  49.691  48.485  1.00  0.00     0.035 A 
HETATM   18 CL   UNL     1      23.735  50.695  47.752  1.00  0.00    -0.084 Cl
HETATM   19  C   UNL     1      26.279  49.964  48.300  1.00  0.00     0.024 A 
HETATM   20  C   UNL     1      27.230  49.140  48.899  1.00  0.00     0.003 A 
HETATM   21  C   UNL     1      26.821  48.045  49.665  1.00  0.00     0.014 A 
ENDBRANCH  10  15
ENDBRANCH   8   9
ENDBRANCH   3   8
BRANCH   1  22
HETATM   22  C   UNL     1      29.490  43.239  53.470  1.00  0.00     0.128 C 
BRANCH  22  23
HETATM   23  N   UNL     1      29.030  42.772  52.178  1.00  0.00    -0.360 N 
HETATM   24  C   UNL     1      28.155  41.710  52.063  1.00  0.00     0.221 C 
HETATM   25  O   UNL     1      27.931  40.961  53.011  1.00  0.00    -0.273 OA
HETATM   26  H   UNL     1      29.123  43.399  51.385  1.00  0.00     0.162 HD
BRANCH  24  27
HETATM   27  C   UNL     1      27.560  41.523  50.669  1.00  0.00     0.070 C 
HETATM   28  C   UNL     1      27.054  42.852  50.109  1.00  0.00     0.019 C 
HETATM   29  C   UNL     1      26.425  40.501  50.698  1.00  0.00     0.019 C 
ENDBRANCH  24  27
ENDBRANCH  22  23
ENDBRANCH   1  22
TORSDOF 6
ENDMDL
MODEL 5
REMARK VINA RESULT:      -8.5      3.298      8.776
REMARK  6 active torsions:
REMARK  status: ('A' for Active; 'I' for Inactive)
REMARK    1  A    between atoms: C_2  and  C_3 
REMARK       I    between atoms: C_3  and  N_4 
REMARK    2  A    between atoms: N_4  and  C_5 
REMARK    3  A    between atoms: C_5  and  C_6 
REMARK    4  A    between atoms: N_8  and  C_10 
REMARK    5  A    between atoms: C_10  and  C_11 
REMARK    6  A    between atoms: C_12  and  C_13 
ROOT
HETATM    1  C   UNL     1      26.837  43.824  50.120  1.00  0.00     0.029 C 
HETATM    2  C   UNL     1      26.580  45.201  50.744  1.00  0.00     0.241 C 
HETATM    3  N   UNL     1      25.684  46.034  49.846  1.00  0.00    -0.067 N 
HETATM    4  H   UNL     1      26.155  46.137  48.941  1.00  0.00     0.280 HD
HETATM    5  C   UNL     1      24.363  45.362  49.580  1.00  0.00     0.235 C 
HETATM    6  C   UNL     1      24.616  44.018  48.914  1.00  0.00     0.028 C 
HETATM    7  C   UNL     1      25.511  43.130  49.768  1.00  0.00     0.009 C 
ENDROOT
BRANCH   3   8
HETATM    8  C   UNL     1      25.537  47.442  50.406  1.00  0.00     0.277 C 
BRANCH   8   9
HETATM    9  C   UNL     1      26.069  48.498  49.504  1.00  0.00     0.016 A 
HETATM   10  C   UNL     1      25.350  49.423  48.675  1.00  0.00     0.096 A 
HETATM   11  N   UNL     1      26.203  50.196  47.989  1.00  0.00    -0.174 NA
HETATM   12  N   UNL     1      27.422  49.762  48.313  1.00  0.00    -0.288 N 
HETATM   13  H   UNL     1      28.224  50.202  47.868  1.00  0.00     0.188 HD
HETATM   14  C   UNL     1      27.401  48.748  49.222  1.00  0.00     0.120 A 
BRANCH  10  15
HETATM   15  C   UNL     1      23.907  49.592  48.479  1.00  0.00    -0.003 A 
HETATM   16  C   UNL     1      23.078  48.522  48.126  1.00  0.00     0.037 A 
HETATM   17  C   UNL     1      21.710  48.725  47.935  1.00  0.00     0.035 A 
HETATM   18 CL   UNL     1      20.725  47.392  47.467  1.00  0.00    -0.084 Cl
HETATM   19  C   UNL     1      21.143  49.984  48.113  1.00  0.00     0.024 A 
HETATM   20  C   UNL     1      21.954  51.052  48.490  1.00  0.00     0.003 A 
HETATM   21  C   UNL     1      23.326  50.856  48.670  1.00  0.00     0.014 A 
ENDBRANCH  10  15
ENDBRANCH   8   9
ENDBRANCH   3   8
BRANCH   1  22
HETATM   22  C   UNL     1      27.646  42.908  51.057  1.00  0.00     0.128 C 
BRANCH  22  23
HETATM   23  N   UNL     1      27.992  43.518  52.325  1.00  0.00    -0.360 N 
HETATM   24  C   UNL     1      28.194  42.759  53.461  1.00  0.00     0.221 C 
HETATM   25  O   UNL     1      27.845  41.583  53.513  1.00  0.00    -0.273 OA
HETATM   26  H   UNL     1      28.363  44.463  52.312  1.00  0.00     0.162 HD
BRANCH  24  27
HETATM   27  C   UNL     1      28.814  43.518  54.631  1.00  0.00     0.070 C 
HETATM   28  C   UNL     1      28.575  45.021  54.495  1.00  0.00     0.019 C 
HETATM   29  C   UNL     1      30.312  43.233  54.728  1.00  0.00     0.019 C 
ENDBRANCH  24  27
ENDBRANCH  22  23
ENDBRANCH   1  22
TORSDOF 6
ENDMDL
MODEL 6
REMARK VINA RESULT:      -8.4      2.997      4.878
REMARK  6 active torsions:
REMARK  status: ('A' for Active; 'I' for Inactive)
REMARK    1  A    between atoms: C_2  and  C_3 
REMARK       I    between atoms: C_3  and  N_4 
REMARK    2  A    between atoms: N_4  and  C_5 
REMARK    3  A    between atoms: C_5  and  C_6 
REMARK    4  A    between atoms: N_8  and  C_10 
REMARK    5  A    between atoms: C_10  and  C_11 
REMARK    6  A    between atoms: C_12  and  C_13 
ROOT
HETATM    1  C   UNL     1      22.119  48.723  48.582  1.00  0.00     0.029 C 
HETATM    2  C   UNL     1      23.112  48.106  49.575  1.00  0.00     0.241 C 
HETATM    3  N   UNL     1      24.532  48.231  49.056  1.00  0.00    -0.067 N 
HETATM    4  H   UNL     1      24.581  47.744  48.154  1.00  0.00     0.280 HD
HETATM    5  C   UNL     1      24.919  49.664  48.801  1.00  0.00     0.235 C 
HETATM    6  C   UNL     1      23.965  50.261  47.778  1.00  0.00     0.028 C 
HETATM    7  C   UNL     1      22.517  50.167  48.241  1.00  0.00     0.009 C 
ENDROOT
BRANCH   3   8
HETATM    8  C   UNL     1      25.499  47.506  49.980  1.00  0.00     0.277 C 
BRANCH   8   9
HETATM    9  C   UNL     1      24.975  46.210  50.488  1.00  0.00     0.016 A 
HETATM   10  C   UNL     1      25.192  45.587  51.764  1.00  0.00     0.096 A 
HETATM   11  N   UNL     1      24.565  44.404  51.818  1.00  0.00    -0.174 NA
HETATM   12  N   UNL     1      24.009  44.237  50.618  1.00  0.00    -0.288 N 
HETATM   13  H   UNL     1      23.505  43.371  50.437  1.00  0.00     0.188 HD
HETATM   14  C   UNL     1      24.219  45.291  49.782  1.00  0.00     0.120 A 
BRANCH  10  15
HETATM   15  C   UNL     1      25.981  46.039  52.914  1.00  0.00    -0.003 A 
HETATM   16  C   UNL     1      27.090  45.324  53.378  1.00  0.00     0.037 A 
HETATM   17  C   UNL     1      27.808  45.779  54.486  1.00  0.00     0.035 A 
HETATM   18 CL   UNL     1      29.146  44.854  55.051  1.00  0.00    -0.084 Cl
HETATM   19  C   UNL     1      27.452  46.959  55.132  1.00  0.00     0.024 A 
HETATM   20  C   UNL     1      26.365  47.694  54.663  1.00  0.00     0.003 A 
HETATM   21  C   UNL     1      25.635  47.236  53.563  1.00  0.00     0.014 A 
ENDBRANCH  10  15
ENDBRANCH   8   9
ENDBRANCH   3   8
BRANCH   1  22
HETATM   22  C   UNL     1      20.680  48.718  49.129  1.00  0.00     0.128 C 
BRANCH  22  23
HETATM   23  N   UNL     1      19.980  49.976  48.963  1.00  0.00    -0.360 N 
HETATM   24  C   UNL     1      19.192  50.503  49.966  1.00  0.00     0.221 C 
HETATM   25  O   UNL     1      18.846  49.824  50.930  1.00  0.00    -0.273 OA
HETATM   26  H   UNL     1      20.295  50.601  48.227  1.00  0.00     0.162 HD
BRANCH  24  27
HETATM   27  C   UNL     1      18.753  51.948  49.739  1.00  0.00     0.070 C 
HETATM   28  C   UNL     1      17.235  52.081  49.851  1.00  0.00     0.019 C 
HETATM   29  C   UNL     1      19.223  52.447  48.373  1.00  0.00     0.019 C 
ENDBRANCH  24  27
ENDBRANCH  22  23
ENDBRANCH   1  22
TORSDOF 6
ENDMDL
MODEL 7
REMARK VINA RESULT:      -8.4      2.397      4.623
REMARK  6 active torsions:
REMARK  status: ('A' for Active; 'I' for Inactive)
REMARK    1  A    between atoms: C_2  and  C_3 
REMARK       I    between atoms: C_3  and  N_4 
REMARK    2  A    between atoms: N_4  and  C_5 
REMARK    3  A    between atoms: C_5  and  C_6 
REMARK    4  A    between atoms: N_8  and  C_10 
REMARK    5  A    between atoms: C_10  and  C_11 
REMARK    6  A    between atoms: C_12  and  C_13 
ROOT
HETATM    1  C   UNL     1      27.143  43.078  51.802  1.00  0.00     0.029 C 
HETATM    2  C   UNL     1      28.561  43.549  52.144  1.00  0.00     0.241 C 
HETATM    3  N   UNL     1      29.136  42.727  53.283  1.00  0.00    -0.067 N 
HETATM    4  H   UNL     1      28.518  42.840  54.094  1.00  0.00     0.280 HD
HETATM    5  C   UNL     1      29.171  41.257  52.960  1.00  0.00     0.235 C 
HETATM    6  C   UNL     1      27.757  40.778  52.670  1.00  0.00     0.028 C 
HETATM    7  C   UNL     1      27.121  41.566  51.532  1.00  0.00     0.009 C 
ENDROOT
BRANCH   3   8
HETATM    8  C   UNL     1      30.490  43.280  53.704  1.00  0.00     0.277 C 
BRANCH   8   9
HETATM    9  C   UNL     1      30.529  43.740  55.118  1.00  0.00     0.016 A 
HETATM   10  C   UNL     1      29.689  44.700  55.778  1.00  0.00     0.096 A 
HETATM   11  N   UNL     1      30.071  44.856  57.053  1.00  0.00    -0.174 NA
HETATM   12  N   UNL     1      31.143  44.078  57.205  1.00  0.00    -0.288 N 
HETATM   13  H   UNL     1      31.613  44.077  58.107  1.00  0.00     0.188 HD
HETATM   14  C   UNL     1      31.459  43.382  56.077  1.00  0.00     0.120 A 
BRANCH  10  15
HETATM   15  C   UNL     1      28.569  45.490  55.258  1.00  0.00    -0.003 A 
HETATM   16  C   UNL     1      27.331  44.913  54.960  1.00  0.00     0.037 A 
HETATM   17  C   UNL     1      26.292  45.696  54.453  1.00  0.00     0.035 A 
HETATM   18 CL   UNL     1      24.792  44.944  54.064  1.00  0.00    -0.084 Cl
HETATM   19  C   UNL     1      26.459  47.064  54.258  1.00  0.00     0.024 A 
HETATM   20  C   UNL     1      27.679  47.656  54.576  1.00  0.00     0.003 A 
HETATM   21  C   UNL     1      28.726  46.873  55.071  1.00  0.00     0.014 A 
ENDBRANCH  10  15
ENDBRANCH   8   9
ENDBRANCH   3   8
BRANCH   1  22
HETATM   22  C   UNL     1      26.573  43.812  50.574  1.00  0.00     0.128 C 
BRANCH  22  23
HETATM   23  N   UNL     1      26.230  45.198  50.820  1.00  0.00    -0.360 N 
HETATM   24  C   UNL     1      26.723  46.216  50.028  1.00  0.00     0.221 C 
HETATM   25  O   UNL     1      27.659  46.027  49.255  1.00  0.00    -0.273 OA
HETATM   26  H   UNL     1      25.411  45.392  51.388  1.00  0.00     0.162 HD
BRANCH  24  27
HETATM   27  C   UNL     1      26.057  47.572  50.247  1.00  0.00     0.070 C 
HETATM   28  C   UNL     1      24.538  47.460  50.123  1.00  0.00     0.019 C 
HETATM   29  C   UNL     1      26.588  48.603  49.251  1.00  0.00     0.019 C 
ENDBRANCH  24  27
ENDBRANCH  22  23
ENDBRANCH   1  22
TORSDOF 6
ENDMDL
MODEL 8
REMARK VINA RESULT:      -8.3      3.613      8.738
REMARK  6 active torsions:
REMARK  status: ('A' for Active; 'I' for Inactive)
REMARK    1  A    between atoms: C_2  and  C_3 
REMARK       I    between atoms: C_3  and  N_4 
REMARK    2  A    between atoms: N_4  and  C_5 
REMARK    3  A    between atoms: C_5  and  C_6 
REMARK    4  A    between atoms: N_8  and  C_10 
REMARK    5  A    between atoms: C_10  and  C_11 
REMARK    6  A    between atoms: C_12  and  C_13 
ROOT
HETATM    1  C   UNL     1      26.770  44.538  53.274  1.00  0.00     0.029 C 
HETATM    2  C   UNL     1      26.669  44.988  51.812  1.00  0.00     0.241 C 
HETATM    3  N   UNL     1      25.591  46.045  51.652  1.00  0.00    -0.067 N 
HETATM    4  H   UNL     1      24.702  45.636  51.961  1.00  0.00     0.280 HD
HETATM    5  C   UNL     1      25.844  47.249  52.521  1.00  0.00     0.235 C 
HETATM    6  C   UNL     1      25.894  46.810  53.976  1.00  0.00     0.028 C 
HETATM    7  C   UNL     1      26.960  45.747  54.204  1.00  0.00     0.009 C 
ENDROOT
BRANCH   3   8
HETATM    8  C   UNL     1      25.407  46.394  50.183  1.00  0.00     0.277 C 
BRANCH   8   9
HETATM    9  C   UNL     1      24.068  46.025  49.649  1.00  0.00     0.016 A 
HETATM   10  C   UNL     1      23.059  46.873  49.079  1.00  0.00     0.096 A 
HETATM   11  N   UNL     1      21.979  46.153  48.744  1.00  0.00    -0.174 NA
HETATM   12  N   UNL     1      22.247  44.904  49.126  1.00  0.00    -0.288 N 
HETATM   13  H   UNL     1      21.531  44.195  48.990  1.00  0.00     0.188 HD
HETATM   14  C   UNL     1      23.488  44.769  49.671  1.00  0.00     0.120 A 
BRANCH  10  15
HETATM   15  C   UNL     1      23.055  48.323  48.863  1.00  0.00    -0.003 A 
HETATM   16  C   UNL     1      21.896  49.091  49.015  1.00  0.00     0.037 A 
HETATM   17  C   UNL     1      21.929  50.468  48.786  1.00  0.00     0.035 A 
HETATM   18 CL   UNL     1      20.475  51.376  48.949  1.00  0.00    -0.084 Cl
HETATM   19  C   UNL     1      23.114  51.105  48.428  1.00  0.00     0.024 A 
HETATM   20  C   UNL     1      24.281  50.355  48.299  1.00  0.00     0.003 A 
HETATM   21  C   UNL     1      24.250  48.974  48.514  1.00  0.00     0.014 A 
ENDBRANCH  10  15
ENDBRANCH   8   9
ENDBRANCH   3   8
BRANCH   1  22
HETATM   22  C   UNL     1      27.931  43.552  53.495  1.00  0.00     0.128 C 
BRANCH  22  23
HETATM   23  N   UNL     1      28.772  43.873  54.630  1.00  0.00    -0.360 N 
HETATM   24  C   UNL     1      30.116  43.555  54.649  1.00  0.00     0.221 C 
HETATM   25  O   UNL     1      30.597  42.773  53.833  1.00  0.00    -0.273 OA
HETATM   26  H   UNL     1      28.442  44.578  55.282  1.00  0.00     0.162 HD
BRANCH  24  27
HETATM   27  C   UNL     1      30.907  44.199  55.784  1.00  0.00     0.070 C 
HETATM   28  C   UNL     1      31.294  43.161  56.836  1.00  0.00     0.019 C 
HETATM   29  C   UNL     1      30.104  45.326  56.432  1.00  0.00     0.019 C 
ENDBRANCH  24  27
ENDBRANCH  22  23
ENDBRANCH   1  22
TORSDOF 6
ENDMDL
MODEL 9
REMARK VINA RESULT:      -8.3      2.631      3.680
REMARK  6 active torsions:
REMARK  status: ('A' for Active; 'I' for Inactive)
REMARK    1  A    between atoms: C_2  and  C_3 
REMARK       I    between atoms: C_3  and  N_4 
REMARK    2  A    between atoms: N_4  and  C_5 
REMARK    3  A    between atoms: C_5  and  C_6 
REMARK    4  A    between atoms: N_8  and  C_10 
REMARK    5  A    between atoms: C_10  and  C_11 
REMARK    6  A    between atoms: C_12  and  C_13 
ROOT
HETATM    1  C   UNL     1      24.487  46.799  49.521  1.00  0.00     0.029 C 
HETATM    2  C   UNL     1      24.532  46.218  50.940  1.00  0.00     0.241 C 
HETATM    3  N   UNL     1      25.966  46.099  51.422  1.00  0.00    -0.067 N 
HETATM    4  H   UNL     1      26.466  45.485  50.770  1.00  0.00     0.280 HD
HETATM    5  C   UNL     1      26.680  47.424  51.411  1.00  0.00     0.235 C 
HETATM    6  C   UNL     1      26.681  47.977  49.995  1.00  0.00     0.028 C 
HETATM    7  C   UNL     1      25.266  48.122  49.450  1.00  0.00     0.009 C 
ENDROOT
BRANCH   3   8
HETATM    8  C   UNL     1      26.013  45.405  52.776  1.00  0.00     0.277 C 
BRANCH   8   9
HETATM    9  C   UNL     1      26.537  46.268  53.868  1.00  0.00     0.016 A 
HETATM   10  C   UNL     1      27.709  46.086  54.678  1.00  0.00     0.096 A 
HETATM   11  N   UNL     1      27.815  47.077  55.574  1.00  0.00    -0.174 NA
HETATM   12  N   UNL     1      26.736  47.841  55.395  1.00  0.00    -0.288 N 
HETATM   13  H   UNL     1      26.606  48.642  56.009  1.00  0.00     0.188 HD
HETATM   14  C   UNL     1      25.938  47.405  54.382  1.00  0.00     0.120 A 
BRANCH  10  15
HETATM   15  C   UNL     1      28.709  45.015  54.665  1.00  0.00    -0.003 A 
HETATM   16  C   UNL     1      29.640  44.859  55.696  1.00  0.00     0.037 A 
HETATM   17  C   UNL     1      30.588  43.835  55.641  1.00  0.00     0.035 A 
HETATM   18 CL   UNL     1      31.741  43.694  56.912  1.00  0.00    -0.084 Cl
HETATM   19  C   UNL     1      30.609  42.938  54.576  1.00  0.00     0.024 A 
HETATM   20  C   UNL     1      29.670  43.067  53.555  1.00  0.00     0.003 A 
HETATM   21  C   UNL     1      28.728  44.099  53.600  1.00  0.00     0.014 A 
ENDBRANCH  10  15
ENDBRANCH   8   9
ENDBRANCH   3   8
BRANCH   1  22
HETATM   22  C   UNL     1      23.044  47.043  49.044  1.00  0.00     0.128 C 
BRANCH  22  23
HETATM   23  N   UNL     1      22.853  48.307  48.361  1.00  0.00    -0.360 N 
HETATM   24  C   UNL     1      21.777  49.125  48.642  1.00  0.00     0.221 C 
HETATM   25  O   UNL     1      20.812  48.714  49.282  1.00  0.00    -0.273 OA
HETATM   26  H   UNL     1      23.653  48.719  47.891  1.00  0.00     0.162 HD
BRANCH  24  27
HETATM   27  C   UNL     1      21.870  50.527  48.044  1.00  0.00     0.070 C 
HETATM   28  C   UNL     1      23.141  51.235  48.509  1.00  0.00     0.019 C 
HETATM   29  C   UNL     1      20.642  51.356  48.417  1.00  0.00     0.019 C 
ENDBRANCH  24  27
ENDBRANCH  22  23
ENDBRANCH   1  22
TORSDOF 6
ENDMDL
MODEL 10
REMARK VINA RESULT:      -8.2      2.090      2.868
REMARK  6 active torsions:
REMARK  status: ('A' for Active; 'I' for Inactive)
REMARK    1  A    between atoms: C_2  and  C_3 
REMARK       I    between atoms: C_3  and  N_4 
REMARK    2  A    between atoms: N_4  and  C_5 
REMARK    3  A    between atoms: C_5  and  C_6 
REMARK    4  A    between atoms: N_8  and  C_10 
REMARK    5  A    between atoms: C_10  and  C_11 
REMARK    6  A    between atoms: C_12  and  C_13 
ROOT
HETATM    1  C   UNL     1      25.658  44.714  51.454  1.00  0.00     0.029 C 
HETATM    2  C   UNL     1      26.701  44.060  50.540  1.00  0.00     0.241 C 
HETATM    3  N   UNL     1      26.359  42.601  50.299  1.00  0.00    -0.067 N 
HETATM    4  H   UNL     1      26.338  42.129  51.210  1.00  0.00     0.280 HD
HETATM    5  C   UNL     1      24.994  42.432  49.687  1.00  0.00     0.235 C 
HETATM    6  C   UNL     1      23.954  43.036  50.617  1.00  0.00     0.028 C 
HETATM    7  C   UNL     1      24.240  44.505  50.900  1.00  0.00     0.009 C 
ENDROOT
BRANCH   3   8
HETATM    8  C   UNL     1      27.463  41.925  49.499  1.00  0.00     0.277 C 
BRANCH   8   9
HETATM    9  C   UNL     1      28.118  40.802  50.223  1.00  0.00     0.016 A 
HETATM   10  C   UNL     1      28.621  40.767  51.568  1.00  0.00     0.096 A 
HETATM   11  N   UNL     1      29.167  39.573  51.831  1.00  0.00    -0.174 NA
HETATM   12  N   UNL     1      29.075  38.878  50.697  1.00  0.00    -0.288 N 
HETATM   13  H   UNL     1      29.469  37.940  50.674  1.00  0.00     0.188 HD
HETATM   14  C   UNL     1      28.451  39.565  49.701  1.00  0.00     0.120 A 
BRANCH  10  15
HETATM   15  C   UNL     1      28.634  41.810  52.599  1.00  0.00    -0.003 A 
HETATM   16  C   UNL     1      27.486  42.155  53.317  1.00  0.00     0.037 A 
HETATM   17  C   UNL     1      27.535  43.164  54.282  1.00  0.00     0.035 A 
HETATM   18 CL   UNL     1      26.093  43.586  55.123  1.00  0.00    -0.084 Cl
HETATM   19  C   UNL     1      28.726  43.826  54.563  1.00  0.00     0.024 A 
HETATM   20  C   UNL     1      29.884  43.473  53.872  1.00  0.00     0.003 A 
HETATM   21  C   UNL     1      29.836  42.473  52.896  1.00  0.00     0.014 A 
ENDBRANCH  10  15
ENDBRANCH   8   9
ENDBRANCH   3   8
BRANCH   1  22
HETATM   22  C   UNL     1      25.908  46.224  51.626  1.00  0.00     0.128 C 
BRANCH  22  23
HETATM   23  N   UNL     1      26.328  46.895  50.413  1.00  0.00    -0.360 N 
HETATM   24  C   UNL     1      25.610  47.951  49.886  1.00  0.00     0.221 C 
HETATM   25  O   UNL     1      24.469  48.200  50.266  1.00  0.00    -0.273 OA
HETATM   26  H   UNL     1      27.291  46.779  50.113  1.00  0.00     0.162 HD
BRANCH  24  27
HETATM   27  C   UNL     1      26.326  48.715  48.774  1.00  0.00     0.070 C 
HETATM   28  C   UNL     1      27.729  49.130  49.214  1.00  0.00     0.019 C 
HETATM   29  C   UNL     1      25.521  49.947  48.360  1.00  0.00     0.019 C 
ENDBRANCH  24  27
ENDBRANCH  22  23
ENDBRANCH   1  22
TORSDOF 6
ENDMDL
