MODEL 1
REMARK VINA RESULT:     -10.8      0.000      0.000
REMARK  10 active torsions:
REMARK  status: ('A' for Active; 'I' for Inactive)
REMARK    1  A    between atoms: N_1  and  C_2 
REMARK    2  A    between atoms: C_2  and  C_3 
REMARK    3  A    between atoms: C_6  and  C_33 
REMARK    4  A    between atoms: C_8  and  C_9 
REMARK    5  A    between atoms: C_13  and  C_15 
REMARK       I    between atoms: C_15  and  N_17 
REMARK    6  A    between atoms: N_17  and  C_18 
REMARK    7  A    between atoms: C_22  and  C_23 
REMARK    8  A    between atoms: C_23  and  O_25 
REMARK    9  A    between atoms: O_25  and  C_26 
REMARK       I    between atoms: C_33  and  N_35 
REMARK   10  A    between atoms: N_35  and  C_36 
ROOT
HETATM    1  C   UNL     1      22.859  49.181  48.611  1.00  0.00    -0.024 A 
HETATM    2  C   UNL     1      23.629  50.074  47.847  1.00  0.00     0.012 A 
HETATM    3  C   UNL     1      25.026  50.111  47.944  1.00  0.00     0.002 A 
HETATM    4  C   UNL     1      25.697  49.218  48.776  1.00  0.00     0.017 A 
HETATM    5  C   UNL     1      24.961  48.294  49.519  1.00  0.00     0.033 A 
HETATM    6  C   UNL     1      23.559  48.295  49.451  1.00  0.00     0.029 A 
ENDROOT
BRANCH   1   7
HETATM    7  C   UNL     1      21.380  49.102  48.496  1.00  0.00    -0.017 A 
HETATM    8  C   UNL     1      20.663  47.915  48.202  1.00  0.00    -0.020 A 
HETATM    9  C   UNL     1      19.254  47.958  48.112  1.00  0.00     0.011 A 
HETATM   10  C   UNL     1      18.552  49.153  48.259  1.00  0.00     0.017 A 
HETATM   11  C   UNL     1      19.240  50.334  48.525  1.00  0.00     0.033 A 
HETATM   12  C   UNL     1      20.636  50.298  48.652  1.00  0.00     0.030 A 
BRANCH   8  13
HETATM   13  C   UNL     1      21.318  46.575  47.941  1.00  0.00     0.306 C 
BRANCH  13  14
HETATM   14  N   UNL     1      21.113  45.651  49.051  1.00  0.00     0.082 N 
HETATM   15  H   UNL     1      20.361  46.003  49.640  1.00  0.00     0.313 HD
HETATM   16  H   UNL     1      21.947  45.638  49.635  1.00  0.00     0.313 HD
ENDBRANCH  13  14
ENDBRANCH   8  13
BRANCH  11  17
HETATM   17  C   UNL     1      18.469  51.613  48.563  1.00  0.00     0.256 C 
HETATM   18  O   UNL     1      19.076  52.663  48.380  1.00  0.00    -0.267 OA
HETATM   19  N   UNL     1      17.112  51.496  48.795  1.00  0.00    -0.320 N 
HETATM   20  H   UNL     1      16.692  50.574  48.737  1.00  0.00     0.169 HD
BRANCH  19  21
HETATM   21  C   UNL     1      16.202  52.548  49.054  1.00  0.00     0.076 A 
HETATM   22  C   UNL     1      16.125  53.237  50.262  1.00  0.00     0.052 A 
HETATM   23  C   UNL     1      15.162  54.230  50.399  1.00  0.00     0.118 A 
HETATM   24  N   UNL     1      14.286  54.577  49.429  1.00  0.00    -0.270 NA
HETATM   25  C   UNL     1      14.378  53.892  48.266  1.00  0.00     0.160 A 
HETATM   26  C   UNL     1      15.303  52.887  48.043  1.00  0.00     0.160 A 
HETATM   27  F   UNL     1      15.331  52.244  46.866  1.00  0.00    -0.202 F 
ENDBRANCH  19  21
ENDBRANCH  11  17
ENDBRANCH   1   7
BRANCH   5  28
HETATM   28  C   UNL     1      25.623  47.202  50.276  1.00  0.00     0.256 C 
HETATM   29  O   UNL     1      26.522  46.583  49.715  1.00  0.00    -0.267 OA
HETATM   30  N   UNL     1      25.142  46.968  51.549  1.00  0.00    -0.320 N 
HETATM   31  H   UNL     1      24.238  47.358  51.795  1.00  0.00     0.169 HD
BRANCH  30  32
HETATM   32  C   UNL     1      25.710  46.085  52.500  1.00  0.00     0.075 A 
HETATM   33  C   UNL     1      25.438  44.713  52.524  1.00  0.00     0.033 A 
HETATM   34  C   UNL     1      26.030  43.889  53.484  1.00  0.00     0.003 A 
HETATM   35  C   UNL     1      26.895  44.432  54.431  1.00  0.00     0.021 A 
HETATM   36  C   UNL     1      27.188  45.802  54.416  1.00  0.00     0.080 A 
HETATM   37  C   UNL     1      26.602  46.618  53.444  1.00  0.00     0.159 A 
HETATM   38  F   UNL     1      26.837  47.940  53.412  1.00  0.00    -0.203 F 
BRANCH  36  39
HETATM   39  C   UNL     1      28.077  46.318  55.477  1.00  0.00     0.296 C 
HETATM   40  O   UNL     1      27.670  47.026  56.386  1.00  0.00    -0.259 OA
BRANCH  39  41
HETATM   41  O   UNL     1      29.344  45.863  55.333  1.00  0.00    -0.312 OA
BRANCH  41  42
HETATM   42  C   UNL     1      29.743  44.878  56.288  1.00  0.00     0.132 C 
HETATM   43  C   UNL     1      30.797  43.925  55.735  1.00  0.00     0.032 C 
HETATM   44  C   UNL     1      31.429  43.358  56.994  1.00  0.00     0.002 C 
HETATM   45  C   UNL     1      31.500  44.544  57.949  1.00  0.00     0.002 C 
HETATM   46  C   UNL     1      30.457  45.550  57.460  1.00  0.00     0.032 C 
ENDBRANCH  41  42
ENDBRANCH  39  41
ENDBRANCH  36  39
ENDBRANCH  30  32
ENDBRANCH   5  28
TORSDOF 10
ENDMDL
MODEL 2
REMARK VINA RESULT:     -10.8      3.038     12.638
REMARK  10 active torsions:
REMARK  status: ('A' for Active; 'I' for Inactive)
REMARK    1  A    between atoms: N_1  and  C_2 
REMARK    2  A    between atoms: C_2  and  C_3 
REMARK    3  A    between atoms: C_6  and  C_33 
REMARK    4  A    between atoms: C_8  and  C_9 
REMARK    5  A    between atoms: C_13  and  C_15 
REMARK       I    between atoms: C_15  and  N_17 
REMARK    6  A    between atoms: N_17  and  C_18 
REMARK    7  A    between atoms: C_22  and  C_23 
REMARK    8  A    between atoms: C_23  and  O_25 
REMARK    9  A    between atoms: O_25  and  C_26 
REMARK       I    between atoms: C_33  and  N_35 
REMARK   10  A    between atoms: N_35  and  C_36 
ROOT
HETATM    1  C   UNL     1      25.807  47.184  49.811  1.00  0.00    -0.024 A 
HETATM    2  C   UNL     1      27.073  47.754  49.603  1.00  0.00     0.012 A 
HETATM    3  C   UNL     1      27.226  48.999  48.978  1.00  0.00     0.002 A 
HETATM    4  C   UNL     1      26.108  49.732  48.588  1.00  0.00     0.017 A 
HETATM    5  C   UNL     1      24.835  49.207  48.817  1.00  0.00     0.033 A 
HETATM    6  C   UNL     1      24.692  47.939  49.401  1.00  0.00     0.029 A 
ENDROOT
BRANCH   1   7
HETATM    7  C   UNL     1      25.622  45.882  50.504  1.00  0.00    -0.017 A 
HETATM    8  C   UNL     1      24.680  44.897  50.116  1.00  0.00    -0.020 A 
HETATM    9  C   UNL     1      24.588  43.695  50.854  1.00  0.00     0.011 A 
HETATM   10  C   UNL     1      25.372  43.474  51.985  1.00  0.00     0.017 A 
HETATM   11  C   UNL     1      26.287  44.439  52.395  1.00  0.00     0.033 A 
HETATM   12  C   UNL     1      26.413  45.622  51.651  1.00  0.00     0.030 A 
BRANCH   8  13
HETATM   13  C   UNL     1      23.718  45.056  48.958  1.00  0.00     0.306 C 
BRANCH  13  14
HETATM   14  N   UNL     1      22.334  45.117  49.414  1.00  0.00     0.082 N 
HETATM   15  H   UNL     1      22.094  44.236  49.864  1.00  0.00     0.313 HD
HETATM   16  H   UNL     1      21.718  45.199  48.607  1.00  0.00     0.313 HD
ENDBRANCH  13  14
ENDBRANCH   8  13
BRANCH  11  17
HETATM   17  C   UNL     1      27.027  44.220  53.674  1.00  0.00     0.256 C 
HETATM   18  O   UNL     1      26.378  43.990  54.689  1.00  0.00    -0.267 OA
HETATM   19  N   UNL     1      28.405  44.289  53.596  1.00  0.00    -0.320 N 
HETATM   20  H   UNL     1      28.835  44.290  52.677  1.00  0.00     0.169 HD
BRANCH  19  21
HETATM   21  C   UNL     1      29.316  44.297  54.678  1.00  0.00     0.076 A 
HETATM   22  C   UNL     1      30.150  43.231  55.008  1.00  0.00     0.052 A 
HETATM   23  C   UNL     1      30.978  43.355  56.117  1.00  0.00     0.118 A 
HETATM   24  N   UNL     1      31.031  44.452  56.906  1.00  0.00    -0.270 NA
HETATM   25  C   UNL     1      30.210  45.473  56.568  1.00  0.00     0.160 A 
HETATM   26  C   UNL     1      29.352  45.435  55.483  1.00  0.00     0.160 A 
HETATM   27  F   UNL     1      28.559  46.483  55.212  1.00  0.00    -0.202 F 
ENDBRANCH  19  21
ENDBRANCH  11  17
ENDBRANCH   1   7
BRANCH   5  28
HETATM   28  C   UNL     1      23.610  50.017  48.594  1.00  0.00     0.256 C 
HETATM   29  O   UNL     1      23.676  50.942  47.791  1.00  0.00    -0.267 OA
HETATM   30  N   UNL     1      22.504  49.661  49.341  1.00  0.00    -0.320 N 
HETATM   31  H   UNL     1      22.648  49.064  50.149  1.00  0.00     0.169 HD
BRANCH  30  32
HETATM   32  C   UNL     1      21.199  50.190  49.191  1.00  0.00     0.075 A 
HETATM   33  C   UNL     1      20.651  51.127  50.073  1.00  0.00     0.033 A 
HETATM   34  C   UNL     1      19.358  51.618  49.875  1.00  0.00     0.003 A 
HETATM   35  C   UNL     1      18.601  51.170  48.795  1.00  0.00     0.021 A 
HETATM   36  C   UNL     1      19.137  50.240  47.895  1.00  0.00     0.080 A 
HETATM   37  C   UNL     1      20.437  49.764  48.093  1.00  0.00     0.159 A 
HETATM   38  F   UNL     1      20.976  48.852  47.267  1.00  0.00    -0.203 F 
BRANCH  36  39
HETATM   39  C   UNL     1      18.263  49.774  46.798  1.00  0.00     0.296 C 
HETATM   40  O   UNL     1      17.300  49.047  46.992  1.00  0.00    -0.259 OA
BRANCH  39  41
HETATM   41  O   UNL     1      18.636  50.295  45.606  1.00  0.00    -0.312 OA
BRANCH  41  42
HETATM   42  C   UNL     1      17.605  50.991  44.903  1.00  0.00     0.132 C 
HETATM   43  C   UNL     1      17.354  52.384  45.469  1.00  0.00     0.032 C 
HETATM   44  C   UNL     1      16.667  53.095  44.316  1.00  0.00     0.002 C 
HETATM   45  C   UNL     1      17.397  52.595  43.074  1.00  0.00     0.002 C 
HETATM   46  C   UNL     1      18.052  51.271  43.468  1.00  0.00     0.032 C 
ENDBRANCH  41  42
ENDBRANCH  39  41
ENDBRANCH  36  39
ENDBRANCH  30  32
ENDBRANCH   5  28
TORSDOF 10
ENDMDL
MODEL 3
REMARK VINA RESULT:     -10.7      2.637     12.700
REMARK  10 active torsions:
REMARK  status: ('A' for Active; 'I' for Inactive)
REMARK    1  A    between atoms: N_1  and  C_2 
REMARK    2  A    between atoms: C_2  and  C_3 
REMARK    3  A    between atoms: C_6  and  C_33 
REMARK    4  A    between atoms: C_8  and  C_9 
REMARK    5  A    between atoms: C_13  and  C_15 
REMARK       I    between atoms: C_15  and  N_17 
REMARK    6  A    between atoms: N_17  and  C_18 
REMARK    7  A    between atoms: C_22  and  C_23 
REMARK    8  A    between atoms: C_23  and  O_25 
REMARK    9  A    between atoms: O_25  and  C_26 
REMARK       I    between atoms: C_33  and  N_35 
REMARK   10  A    between atoms: N_35  and  C_36 
ROOT
HETATM    1  C   UNL     1      25.623  47.493  50.145  1.00  0.00    -0.024 A 
HETATM    2  C   UNL     1      26.676  48.308  49.700  1.00  0.00     0.012 A 
HETATM    3  C   UNL     1      26.463  49.357  48.796  1.00  0.00     0.002 A 
HETATM    4  C   UNL     1      25.177  49.652  48.350  1.00  0.00     0.017 A 
HETATM    5  C   UNL     1      24.106  48.882  48.805  1.00  0.00     0.033 A 
HETATM    6  C   UNL     1      24.333  47.803  49.673  1.00  0.00     0.029 A 
ENDROOT
BRANCH   1   7
HETATM    7  C   UNL     1      25.822  46.398  51.130  1.00  0.00    -0.017 A 
HETATM    8  C   UNL     1      25.229  45.115  51.031  1.00  0.00    -0.020 A 
HETATM    9  C   UNL     1      25.486  44.151  52.032  1.00  0.00     0.011 A 
HETATM   10  C   UNL     1      26.276  44.448  53.141  1.00  0.00     0.017 A 
HETATM   11  C   UNL     1      26.849  45.710  53.268  1.00  0.00     0.033 A 
HETATM   12  C   UNL     1      26.630  46.664  52.264  1.00  0.00     0.030 A 
BRANCH   8  13
HETATM   13  C   UNL     1      24.289  44.702  49.918  1.00  0.00     0.306 C 
BRANCH  13  14
HETATM   14  N   UNL     1      25.017  44.183  48.765  1.00  0.00     0.082 N 
HETATM   15  H   UNL     1      25.463  43.305  49.023  1.00  0.00     0.313 HD
HETATM   16  H   UNL     1      25.772  44.825  48.529  1.00  0.00     0.313 HD
ENDBRANCH  13  14
ENDBRANCH   8  13
BRANCH  11  17
HETATM   17  C   UNL     1      27.594  46.030  54.523  1.00  0.00     0.256 C 
HETATM   18  O   UNL     1      27.505  47.166  54.977  1.00  0.00    -0.267 OA
HETATM   19  N   UNL     1      28.322  44.995  55.076  1.00  0.00    -0.320 N 
HETATM   20  H   UNL     1      28.166  44.056  54.726  1.00  0.00     0.169 HD
BRANCH  19  21
HETATM   21  C   UNL     1      29.244  45.083  56.146  1.00  0.00     0.076 A 
HETATM   22  C   UNL     1      29.102  45.943  57.233  1.00  0.00     0.052 A 
HETATM   23  C   UNL     1      30.098  45.956  58.202  1.00  0.00     0.118 A 
HETATM   24  N   UNL     1      31.206  45.182  58.162  1.00  0.00    -0.270 NA
HETATM   25  C   UNL     1      31.324  44.359  57.096  1.00  0.00     0.160 A 
HETATM   26  C   UNL     1      30.383  44.282  56.083  1.00  0.00     0.160 A 
HETATM   27  F   UNL     1      30.570  43.447  55.050  1.00  0.00    -0.202 F 
ENDBRANCH  19  21
ENDBRANCH  11  17
ENDBRANCH   1   7
BRANCH   5  28
HETATM   28  C   UNL     1      22.699  49.259  48.513  1.00  0.00     0.256 C 
HETATM   29  O   UNL     1      22.451  49.722  47.404  1.00  0.00    -0.267 OA
HETATM   30  N   UNL     1      21.795  49.073  49.541  1.00  0.00    -0.320 N 
HETATM   31  H   UNL     1      22.162  48.938  50.478  1.00  0.00     0.169 HD
BRANCH  30  32
HETATM   32  C   UNL     1      20.390  49.223  49.446  1.00  0.00     0.075 A 
HETATM   33  C   UNL     1      19.518  48.141  49.281  1.00  0.00     0.033 A 
HETATM   34  C   UNL     1      18.139  48.347  49.197  1.00  0.00     0.003 A 
HETATM   35  C   UNL     1      17.622  49.639  49.270  1.00  0.00     0.021 A 
HETATM   36  C   UNL     1      18.480  50.733  49.446  1.00  0.00     0.080 A 
HETATM   37  C   UNL     1      19.857  50.517  49.543  1.00  0.00     0.159 A 
HETATM   38  F   UNL     1      20.713  51.542  49.686  1.00  0.00    -0.203 F 
BRANCH  36  39
HETATM   39  C   UNL     1      17.868  52.078  49.470  1.00  0.00     0.296 C 
HETATM   40  O   UNL     1      18.363  53.034  48.892  1.00  0.00    -0.259 OA
BRANCH  39  41
HETATM   41  O   UNL     1      16.697  52.082  50.150  1.00  0.00    -0.312 OA
BRANCH  41  42
HETATM   42  C   UNL     1      15.859  53.213  49.902  1.00  0.00     0.132 C 
HETATM   43  C   UNL     1      15.094  53.093  48.588  1.00  0.00     0.032 C 
HETATM   44  C   UNL     1      13.942  54.063  48.783  1.00  0.00     0.002 C 
HETATM   45  C   UNL     1      13.536  53.880  50.241  1.00  0.00     0.002 C 
HETATM   46  C   UNL     1      14.749  53.277  50.950  1.00  0.00     0.032 C 
ENDBRANCH  41  42
ENDBRANCH  39  41
ENDBRANCH  36  39
ENDBRANCH  30  32
ENDBRANCH   5  28
TORSDOF 10
ENDMDL
MODEL 4
REMARK VINA RESULT:     -10.6      3.209     12.566
REMARK  10 active torsions:
REMARK  status: ('A' for Active; 'I' for Inactive)
REMARK    1  A    between atoms: N_1  and  C_2 
REMARK    2  A    between atoms: C_2  and  C_3 
REMARK    3  A    between atoms: C_6  and  C_33 
REMARK    4  A    between atoms: C_8  and  C_9 
REMARK    5  A    between atoms: C_13  and  C_15 
REMARK       I    between atoms: C_15  and  N_17 
REMARK    6  A    between atoms: N_17  and  C_18 
REMARK    7  A    between atoms: C_22  and  C_23 
REMARK    8  A    between atoms: C_23  and  O_25 
REMARK    9  A    between atoms: O_25  and  C_26 
REMARK       I    between atoms: C_33  and  N_35 
REMARK   10  A    between atoms: N_35  and  C_36 
ROOT
HETATM    1  C   UNL     1      25.746  47.218  49.843  1.00  0.00    -0.024 A 
HETATM    2  C   UNL     1      26.984  47.876  49.762  1.00  0.00     0.012 A 
HETATM    3  C   UNL     1      27.125  49.099  49.093  1.00  0.00     0.002 A 
HETATM    4  C   UNL     1      26.016  49.723  48.527  1.00  0.00     0.017 A 
HETATM    5  C   UNL     1      24.765  49.110  48.625  1.00  0.00     0.033 A 
HETATM    6  C   UNL     1      24.641  47.863  49.256  1.00  0.00     0.029 A 
ENDROOT
BRANCH   1   7
HETATM    7  C   UNL     1      25.570  45.939  50.578  1.00  0.00    -0.017 A 
HETATM    8  C   UNL     1      24.663  44.917  50.200  1.00  0.00    -0.020 A 
HETATM    9  C   UNL     1      24.576  43.741  50.979  1.00  0.00     0.011 A 
HETATM   10  C   UNL     1      25.329  43.582  52.141  1.00  0.00     0.017 A 
HETATM   11  C   UNL     1      26.208  44.583  52.542  1.00  0.00     0.033 A 
HETATM   12  C   UNL     1      26.330  45.740  51.758  1.00  0.00     0.030 A 
BRANCH   8  13
HETATM   13  C   UNL     1      23.735  45.010  49.008  1.00  0.00     0.306 C 
BRANCH  13  14
HETATM   14  N   UNL     1      22.336  45.065  49.419  1.00  0.00     0.082 N 
HETATM   15  H   UNL     1      22.209  45.848  50.057  1.00  0.00     0.313 HD
HETATM   16  H   UNL     1      22.110  44.227  49.953  1.00  0.00     0.313 HD
ENDBRANCH  13  14
ENDBRANCH   8  13
BRANCH  11  17
HETATM   17  C   UNL     1      26.913  44.430  53.850  1.00  0.00     0.256 C 
HETATM   18  O   UNL     1      26.244  44.159  54.842  1.00  0.00    -0.267 OA
HETATM   19  N   UNL     1      28.283  44.600  53.823  1.00  0.00    -0.320 N 
HETATM   20  H   UNL     1      28.748  44.626  52.922  1.00  0.00     0.169 HD
BRANCH  19  21
HETATM   21  C   UNL     1      29.150  44.684  54.939  1.00  0.00     0.076 A 
HETATM   22  C   UNL     1      29.121  45.714  55.877  1.00  0.00     0.052 A 
HETATM   23  C   UNL     1      30.050  45.696  56.910  1.00  0.00     0.118 A 
HETATM   24  N   UNL     1      30.990  44.737  57.069  1.00  0.00    -0.270 NA
HETATM   25  C   UNL     1      31.000  43.749  56.145  1.00  0.00     0.160 A 
HETATM   26  C   UNL     1      30.115  43.688  55.083  1.00  0.00     0.160 A 
HETATM   27  F   UNL     1      30.190  42.682  54.199  1.00  0.00    -0.202 F 
ENDBRANCH  19  21
ENDBRANCH  11  17
ENDBRANCH   1   7
BRANCH   5  28
HETATM   28  C   UNL     1      23.523  49.808  48.207  1.00  0.00     0.256 C 
HETATM   29  O   UNL     1      23.539  50.409  47.137  1.00  0.00    -0.267 OA
HETATM   30  N   UNL     1      22.461  49.735  49.086  1.00  0.00    -0.320 N 
HETATM   31  H   UNL     1      22.652  49.443  50.040  1.00  0.00     0.169 HD
BRANCH  30  32
HETATM   32  C   UNL     1      21.145  50.195  48.836  1.00  0.00     0.075 A 
HETATM   33  C   UNL     1      20.801  51.550  48.820  1.00  0.00     0.033 A 
HETATM   34  C   UNL     1      19.487  51.947  48.564  1.00  0.00     0.003 A 
HETATM   35  C   UNL     1      18.504  50.990  48.327  1.00  0.00     0.021 A 
HETATM   36  C   UNL     1      18.831  49.627  48.327  1.00  0.00     0.080 A 
HETATM   37  C   UNL     1      20.152  49.239  48.571  1.00  0.00     0.159 A 
HETATM   38  F   UNL     1      20.500  47.942  48.606  1.00  0.00    -0.203 F 
BRANCH  36  39
HETATM   39  C   UNL     1      17.731  48.664  48.114  1.00  0.00     0.296 C 
HETATM   40  O   UNL     1      17.281  47.972  49.015  1.00  0.00    -0.259 OA
BRANCH  39  41
HETATM   41  O   UNL     1      17.275  48.701  46.840  1.00  0.00    -0.312 OA
BRANCH  41  42
HETATM   42  C   UNL     1      16.010  48.068  46.633  1.00  0.00     0.132 C 
HETATM   43  C   UNL     1      14.870  49.073  46.510  1.00  0.00     0.032 C 
HETATM   44  C   UNL     1      13.795  48.272  45.796  1.00  0.00     0.002 C 
HETATM   45  C   UNL     1      14.560  47.439  44.774  1.00  0.00     0.002 C 
HETATM   46  C   UNL     1      16.000  47.358  45.280  1.00  0.00     0.032 C 
ENDBRANCH  41  42
ENDBRANCH  39  41
ENDBRANCH  36  39
ENDBRANCH  30  32
ENDBRANCH   5  28
TORSDOF 10
ENDMDL
MODEL 5
REMARK VINA RESULT:     -10.6      1.769      2.311
REMARK  10 active torsions:
REMARK  status: ('A' for Active; 'I' for Inactive)
REMARK    1  A    between atoms: N_1  and  C_2 
REMARK    2  A    between atoms: C_2  and  C_3 
REMARK    3  A    between atoms: C_6  and  C_33 
REMARK    4  A    between atoms: C_8  and  C_9 
REMARK    5  A    between atoms: C_13  and  C_15 
REMARK       I    between atoms: C_15  and  N_17 
REMARK    6  A    between atoms: N_17  and  C_18 
REMARK    7  A    between atoms: C_22  and  C_23 
REMARK    8  A    between atoms: C_23  and  O_25 
REMARK    9  A    between atoms: O_25  and  C_26 
REMARK       I    between atoms: C_33  and  N_35 
REMARK   10  A    between atoms: N_35  and  C_36 
ROOT
HETATM    1  C   UNL     1      21.234  49.320  48.676  1.00  0.00    -0.024 A 
HETATM    2  C   UNL     1      21.467  50.638  48.247  1.00  0.00     0.012 A 
HETATM    3  C   UNL     1      22.743  51.213  48.297  1.00  0.00     0.002 A 
HETATM    4  C   UNL     1      23.835  50.466  48.733  1.00  0.00     0.017 A 
HETATM    5  C   UNL     1      23.640  49.142  49.130  1.00  0.00     0.033 A 
HETATM    6  C   UNL     1      22.351  48.588  49.121  1.00  0.00     0.029 A 
ENDROOT
BRANCH   1   7
HETATM    7  C   UNL     1      19.895  48.680  48.597  1.00  0.00    -0.017 A 
HETATM    8  C   UNL     1      19.680  47.280  48.541  1.00  0.00    -0.020 A 
HETATM    9  C   UNL     1      18.359  46.783  48.463  1.00  0.00     0.011 A 
HETATM   10  C   UNL     1      17.262  47.639  48.393  1.00  0.00     0.017 A 
HETATM   11  C   UNL     1      17.454  49.018  48.425  1.00  0.00     0.033 A 
HETATM   12  C   UNL     1      18.757  49.524  48.537  1.00  0.00     0.030 A 
BRANCH   8  13
HETATM   13  C   UNL     1      20.793  46.254  48.526  1.00  0.00     0.306 C 
BRANCH  13  14
HETATM   14  N   UNL     1      20.554  45.189  49.494  1.00  0.00     0.082 N 
HETATM   15  H   UNL     1      21.024  45.423  50.366  1.00  0.00     0.313 HD
HETATM   16  H   UNL     1      20.988  44.329  49.160  1.00  0.00     0.313 HD
ENDBRANCH  13  14
ENDBRANCH   8  13
BRANCH  11  17
HETATM   17  C   UNL     1      16.269  49.906  48.233  1.00  0.00     0.256 C 
HETATM   18  O   UNL     1      15.194  49.387  47.949  1.00  0.00    -0.267 OA
HETATM   19  N   UNL     1      16.490  51.258  48.406  1.00  0.00    -0.320 N 
HETATM   20  H   UNL     1      17.365  51.552  48.828  1.00  0.00     0.169 HD
BRANCH  19  21
HETATM   21  C   UNL     1      15.591  52.310  48.110  1.00  0.00     0.076 A 
HETATM   22  C   UNL     1      15.186  52.655  46.823  1.00  0.00     0.052 A 
HETATM   23  C   UNL     1      14.322  53.732  46.666  1.00  0.00     0.118 A 
HETATM   24  N   UNL     1      13.843  54.476  47.689  1.00  0.00    -0.270 NA
HETATM   25  C   UNL     1      14.253  54.124  48.928  1.00  0.00     0.160 A 
HETATM   26  C   UNL     1      15.112  53.069  49.178  1.00  0.00     0.160 A 
HETATM   27  F   UNL     1      15.484  52.782  50.435  1.00  0.00    -0.202 F 
ENDBRANCH  19  21
ENDBRANCH  11  17
ENDBRANCH   1   7
BRANCH   5  28
HETATM   28  C   UNL     1      24.784  48.244  49.427  1.00  0.00     0.256 C 
HETATM   29  O   UNL     1      25.915  48.675  49.221  1.00  0.00    -0.267 OA
HETATM   30  N   UNL     1      24.463  46.983  49.890  1.00  0.00    -0.320 N 
HETATM   31  H   UNL     1      23.508  46.660  49.765  1.00  0.00     0.169 HD
BRANCH  30  32
HETATM   32  C   UNL     1      25.381  46.018  50.372  1.00  0.00     0.075 A 
HETATM   33  C   UNL     1      26.019  45.092  49.541  1.00  0.00     0.033 A 
HETATM   34  C   UNL     1      26.919  44.165  50.070  1.00  0.00     0.003 A 
HETATM   35  C   UNL     1      27.182  44.152  51.438  1.00  0.00     0.021 A 
HETATM   36  C   UNL     1      26.560  45.080  52.285  1.00  0.00     0.080 A 
HETATM   37  C   UNL     1      25.672  46.014  51.744  1.00  0.00     0.159 A 
HETATM   38  F   UNL     1      25.035  46.902  52.527  1.00  0.00    -0.203 F 
BRANCH  36  39
HETATM   39  C   UNL     1      26.850  44.981  53.731  1.00  0.00     0.296 C 
HETATM   40  O   UNL     1      26.029  44.571  54.537  1.00  0.00    -0.259 OA
BRANCH  39  41
HETATM   41  O   UNL     1      28.125  45.342  54.010  1.00  0.00    -0.312 OA
BRANCH  41  42
HETATM   42  C   UNL     1      28.779  44.534  54.991  1.00  0.00     0.132 C 
HETATM   43  C   UNL     1      29.736  43.524  54.369  1.00  0.00     0.032 C 
HETATM   44  C   UNL     1      30.661  43.183  55.524  1.00  0.00     0.002 C 
HETATM   45  C   UNL     1      30.875  44.511  56.242  1.00  0.00     0.002 C 
HETATM   46  C   UNL     1      29.696  45.403  55.852  1.00  0.00     0.032 C 
ENDBRANCH  41  42
ENDBRANCH  39  41
ENDBRANCH  36  39
ENDBRANCH  30  32
ENDBRANCH   5  28
TORSDOF 10
ENDMDL
MODEL 6
REMARK VINA RESULT:     -10.6      3.170     12.005
REMARK  10 active torsions:
REMARK  status: ('A' for Active; 'I' for Inactive)
REMARK    1  A    between atoms: N_1  and  C_2 
REMARK    2  A    between atoms: C_2  and  C_3 
REMARK    3  A    between atoms: C_6  and  C_33 
REMARK    4  A    between atoms: C_8  and  C_9 
REMARK    5  A    between atoms: C_13  and  C_15 
REMARK       I    between atoms: C_15  and  N_17 
REMARK    6  A    between atoms: N_17  and  C_18 
REMARK    7  A    between atoms: C_22  and  C_23 
REMARK    8  A    between atoms: C_23  and  O_25 
REMARK    9  A    between atoms: O_25  and  C_26 
REMARK       I    between atoms: C_33  and  N_35 
REMARK   10  A    between atoms: N_35  and  C_36 
ROOT
HETATM    1  C   UNL     1      25.913  47.170  49.846  1.00  0.00    -0.024 A 
HETATM    2  C   UNL     1      27.194  47.738  49.753  1.00  0.00     0.012 A 
HETATM    3  C   UNL     1      27.411  48.963  49.109  1.00  0.00     0.002 A 
HETATM    4  C   UNL     1      26.340  49.681  48.583  1.00  0.00     0.017 A 
HETATM    5  C   UNL     1      25.050  49.159  48.694  1.00  0.00     0.033 A 
HETATM    6  C   UNL     1      24.847  47.909  49.298  1.00  0.00     0.029 A 
ENDROOT
BRANCH   1   7
HETATM    7  C   UNL     1      25.657  45.890  50.555  1.00  0.00    -0.017 A 
HETATM    8  C   UNL     1      24.636  44.971  50.204  1.00  0.00    -0.020 A 
HETATM    9  C   UNL     1      24.481  43.784  50.955  1.00  0.00     0.011 A 
HETATM   10  C   UNL     1      25.281  43.516  52.064  1.00  0.00     0.017 A 
HETATM   11  C   UNL     1      26.275  44.416  52.438  1.00  0.00     0.033 A 
HETATM   12  C   UNL     1      26.462  45.581  51.681  1.00  0.00     0.030 A 
BRANCH   8  13
HETATM   13  C   UNL     1      23.653  45.191  49.074  1.00  0.00     0.306 C 
BRANCH  13  14
HETATM   14  N   UNL     1      22.273  45.045  49.526  1.00  0.00     0.082 N 
HETATM   15  H   UNL     1      21.708  45.780  49.105  1.00  0.00     0.313 HD
HETATM   16  H   UNL     1      22.232  45.197  50.532  1.00  0.00     0.313 HD
ENDBRANCH  13  14
ENDBRANCH   8  13
BRANCH  11  17
HETATM   17  C   UNL     1      27.036  44.153  53.696  1.00  0.00     0.256 C 
HETATM   18  O   UNL     1      26.415  43.764  54.680  1.00  0.00    -0.267 OA
HETATM   19  N   UNL     1      28.399  44.367  53.636  1.00  0.00    -0.320 N 
HETATM   20  H   UNL     1      28.825  44.499  52.724  1.00  0.00     0.169 HD
BRANCH  19  21
HETATM   21  C   UNL     1      29.307  44.366  54.720  1.00  0.00     0.076 A 
HETATM   22  C   UNL     1      30.150  43.302  55.034  1.00  0.00     0.052 A 
HETATM   23  C   UNL     1      30.974  43.415  56.148  1.00  0.00     0.118 A 
HETATM   24  N   UNL     1      31.013  44.498  56.956  1.00  0.00    -0.270 NA
HETATM   25  C   UNL     1      30.184  45.517  56.633  1.00  0.00     0.160 A 
HETATM   26  C   UNL     1      29.330  45.490  55.545  1.00  0.00     0.160 A 
HETATM   27  F   UNL     1      28.528  46.535  55.290  1.00  0.00    -0.202 F 
ENDBRANCH  19  21
ENDBRANCH  11  17
ENDBRANCH   1   7
BRANCH   5  28
HETATM   28  C   UNL     1      23.855  49.957  48.320  1.00  0.00     0.256 C 
HETATM   29  O   UNL     1      23.988  50.807  47.445  1.00  0.00    -0.267 OA
HETATM   30  N   UNL     1      22.697  49.680  49.019  1.00  0.00    -0.320 N 
HETATM   31  H   UNL     1      22.778  49.155  49.885  1.00  0.00     0.169 HD
BRANCH  30  32
HETATM   32  C   UNL     1      21.412  50.206  48.737  1.00  0.00     0.075 A 
HETATM   33  C   UNL     1      20.862  51.287  49.433  1.00  0.00     0.033 A 
HETATM   34  C   UNL     1      19.591  51.767  49.110  1.00  0.00     0.003 A 
HETATM   35  C   UNL     1      18.857  51.165  48.091  1.00  0.00     0.021 A 
HETATM   36  C   UNL     1      19.397  50.087  47.375  1.00  0.00     0.080 A 
HETATM   37  C   UNL     1      20.675  49.622  47.696  1.00  0.00     0.159 A 
HETATM   38  F   UNL     1      21.216  48.575  47.051  1.00  0.00    -0.203 F 
BRANCH  36  39
HETATM   39  C   UNL     1      18.546  49.467  46.338  1.00  0.00     0.296 C 
HETATM   40  O   UNL     1      18.564  49.831  45.172  1.00  0.00    -0.259 OA
BRANCH  39  41
HETATM   41  O   UNL     1      17.817  48.442  46.838  1.00  0.00    -0.312 OA
BRANCH  41  42
HETATM   42  C   UNL     1      18.322  47.139  46.537  1.00  0.00     0.132 C 
HETATM   43  C   UNL     1      18.746  46.377  47.787  1.00  0.00     0.032 C 
HETATM   44  C   UNL     1      18.729  44.932  47.321  1.00  0.00     0.002 C 
HETATM   45  C   UNL     1      17.505  44.842  46.415  1.00  0.00     0.002 C 
HETATM   46  C   UNL     1      17.205  46.270  45.959  1.00  0.00     0.032 C 
ENDBRANCH  41  42
ENDBRANCH  39  41
ENDBRANCH  36  39
ENDBRANCH  30  32
ENDBRANCH   5  28
TORSDOF 10
ENDMDL
MODEL 7
REMARK VINA RESULT:     -10.6      3.491      5.726
REMARK  10 active torsions:
REMARK  status: ('A' for Active; 'I' for Inactive)
REMARK    1  A    between atoms: N_1  and  C_2 
REMARK    2  A    between atoms: C_2  and  C_3 
REMARK    3  A    between atoms: C_6  and  C_33 
REMARK    4  A    between atoms: C_8  and  C_9 
REMARK    5  A    between atoms: C_13  and  C_15 
REMARK       I    between atoms: C_15  and  N_17 
REMARK    6  A    between atoms: N_17  and  C_18 
REMARK    7  A    between atoms: C_22  and  C_23 
REMARK    8  A    between atoms: C_23  and  O_25 
REMARK    9  A    between atoms: O_25  and  C_26 
REMARK       I    between atoms: C_33  and  N_35 
REMARK   10  A    between atoms: N_35  and  C_36 
ROOT
HETATM    1  C   UNL     1      21.049  49.212  48.735  1.00  0.00    -0.024 A 
HETATM    2  C   UNL     1      21.215  50.546  48.328  1.00  0.00     0.012 A 
HETATM    3  C   UNL     1      22.457  51.190  48.406  1.00  0.00     0.002 A 
HETATM    4  C   UNL     1      23.582  50.498  48.848  1.00  0.00     0.017 A 
HETATM    5  C   UNL     1      23.455  49.160  49.223  1.00  0.00     0.033 A 
HETATM    6  C   UNL     1      22.198  48.536  49.186  1.00  0.00     0.029 A 
ENDROOT
BRANCH   1   7
HETATM    7  C   UNL     1      19.749  48.501  48.626  1.00  0.00    -0.017 A 
HETATM    8  C   UNL     1      18.766  48.473  49.646  1.00  0.00    -0.020 A 
HETATM    9  C   UNL     1      17.565  47.758  49.434  1.00  0.00     0.011 A 
HETATM   10  C   UNL     1      17.344  47.039  48.261  1.00  0.00     0.017 A 
HETATM   11  C   UNL     1      18.307  47.036  47.256  1.00  0.00     0.033 A 
HETATM   12  C   UNL     1      19.488  47.770  47.440  1.00  0.00     0.030 A 
BRANCH   8  13
HETATM   13  C   UNL     1      18.926  49.144  50.994  1.00  0.00     0.306 C 
BRANCH  13  14
HETATM   14  N   UNL     1      18.601  48.236  52.088  1.00  0.00     0.082 N 
HETATM   15  H   UNL     1      17.822  47.643  51.807  1.00  0.00     0.313 HD
HETATM   16  H   UNL     1      18.271  48.776  52.886  1.00  0.00     0.313 HD
ENDBRANCH  13  14
ENDBRANCH   8  13
BRANCH  11  17
HETATM   17  C   UNL     1      18.088  46.165  46.063  1.00  0.00     0.256 C 
HETATM   18  O   UNL     1      16.934  45.921  45.726  1.00  0.00    -0.267 OA
HETATM   19  N   UNL     1      19.227  45.711  45.427  1.00  0.00    -0.320 N 
HETATM   20  H   UNL     1      20.117  46.132  45.674  1.00  0.00     0.169 HD
BRANCH  19  21
HETATM   21  C   UNL     1      19.296  44.741  44.400  1.00  0.00     0.076 A 
HETATM   22  C   UNL     1      19.283  45.039  43.039  1.00  0.00     0.052 A 
HETATM   23  C   UNL     1      19.323  43.989  42.130  1.00  0.00     0.118 A 
HETATM   24  N   UNL     1      19.374  42.684  42.479  1.00  0.00    -0.270 NA
HETATM   25  C   UNL     1      19.382  42.418  43.805  1.00  0.00     0.160 A 
HETATM   26  C   UNL     1      19.342  43.400  44.780  1.00  0.00     0.160 A 
HETATM   27  F   UNL     1      19.344  43.062  46.079  1.00  0.00    -0.202 F 
ENDBRANCH  19  21
ENDBRANCH  11  17
ENDBRANCH   1   7
BRANCH   5  28
HETATM   28  C   UNL     1      24.643  48.322  49.524  1.00  0.00     0.256 C 
HETATM   29  O   UNL     1      25.750  48.838  49.406  1.00  0.00    -0.267 OA
HETATM   30  N   UNL     1      24.387  47.015  49.891  1.00  0.00    -0.320 N 
HETATM   31  H   UNL     1      23.464  46.639  49.696  1.00  0.00     0.169 HD
BRANCH  30  32
HETATM   32  C   UNL     1      25.344  46.083  50.361  1.00  0.00     0.075 A 
HETATM   33  C   UNL     1      25.987  45.163  49.526  1.00  0.00     0.033 A 
HETATM   34  C   UNL     1      26.926  44.269  50.043  1.00  0.00     0.003 A 
HETATM   35  C   UNL     1      27.227  44.284  51.403  1.00  0.00     0.021 A 
HETATM   36  C   UNL     1      26.602  45.206  52.254  1.00  0.00     0.080 A 
HETATM   37  C   UNL     1      25.672  46.107  51.725  1.00  0.00     0.159 A 
HETATM   38  F   UNL     1      25.033  46.988  52.512  1.00  0.00    -0.203 F 
BRANCH  36  39
HETATM   39  C   UNL     1      26.933  45.136  53.692  1.00  0.00     0.296 C 
HETATM   40  O   UNL     1      26.100  44.870  54.545  1.00  0.00    -0.259 OA
BRANCH  39  41
HETATM   41  O   UNL     1      28.253  45.345  53.911  1.00  0.00    -0.312 OA
BRANCH  41  42
HETATM   42  C   UNL     1      28.839  44.506  54.908  1.00  0.00     0.132 C 
HETATM   43  C   UNL     1      29.852  43.528  54.324  1.00  0.00     0.032 C 
HETATM   44  C   UNL     1      30.690  43.151  55.533  1.00  0.00     0.002 C 
HETATM   45  C   UNL     1      30.834  44.452  56.314  1.00  0.00     0.002 C 
HETATM   46  C   UNL     1      29.678  45.349  55.869  1.00  0.00     0.032 C 
ENDBRANCH  41  42
ENDBRANCH  39  41
ENDBRANCH  36  39
ENDBRANCH  30  32
ENDBRANCH   5  28
TORSDOF 10
ENDMDL
MODEL 8
REMARK VINA RESULT:     -10.3      3.383      4.150
REMARK  10 active torsions:
REMARK  status: ('A' for Active; 'I' for Inactive)
REMARK    1  A    between atoms: N_1  and  C_2 
REMARK    2  A    between atoms: C_2  and  C_3 
REMARK    3  A    between atoms: C_6  and  C_33 
REMARK    4  A    between atoms: C_8  and  C_9 
REMARK    5  A    between atoms: C_13  and  C_15 
REMARK       I    between atoms: C_15  and  N_17 
REMARK    6  A    between atoms: N_17  and  C_18 
REMARK    7  A    between atoms: C_22  and  C_23 
REMARK    8  A    between atoms: C_23  and  O_25 
REMARK    9  A    between atoms: O_25  and  C_26 
REMARK       I    between atoms: C_33  and  N_35 
REMARK   10  A    between atoms: N_35  and  C_36 
ROOT
HETATM    1  C   UNL     1      21.165  49.911  48.509  1.00  0.00    -0.024 A 
HETATM    2  C   UNL     1      22.004  51.011  48.266  1.00  0.00     0.012 A 
HETATM    3  C   UNL     1      23.386  50.945  48.487  1.00  0.00     0.002 A 
HETATM    4  C   UNL     1      23.975  49.756  48.911  1.00  0.00     0.017 A 
HETATM    5  C   UNL     1      23.170  48.635  49.124  1.00  0.00     0.033 A 
HETATM    6  C   UNL     1      21.781  48.723  48.946  1.00  0.00     0.029 A 
ENDROOT
BRANCH   1   7
HETATM    7  C   UNL     1      19.703  49.950  48.246  1.00  0.00    -0.017 A 
HETATM    8  C   UNL     1      18.707  49.728  49.231  1.00  0.00    -0.020 A 
HETATM    9  C   UNL     1      17.343  49.786  48.866  1.00  0.00     0.011 A 
HETATM   10  C   UNL     1      16.953  50.010  47.547  1.00  0.00     0.017 A 
HETATM   11  C   UNL     1      17.915  50.208  46.561  1.00  0.00     0.033 A 
HETATM   12  C   UNL     1      19.272  50.189  46.917  1.00  0.00     0.030 A 
BRANCH   8  13
HETATM   13  C   UNL     1      19.008  49.394  50.677  1.00  0.00     0.306 C 
BRANCH  13  14
HETATM   14  N   UNL     1      18.839  47.970  50.945  1.00  0.00     0.082 N 
HETATM   15  H   UNL     1      17.874  47.710  50.753  1.00  0.00     0.313 HD
HETATM   16  H   UNL     1      18.987  47.796  51.938  1.00  0.00     0.313 HD
ENDBRANCH  13  14
ENDBRANCH   8  13
BRANCH  11  17
HETATM   17  C   UNL     1      17.466  50.332  45.142  1.00  0.00     0.256 C 
HETATM   18  O   UNL     1      16.462  49.719  44.795  1.00  0.00    -0.267 OA
HETATM   19  N   UNL     1      18.231  51.149  44.333  1.00  0.00    -0.320 N 
HETATM   20  H   UNL     1      18.918  51.754  44.772  1.00  0.00     0.169 HD
BRANCH  19  21
HETATM   21  C   UNL     1      18.127  51.291  42.930  1.00  0.00     0.076 A 
HETATM   22  C   UNL     1      18.630  50.374  42.010  1.00  0.00     0.052 A 
HETATM   23  C   UNL     1      18.490  50.648  40.655  1.00  0.00     0.118 A 
HETATM   24  N   UNL     1      17.892  51.757  40.163  1.00  0.00    -0.270 NA
HETATM   25  C   UNL     1      17.414  52.634  41.074  1.00  0.00     0.160 A 
HETATM   26  C   UNL     1      17.512  52.444  42.441  1.00  0.00     0.160 A 
HETATM   27  F   UNL     1      17.022  53.362  43.288  1.00  0.00    -0.202 F 
ENDBRANCH  19  21
ENDBRANCH  11  17
ENDBRANCH   1   7
BRANCH   5  28
HETATM   28  C   UNL     1      23.756  47.298  49.396  1.00  0.00     0.256 C 
HETATM   29  O   UNL     1      23.241  46.328  48.850  1.00  0.00    -0.267 OA
HETATM   30  N   UNL     1      24.827  47.271  50.268  1.00  0.00    -0.320 N 
HETATM   31  H   UNL     1      24.987  48.088  50.850  1.00  0.00     0.169 HD
BRANCH  30  32
HETATM   32  C   UNL     1      25.630  46.141  50.559  1.00  0.00     0.075 A 
HETATM   33  C   UNL     1      26.050  45.233  49.582  1.00  0.00     0.033 A 
HETATM   34  C   UNL     1      26.845  44.138  49.925  1.00  0.00     0.003 A 
HETATM   35  C   UNL     1      27.222  43.939  51.251  1.00  0.00     0.021 A 
HETATM   36  C   UNL     1      26.820  44.844  52.242  1.00  0.00     0.080 A 
HETATM   37  C   UNL     1      26.036  45.946  51.888  1.00  0.00     0.159 A 
HETATM   38  F   UNL     1      25.608  46.821  52.813  1.00  0.00    -0.203 F 
BRANCH  36  39
HETATM   39  C   UNL     1      27.217  44.548  53.634  1.00  0.00     0.296 C 
HETATM   40  O   UNL     1      26.448  44.053  54.444  1.00  0.00    -0.259 OA
BRANCH  39  41
HETATM   41  O   UNL     1      28.521  44.839  53.855  1.00  0.00    -0.312 OA
BRANCH  41  42
HETATM   42  C   UNL     1      29.088  44.226  55.015  1.00  0.00     0.132 C 
HETATM   43  C   UNL     1      30.251  43.301  54.673  1.00  0.00     0.032 C 
HETATM   44  C   UNL     1      30.998  43.201  55.992  1.00  0.00     0.002 C 
HETATM   45  C   UNL     1      30.926  44.608  56.574  1.00  0.00     0.002 C 
HETATM   46  C   UNL     1      29.734  45.290  55.902  1.00  0.00     0.032 C 
ENDBRANCH  41  42
ENDBRANCH  39  41
ENDBRANCH  36  39
ENDBRANCH  30  32
ENDBRANCH   5  28
TORSDOF 10
ENDMDL
MODEL 9
REMARK VINA RESULT:     -10.2      3.214     12.744
REMARK  10 active torsions:
REMARK  status: ('A' for Active; 'I' for Inactive)
REMARK    1  A    between atoms: N_1  and  C_2 
REMARK    2  A    between atoms: C_2  and  C_3 
REMARK    3  A    between atoms: C_6  and  C_33 
REMARK    4  A    between atoms: C_8  and  C_9 
REMARK    5  A    between atoms: C_13  and  C_15 
REMARK       I    between atoms: C_15  and  N_17 
REMARK    6  A    between atoms: N_17  and  C_18 
REMARK    7  A    between atoms: C_22  and  C_23 
REMARK    8  A    between atoms: C_23  and  O_25 
REMARK    9  A    between atoms: O_25  and  C_26 
REMARK       I    between atoms: C_33  and  N_35 
REMARK   10  A    between atoms: N_35  and  C_36 
ROOT
HETATM    1  C   UNL     1      24.675  44.087  50.791  1.00  0.00    -0.024 A 
HETATM    2  C   UNL     1      25.090  42.786  50.462  1.00  0.00     0.012 A 
HETATM    3  C   UNL     1      24.386  42.000  49.541  1.00  0.00     0.002 A 
HETATM    4  C   UNL     1      23.271  42.515  48.883  1.00  0.00     0.017 A 
HETATM    5  C   UNL     1      22.858  43.819  49.162  1.00  0.00     0.033 A 
HETATM    6  C   UNL     1      23.541  44.583  50.121  1.00  0.00     0.029 A 
ENDROOT
BRANCH   1   7
HETATM    7  C   UNL     1      25.429  44.950  51.738  1.00  0.00    -0.017 A 
HETATM    8  C   UNL     1      25.398  46.367  51.727  1.00  0.00    -0.020 A 
HETATM    9  C   UNL     1      26.161  47.086  52.675  1.00  0.00     0.011 A 
HETATM   10  C   UNL     1      26.981  46.434  53.593  1.00  0.00     0.017 A 
HETATM   11  C   UNL     1      27.042  45.043  53.606  1.00  0.00     0.033 A 
HETATM   12  C   UNL     1      26.263  44.316  52.693  1.00  0.00     0.030 A 
BRANCH   8  13
HETATM   13  C   UNL     1      24.612  47.187  50.727  1.00  0.00     0.306 C 
BRANCH  13  14
HETATM   14  N   UNL     1      25.477  47.753  49.698  1.00  0.00     0.082 N 
HETATM   15  H   UNL     1      26.283  48.186  50.145  1.00  0.00     0.313 HD
HETATM   16  H   UNL     1      24.982  48.504  49.219  1.00  0.00     0.313 HD
ENDBRANCH  13  14
ENDBRANCH   8  13
BRANCH  11  17
HETATM   17  C   UNL     1      28.016  44.382  54.525  1.00  0.00     0.256 C 
HETATM   18  O   UNL     1      27.867  43.189  54.768  1.00  0.00    -0.267 OA
HETATM   19  N   UNL     1      29.024  45.186  55.021  1.00  0.00    -0.320 N 
HETATM   20  H   UNL     1      29.160  46.100  54.601  1.00  0.00     0.169 HD
BRANCH  19  21
HETATM   21  C   UNL     1      29.952  44.855  56.035  1.00  0.00     0.076 A 
HETATM   22  C   UNL     1      30.923  43.862  55.915  1.00  0.00     0.052 A 
HETATM   23  C   UNL     1      31.754  43.613  57.000  1.00  0.00     0.118 A 
HETATM   24  N   UNL     1      31.686  44.276  58.176  1.00  0.00    -0.270 NA
HETATM   25  C   UNL     1      30.735  45.232  58.271  1.00  0.00     0.160 A 
HETATM   26  C   UNL     1      29.862  45.545  57.243  1.00  0.00     0.160 A 
HETATM   27  F   UNL     1      28.937  46.502  57.411  1.00  0.00    -0.202 F 
ENDBRANCH  19  21
ENDBRANCH  11  17
ENDBRANCH   1   7
BRANCH   5  28
HETATM   28  C   UNL     1      21.797  44.484  48.365  1.00  0.00     0.256 C 
HETATM   29  O   UNL     1      21.713  44.198  47.174  1.00  0.00    -0.267 OA
HETATM   30  N   UNL     1      21.009  45.394  49.042  1.00  0.00    -0.320 N 
HETATM   31  H   UNL     1      21.341  45.736  49.938  1.00  0.00     0.169 HD
BRANCH  30  32
HETATM   32  C   UNL     1      19.854  46.033  48.529  1.00  0.00     0.075 A 
HETATM   33  C   UNL     1      18.657  45.355  48.274  1.00  0.00     0.033 A 
HETATM   34  C   UNL     1      17.548  46.038  47.771  1.00  0.00     0.003 A 
HETATM   35  C   UNL     1      17.628  47.405  47.514  1.00  0.00     0.021 A 
HETATM   36  C   UNL     1      18.815  48.103  47.775  1.00  0.00     0.080 A 
HETATM   37  C   UNL     1      19.916  47.415  48.291  1.00  0.00     0.159 A 
HETATM   38  F   UNL     1      21.079  48.043  48.529  1.00  0.00    -0.203 F 
BRANCH  36  39
HETATM   39  C   UNL     1      18.845  49.541  47.436  1.00  0.00     0.296 C 
HETATM   40  O   UNL     1      18.888  49.942  46.283  1.00  0.00    -0.259 OA
BRANCH  39  41
HETATM   41  O   UNL     1      18.762  50.316  48.543  1.00  0.00    -0.312 OA
BRANCH  41  42
HETATM   42  C   UNL     1      17.796  51.368  48.472  1.00  0.00     0.132 C 
HETATM   43  C   UNL     1      16.371  50.862  48.669  1.00  0.00     0.032 C 
HETATM   44  C   UNL     1      15.624  52.119  49.078  1.00  0.00     0.002 C 
HETATM   45  C   UNL     1      16.598  52.859  49.989  1.00  0.00     0.002 C 
HETATM   46  C   UNL     1      17.991  52.332  49.642  1.00  0.00     0.032 C 
ENDBRANCH  41  42
ENDBRANCH  39  41
ENDBRANCH  36  39
ENDBRANCH  30  32
ENDBRANCH   5  28
TORSDOF 10
ENDMDL
MODEL 10
REMARK VINA RESULT:      -9.9      3.256      7.039
REMARK  10 active torsions:
REMARK  status: ('A' for Active; 'I' for Inactive)
REMARK    1  A    between atoms: N_1  and  C_2 
REMARK    2  A    between atoms: C_2  and  C_3 
REMARK    3  A    between atoms: C_6  and  C_33 
REMARK    4  A    between atoms: C_8  and  C_9 
REMARK    5  A    between atoms: C_13  and  C_15 
REMARK       I    between atoms: C_15  and  N_17 
REMARK    6  A    between atoms: N_17  and  C_18 
REMARK    7  A    between atoms: C_22  and  C_23 
REMARK    8  A    between atoms: C_23  and  O_25 
REMARK    9  A    between atoms: O_25  and  C_26 
REMARK       I    between atoms: C_33  and  N_35 
REMARK   10  A    between atoms: N_35  and  C_36 
ROOT
HETATM    1  C   UNL     1      16.247  51.259  48.276  1.00  0.00    -0.024 A 
HETATM    2  C   UNL     1      15.680  49.982  48.127  1.00  0.00     0.012 A 
HETATM    3  C   UNL     1      16.469  48.824  48.113  1.00  0.00     0.002 A 
HETATM    4  C   UNL     1      17.846  48.909  48.299  1.00  0.00     0.017 A 
HETATM    5  C   UNL     1      18.433  50.161  48.487  1.00  0.00     0.033 A 
HETATM    6  C   UNL     1      17.642  51.320  48.453  1.00  0.00     0.029 A 
ENDROOT
BRANCH   1   7
HETATM    7  C   UNL     1      15.425  52.496  48.330  1.00  0.00    -0.017 A 
HETATM    8  C   UNL     1      14.879  53.143  47.193  1.00  0.00    -0.020 A 
HETATM    9  C   UNL     1      14.115  54.319  47.364  1.00  0.00     0.011 A 
HETATM   10  C   UNL     1      13.923  54.886  48.622  1.00  0.00     0.017 A 
HETATM   11  C   UNL     1      14.469  54.277  49.748  1.00  0.00     0.033 A 
HETATM   12  C   UNL     1      15.201  53.090  49.597  1.00  0.00     0.030 A 
BRANCH   8  13
HETATM   13  C   UNL     1      15.088  52.671  45.770  1.00  0.00     0.306 C 
BRANCH  13  14
HETATM   14  N   UNL     1      14.891  53.752  44.811  1.00  0.00     0.082 N 
HETATM   15  H   UNL     1      15.270  54.613  45.201  1.00  0.00     0.313 HD
HETATM   16  H   UNL     1      13.893  53.914  44.687  1.00  0.00     0.313 HD
ENDBRANCH  13  14
ENDBRANCH   8  13
BRANCH  11  17
HETATM   17  C   UNL     1      14.341  54.972  51.065  1.00  0.00     0.256 C 
HETATM   18  O   UNL     1      13.422  54.644  51.808  1.00  0.00    -0.267 OA
HETATM   19  N   UNL     1      15.295  55.933  51.338  1.00  0.00    -0.320 N 
HETATM   20  H   UNL     1      16.114  55.982  50.741  1.00  0.00     0.169 HD
BRANCH  19  21
HETATM   21  C   UNL     1      15.294  56.847  52.418  1.00  0.00     0.076 A 
HETATM   22  C   UNL     1      15.595  56.504  53.734  1.00  0.00     0.052 A 
HETATM   23  C   UNL     1      15.525  57.492  54.709  1.00  0.00     0.118 A 
HETATM   24  N   UNL     1      15.182  58.777  54.465  1.00  0.00    -0.270 NA
HETATM   25  C   UNL     1      14.891  59.085  53.181  1.00  0.00     0.160 A 
HETATM   26  C   UNL     1      14.932  58.166  52.147  1.00  0.00     0.160 A 
HETATM   27  F   UNL     1      14.622  58.542  50.896  1.00  0.00    -0.202 F 
ENDBRANCH  19  21
ENDBRANCH  11  17
ENDBRANCH   1   7
BRANCH   5  28
HETATM   28  C   UNL     1      19.860  50.300  48.872  1.00  0.00     0.256 C 
HETATM   29  O   UNL     1      20.118  50.945  49.884  1.00  0.00    -0.267 OA
HETATM   30  N   UNL     1      20.777  49.702  48.030  1.00  0.00    -0.320 N 
HETATM   31  H   UNL     1      20.465  49.434  47.101  1.00  0.00     0.169 HD
BRANCH  30  32
HETATM   32  C   UNL     1      22.167  49.580  48.271  1.00  0.00     0.075 A 
HETATM   33  C   UNL     1      23.106  50.507  47.807  1.00  0.00     0.033 A 
HETATM   34  C   UNL     1      24.465  50.338  48.078  1.00  0.00     0.003 A 
HETATM   35  C   UNL     1      24.898  49.235  48.811  1.00  0.00     0.021 A 
HETATM   36  C   UNL     1      23.970  48.302  49.294  1.00  0.00     0.080 A 
HETATM   37  C   UNL     1      22.610  48.486  49.030  1.00  0.00     0.159 A 
HETATM   38  F   UNL     1      21.694  47.599  49.453  1.00  0.00    -0.203 F 
BRANCH  36  39
HETATM   39  C   UNL     1      24.502  47.133  50.025  1.00  0.00     0.296 C 
HETATM   40  O   UNL     1      24.246  45.984  49.699  1.00  0.00    -0.259 OA
BRANCH  39  41
HETATM   41  O   UNL     1      25.326  47.506  51.033  1.00  0.00    -0.312 OA
BRANCH  41  42
HETATM   42  C   UNL     1      25.374  46.602  52.139  1.00  0.00     0.132 C 
HETATM   43  C   UNL     1      26.500  45.582  52.007  1.00  0.00     0.032 C 
HETATM   44  C   UNL     1      26.699  45.117  53.439  1.00  0.00     0.002 C 
HETATM   45  C   UNL     1      26.537  46.382  54.274  1.00  0.00     0.002 C 
HETATM   46  C   UNL     1      25.737  47.362  53.415  1.00  0.00     0.032 C 
ENDBRANCH  41  42
ENDBRANCH  39  41
ENDBRANCH  36  39
ENDBRANCH  30  32
ENDBRANCH   5  28
TORSDOF 10
ENDMDL
