MODEL 1
REMARK VINA RESULT:     -11.1      0.000      0.000
REMARK  5 active torsions:
REMARK  status: ('A' for Active; 'I' for Inactive)
REMARK    1  A    between atoms: C_14  and  C_15 
REMARK    2  A    between atoms: C_15  and  C_16 
REMARK    3  A    between atoms: C_16  and  C_17 
REMARK       I    between atoms: C_17  and  N_18 
REMARK    4  A    between atoms: N_21  and  C_22 
REMARK    5  A    between atoms: C_23  and  O_24 
ROOT
HETATM    1  C   UNL     1      27.556  45.578  53.686  1.00  0.00     0.051 C 
ENDROOT
BRANCH   1   2
HETATM    2  C   UNL     1      28.549  44.509  54.041  1.00  0.00    -0.017 A 
HETATM    3  C   UNL     1      29.401  44.560  55.200  1.00  0.00    -0.000 A 
HETATM    4  C   UNL     1      29.579  45.494  56.246  1.00  0.00     0.021 A 
HETATM    5  C   UNL     1      30.164  43.401  55.216  1.00  0.00     0.043 A 
HETATM    6  C   UNL     1      30.520  45.243  57.261  1.00  0.00    -0.061 A 
HETATM    7  C   UNL     1      30.687  46.212  58.394  1.00  0.00     0.048 C 
HETATM    8  C   UNL     1      31.259  44.057  57.239  1.00  0.00     0.009 A 
HETATM    9  C   UNL     1      31.100  43.116  56.217  1.00  0.00     0.031 A 
HETATM   10  N   UNL     1      29.794  42.670  54.118  1.00  0.00    -0.354 N 
HETATM   11  H   UNL     1      30.176  41.767  53.876  1.00  0.00     0.166 HD
HETATM   12  C   UNL     1      28.821  43.313  53.382  1.00  0.00     0.057 A 
HETATM   13  C   UNL     1      28.286  42.714  52.181  1.00  0.00     0.032 A 
HETATM   14  S   UNL     1      28.479  41.027  51.869  1.00  0.00    -0.100 SA
HETATM   15  C   UNL     1      27.591  43.315  51.149  1.00  0.00     0.021 A 
HETATM   16  C   UNL     1      27.633  41.121  50.390  1.00  0.00     0.050 A 
HETATM   17  C   UNL     1      27.213  42.402  50.120  1.00  0.00     0.008 A 
ENDBRANCH   1   2
BRANCH   1  18
HETATM   18  C   UNL     1      26.133  45.195  54.093  1.00  0.00     0.108 C 
BRANCH  18  19
HETATM   19  C   UNL     1      25.270  44.881  52.885  1.00  0.00     0.220 C 
HETATM   20  N   UNL     1      25.180  45.859  51.904  1.00  0.00    -0.349 N 
HETATM   21  C   UNL     1      25.714  47.223  52.009  1.00  0.00     0.145 C 
HETATM   22  C   UNL     1      24.242  45.662  50.793  1.00  0.00     0.145 C 
HETATM   23  C   UNL     1      26.260  47.753  50.666  1.00  0.00     0.143 C 
HETATM   24  N   UNL     1      25.369  47.503  49.512  1.00  0.00    -0.376 N 
HETATM   25  C   UNL     1      24.844  46.112  49.453  1.00  0.00     0.143 C 
HETATM   26  O   UNL     1      24.688  43.802  52.781  1.00  0.00    -0.273 OA
BRANCH  24  27
HETATM   27  C   UNL     1      24.448  48.489  49.125  1.00  0.00     0.063 A 
HETATM   28  C   UNL     1      24.900  49.570  48.342  1.00  0.00     0.092 A 
HETATM   29  C   UNL     1      24.058  50.576  47.880  1.00  0.00     0.039 A 
HETATM   30  C   UNL     1      22.711  50.537  48.224  1.00  0.00     0.003 A 
HETATM   31  C   UNL     1      22.233  49.501  49.026  1.00  0.00     0.002 A 
HETATM   32  C   UNL     1      23.095  48.490  49.476  1.00  0.00     0.032 A 
BRANCH  28  33
HETATM   33  O   UNL     1      26.241  49.682  48.071  1.00  0.00    -0.358 OA
HETATM   34  H   UNL     1      26.404  48.933  47.463  1.00  0.00     0.218 HD
ENDBRANCH  28  33
ENDBRANCH  24  27
ENDBRANCH  18  19
ENDBRANCH   1  18
TORSDOF 5
ENDMDL
MODEL 2
REMARK VINA RESULT:     -10.1      3.514      6.700
REMARK  5 active torsions:
REMARK  status: ('A' for Active; 'I' for Inactive)
REMARK    1  A    between atoms: C_14  and  C_15 
REMARK    2  A    between atoms: C_15  and  C_16 
REMARK    3  A    between atoms: C_16  and  C_17 
REMARK       I    between atoms: C_17  and  N_18 
REMARK    4  A    between atoms: N_21  and  C_22 
REMARK    5  A    between atoms: C_23  and  O_24 
ROOT
HETATM    1  C   UNL     1      29.071  43.261  53.532  1.00  0.00     0.051 C 
ENDROOT
BRANCH   1   2
HETATM    2  C   UNL     1      28.609  44.537  54.174  1.00  0.00    -0.017 A 
HETATM    3  C   UNL     1      27.547  45.357  53.652  1.00  0.00    -0.000 A 
HETATM    4  C   UNL     1      26.702  45.266  52.524  1.00  0.00     0.021 A 
HETATM    5  C   UNL     1      27.382  46.434  54.513  1.00  0.00     0.043 A 
HETATM    6  C   UNL     1      25.734  46.258  52.287  1.00  0.00    -0.061 A 
HETATM    7  C   UNL     1      24.808  46.148  51.111  1.00  0.00     0.048 C 
HETATM    8  C   UNL     1      25.600  47.321  53.186  1.00  0.00     0.009 A 
HETATM    9  C   UNL     1      26.422  47.431  54.312  1.00  0.00     0.031 A 
HETATM   10  N   UNL     1      28.300  46.279  55.518  1.00  0.00    -0.354 N 
HETATM   11  H   UNL     1      28.406  46.911  56.299  1.00  0.00     0.166 HD
HETATM   12  C   UNL     1      29.062  45.144  55.343  1.00  0.00     0.057 A 
HETATM   13  C   UNL     1      30.091  44.790  56.293  1.00  0.00     0.032 A 
HETATM   14  S   UNL     1      30.111  45.476  57.876  1.00  0.00    -0.100 SA
HETATM   15  C   UNL     1      31.159  43.926  56.132  1.00  0.00     0.021 A 
HETATM   16  C   UNL     1      31.513  44.612  58.321  1.00  0.00     0.050 A 
HETATM   17  C   UNL     1      31.975  43.820  57.298  1.00  0.00     0.008 A 
ENDBRANCH   1   2
BRANCH   1  18
HETATM   18  C   UNL     1      27.981  42.189  53.537  1.00  0.00     0.108 C 
BRANCH  18  19
HETATM   19  C   UNL     1      28.230  41.131  52.477  1.00  0.00     0.220 C 
HETATM   20  N   UNL     1      27.596  41.304  51.255  1.00  0.00    -0.349 N 
HETATM   21  C   UNL     1      26.587  42.327  50.955  1.00  0.00     0.145 C 
HETATM   22  C   UNL     1      27.687  40.234  50.254  1.00  0.00     0.145 C 
HETATM   23  C   UNL     1      26.696  42.866  49.513  1.00  0.00     0.143 C 
HETATM   24  N   UNL     1      26.863  41.814  48.487  1.00  0.00    -0.376 N 
HETATM   25  C   UNL     1      27.888  40.794  48.839  1.00  0.00     0.143 C 
HETATM   26  O   UNL     1      28.971  40.173  52.696  1.00  0.00    -0.273 OA
BRANCH  24  27
HETATM   27  C   UNL     1      25.731  41.300  47.835  1.00  0.00     0.063 A 
HETATM   28  C   UNL     1      25.836  40.943  46.475  1.00  0.00     0.092 A 
HETATM   29  C   UNL     1      24.782  40.392  45.753  1.00  0.00     0.039 A 
HETATM   30  C   UNL     1      23.557  40.207  46.385  1.00  0.00     0.003 A 
HETATM   31  C   UNL     1      23.405  40.579  47.720  1.00  0.00     0.002 A 
HETATM   32  C   UNL     1      24.481  41.126  48.436  1.00  0.00     0.032 A 
BRANCH  28  33
HETATM   33  O   UNL     1      27.004  41.205  45.804  1.00  0.00    -0.358 OA
HETATM   34  H   UNL     1      26.818  42.061  45.368  1.00  0.00     0.218 HD
ENDBRANCH  28  33
ENDBRANCH  24  27
ENDBRANCH  18  19
ENDBRANCH   1  18
TORSDOF 5
ENDMDL
MODEL 3
REMARK VINA RESULT:     -10.1      3.601      6.290
REMARK  5 active torsions:
REMARK  status: ('A' for Active; 'I' for Inactive)
REMARK    1  A    between atoms: C_14  and  C_15 
REMARK    2  A    between atoms: C_15  and  C_16 
REMARK    3  A    between atoms: C_16  and  C_17 
REMARK       I    between atoms: C_17  and  N_18 
REMARK    4  A    between atoms: N_21  and  C_22 
REMARK    5  A    between atoms: C_23  and  O_24 
ROOT
HETATM    1  C   UNL     1      28.949  43.145  52.654  1.00  0.00     0.051 C 
ENDROOT
BRANCH   1   2
HETATM    2  C   UNL     1      28.665  44.180  53.703  1.00  0.00    -0.017 A 
HETATM    3  C   UNL     1      29.420  44.313  54.922  1.00  0.00    -0.000 A 
HETATM    4  C   UNL     1      30.518  43.619  55.476  1.00  0.00     0.021 A 
HETATM    5  C   UNL     1      28.891  45.382  55.632  1.00  0.00     0.043 A 
HETATM    6  C   UNL     1      31.040  44.007  56.722  1.00  0.00    -0.061 A 
HETATM    7  C   UNL     1      32.231  43.297  57.298  1.00  0.00     0.048 C 
HETATM    8  C   UNL     1      30.480  45.095  57.397  1.00  0.00     0.009 A 
HETATM    9  C   UNL     1      29.393  45.800  56.869  1.00  0.00     0.031 A 
HETATM   10  N   UNL     1      27.860  45.883  54.881  1.00  0.00    -0.354 N 
HETATM   11  H   UNL     1      27.294  46.678  55.144  1.00  0.00     0.166 HD
HETATM   12  C   UNL     1      27.693  45.177  53.709  1.00  0.00     0.057 A 
HETATM   13  C   UNL     1      26.660  45.542  52.767  1.00  0.00     0.032 A 
HETATM   14  S   UNL     1      25.916  47.098  52.825  1.00  0.00    -0.100 SA
HETATM   15  C   UNL     1      26.115  44.788  51.744  1.00  0.00     0.021 A 
HETATM   16  C   UNL     1      24.904  46.753  51.495  1.00  0.00     0.050 A 
HETATM   17  C   UNL     1      25.108  45.484  51.010  1.00  0.00     0.008 A 
ENDBRANCH   1   2
BRANCH   1  18
HETATM   18  C   UNL     1      28.045  41.920  52.797  1.00  0.00     0.108 C 
BRANCH  18  19
HETATM   19  C   UNL     1      28.493  40.783  51.896  1.00  0.00     0.220 C 
HETATM   20  N   UNL     1      27.993  40.772  50.601  1.00  0.00    -0.349 N 
HETATM   21  C   UNL     1      26.951  41.667  50.083  1.00  0.00     0.145 C 
HETATM   22  C   UNL     1      28.278  39.616  49.743  1.00  0.00     0.145 C 
HETATM   23  C   UNL     1      27.185  42.061  48.609  1.00  0.00     0.143 C 
HETATM   24  N   UNL     1      27.547  40.927  47.731  1.00  0.00    -0.376 N 
HETATM   25  C   UNL     1      28.598  40.042  48.303  1.00  0.00     0.143 C 
HETATM   26  O   UNL     1      29.274  39.922  52.299  1.00  0.00    -0.273 OA
BRANCH  24  27
HETATM   27  C   UNL     1      26.540  40.251  47.025  1.00  0.00     0.063 A 
HETATM   28  C   UNL     1      26.375  40.523  45.652  1.00  0.00     0.092 A 
HETATM   29  C   UNL     1      25.430  39.879  44.860  1.00  0.00     0.039 A 
HETATM   30  C   UNL     1      24.587  38.942  45.445  1.00  0.00     0.003 A 
HETATM   31  C   UNL     1      24.697  38.671  46.809  1.00  0.00     0.002 A 
HETATM   32  C   UNL     1      25.661  39.323  47.592  1.00  0.00     0.032 A 
BRANCH  28  33
HETATM   33  O   UNL     1      27.130  41.512  45.072  1.00  0.00    -0.358 OA
HETATM   34  H   UNL     1      27.961  41.482  45.588  1.00  0.00     0.218 HD
ENDBRANCH  28  33
ENDBRANCH  24  27
ENDBRANCH  18  19
ENDBRANCH   1  18
TORSDOF 5
ENDMDL
MODEL 4
REMARK VINA RESULT:      -9.9      1.901      2.821
REMARK  5 active torsions:
REMARK  status: ('A' for Active; 'I' for Inactive)
REMARK    1  A    between atoms: C_14  and  C_15 
REMARK    2  A    between atoms: C_15  and  C_16 
REMARK    3  A    between atoms: C_16  and  C_17 
REMARK       I    between atoms: C_17  and  N_18 
REMARK    4  A    between atoms: N_21  and  C_22 
REMARK    5  A    between atoms: C_23  and  O_24 
ROOT
HETATM    1  C   UNL     1      25.939  43.651  51.775  1.00  0.00     0.051 C 
ENDROOT
BRANCH   1   2
HETATM    2  C   UNL     1      27.291  43.083  52.095  1.00  0.00    -0.017 A 
HETATM    3  C   UNL     1      28.128  43.561  53.165  1.00  0.00    -0.000 A 
HETATM    4  C   UNL     1      27.993  44.580  54.134  1.00  0.00     0.021 A 
HETATM    5  C   UNL     1      29.282  42.790  53.176  1.00  0.00     0.043 A 
HETATM    6  C   UNL     1      29.020  44.802  55.069  1.00  0.00    -0.061 A 
HETATM    7  C   UNL     1      28.867  45.857  56.125  1.00  0.00     0.048 C 
HETATM    8  C   UNL     1      30.161  43.995  55.046  1.00  0.00     0.009 A 
HETATM    9  C   UNL     1      30.316  42.978  54.098  1.00  0.00     0.031 A 
HETATM   10  N   UNL     1      29.157  41.879  52.160  1.00  0.00    -0.354 N 
HETATM   11  H   UNL     1      29.846  41.174  51.935  1.00  0.00     0.166 HD
HETATM   12  C   UNL     1      27.966  42.030  51.483  1.00  0.00     0.057 A 
HETATM   13  C   UNL     1      27.632  41.166  50.374  1.00  0.00     0.032 A 
HETATM   14  S   UNL     1      28.448  39.664  50.141  1.00  0.00    -0.100 SA
HETATM   15  C   UNL     1      26.693  41.360  49.378  1.00  0.00     0.021 A 
HETATM   16  C   UNL     1      27.540  39.293  48.745  1.00  0.00     0.050 A 
HETATM   17  C   UNL     1      26.636  40.283  48.443  1.00  0.00     0.008 A 
ENDBRANCH   1   2
BRANCH   1  18
HETATM   18  C   UNL     1      26.001  44.671  50.637  1.00  0.00     0.108 C 
BRANCH  18  19
HETATM   19  C   UNL     1      24.742  44.643  49.789  1.00  0.00     0.220 C 
HETATM   20  N   UNL     1      24.084  45.850  49.598  1.00  0.00    -0.349 N 
HETATM   21  C   UNL     1      24.409  47.113  50.273  1.00  0.00     0.145 C 
HETATM   22  C   UNL     1      22.787  45.847  48.913  1.00  0.00     0.145 C 
HETATM   23  C   UNL     1      24.213  48.342  49.360  1.00  0.00     0.143 C 
HETATM   24  N   UNL     1      22.945  48.332  48.598  1.00  0.00    -0.376 N 
HETATM   25  C   UNL     1      22.653  47.029  47.941  1.00  0.00     0.143 C 
HETATM   26  O   UNL     1      24.336  43.595  49.287  1.00  0.00    -0.273 OA
BRANCH  24  27
HETATM   27  C   UNL     1      21.819  48.982  49.124  1.00  0.00     0.063 A 
HETATM   28  C   UNL     1      21.950  50.314  49.570  1.00  0.00     0.092 A 
HETATM   29  C   UNL     1      20.885  51.053  50.073  1.00  0.00     0.039 A 
HETATM   30  C   UNL     1      19.635  50.452  50.171  1.00  0.00     0.003 A 
HETATM   31  C   UNL     1      19.473  49.126  49.773  1.00  0.00     0.002 A 
HETATM   32  C   UNL     1      20.557  48.397  49.259  1.00  0.00     0.032 A 
BRANCH  28  33
HETATM   33  O   UNL     1      23.193  50.897  49.572  1.00  0.00    -0.358 OA
HETATM   34  H   UNL     1      23.562  50.627  48.708  1.00  0.00     0.218 HD
ENDBRANCH  28  33
ENDBRANCH  24  27
ENDBRANCH  18  19
ENDBRANCH   1  18
TORSDOF 5
ENDMDL
MODEL 5
REMARK VINA RESULT:      -9.9      3.553      9.648
REMARK  5 active torsions:
REMARK  status: ('A' for Active; 'I' for Inactive)
REMARK    1  A    between atoms: C_14  and  C_15 
REMARK    2  A    between atoms: C_15  and  C_16 
REMARK    3  A    between atoms: C_16  and  C_17 
REMARK       I    between atoms: C_17  and  N_18 
REMARK    4  A    between atoms: N_21  and  C_22 
REMARK    5  A    between atoms: C_23  and  O_24 
ROOT
HETATM    1  C   UNL     1      22.779  49.444  47.743  1.00  0.00     0.051 C 
ENDROOT
BRANCH   1   2
HETATM    2  C   UNL     1      21.628  48.551  48.107  1.00  0.00    -0.017 A 
HETATM    3  C   UNL     1      21.690  47.113  48.082  1.00  0.00    -0.000 A 
HETATM    4  C   UNL     1      22.698  46.181  47.750  1.00  0.00     0.021 A 
HETATM    5  C   UNL     1      20.457  46.629  48.498  1.00  0.00     0.043 A 
HETATM    6  C   UNL     1      22.437  44.802  47.832  1.00  0.00    -0.061 A 
HETATM    7  C   UNL     1      23.515  43.807  47.517  1.00  0.00     0.048 C 
HETATM    8  C   UNL     1      21.182  44.362  48.264  1.00  0.00     0.009 A 
HETATM    9  C   UNL     1      20.169  45.265  48.601  1.00  0.00     0.031 A 
HETATM   10  N   UNL     1      19.676  47.722  48.770  1.00  0.00    -0.354 N 
HETATM   11  H   UNL     1      18.724  47.676  49.105  1.00  0.00     0.166 HD
HETATM   12  C   UNL     1      20.351  48.901  48.540  1.00  0.00     0.057 A 
HETATM   13  C   UNL     1      19.711  50.177  48.766  1.00  0.00     0.032 A 
HETATM   14  S   UNL     1      18.291  50.296  49.740  1.00  0.00    -0.100 SA
HETATM   15  C   UNL     1      20.069  51.423  48.287  1.00  0.00     0.021 A 
HETATM   16  C   UNL     1      18.185  51.985  49.523  1.00  0.00     0.050 A 
HETATM   17  C   UNL     1      19.196  52.464  48.724  1.00  0.00     0.008 A 
ENDBRANCH   1   2
BRANCH   1  18
HETATM   18  C   UNL     1      23.639  49.796  48.958  1.00  0.00     0.108 C 
BRANCH  18  19
HETATM   19  C   UNL     1      25.043  49.234  48.832  1.00  0.00     0.220 C 
HETATM   20  N   UNL     1      25.349  48.125  49.610  1.00  0.00    -0.349 N 
HETATM   21  C   UNL     1      24.490  47.552  50.653  1.00  0.00     0.145 C 
HETATM   22  C   UNL     1      26.734  47.640  49.634  1.00  0.00     0.145 C 
HETATM   23  C   UNL     1      24.581  46.013  50.720  1.00  0.00     0.143 C 
HETATM   24  N   UNL     1      25.964  45.489  50.673  1.00  0.00    -0.376 N 
HETATM   25  C   UNL     1      26.800  46.106  49.608  1.00  0.00     0.143 C 
HETATM   26  O   UNL     1      25.864  49.737  48.066  1.00  0.00    -0.273 OA
BRANCH  24  27
HETATM   27  C   UNL     1      26.646  45.232  51.871  1.00  0.00     0.063 A 
HETATM   28  C   UNL     1      27.458  44.082  51.957  1.00  0.00     0.092 A 
HETATM   29  C   UNL     1      28.201  43.762  53.089  1.00  0.00     0.039 A 
HETATM   30  C   UNL     1      28.126  44.592  54.201  1.00  0.00     0.003 A 
HETATM   31  C   UNL     1      27.306  45.720  54.167  1.00  0.00     0.002 A 
HETATM   32  C   UNL     1      26.570  46.033  53.014  1.00  0.00     0.032 A 
BRANCH  28  33
HETATM   33  O   UNL     1      27.474  43.198  50.908  1.00  0.00    -0.358 OA
HETATM   34  H   UNL     1      26.574  42.816  50.930  1.00  0.00     0.218 HD
ENDBRANCH  28  33
ENDBRANCH  24  27
ENDBRANCH  18  19
ENDBRANCH   1  18
TORSDOF 5
ENDMDL
MODEL 6
REMARK VINA RESULT:      -9.7      4.145      7.955
REMARK  5 active torsions:
REMARK  status: ('A' for Active; 'I' for Inactive)
REMARK    1  A    between atoms: C_14  and  C_15 
REMARK    2  A    between atoms: C_15  and  C_16 
REMARK    3  A    between atoms: C_16  and  C_17 
REMARK       I    between atoms: C_17  and  N_18 
REMARK    4  A    between atoms: N_21  and  C_22 
REMARK    5  A    between atoms: C_23  and  O_24 
ROOT
HETATM    1  C   UNL     1      27.519  42.233  53.105  1.00  0.00     0.051 C 
ENDROOT
BRANCH   1   2
HETATM    2  C   UNL     1      27.749  43.641  53.574  1.00  0.00    -0.017 A 
HETATM    3  C   UNL     1      28.753  44.010  54.537  1.00  0.00    -0.000 A 
HETATM    4  C   UNL     1      29.721  43.288  55.272  1.00  0.00     0.021 A 
HETATM    5  C   UNL     1      28.690  45.386  54.708  1.00  0.00     0.043 A 
HETATM    6  C   UNL     1      30.579  43.962  56.158  1.00  0.00    -0.061 A 
HETATM    7  C   UNL     1      31.634  43.206  56.912  1.00  0.00     0.048 C 
HETATM    8  C   UNL     1      30.484  45.350  56.290  1.00  0.00     0.009 A 
HETATM    9  C   UNL     1      29.537  46.088  55.573  1.00  0.00     0.031 A 
HETATM   10  N   UNL     1      27.694  45.840  53.884  1.00  0.00    -0.354 N 
HETATM   11  H   UNL     1      27.428  46.810  53.788  1.00  0.00     0.166 HD
HETATM   12  C   UNL     1      27.101  44.811  53.186  1.00  0.00     0.057 A 
HETATM   13  C   UNL     1      26.026  45.070  52.256  1.00  0.00     0.032 A 
HETATM   14  S   UNL     1      25.750  46.658  51.639  1.00  0.00    -0.100 SA
HETATM   15  C   UNL     1      25.096  44.188  51.738  1.00  0.00     0.021 A 
HETATM   16  C   UNL     1      24.424  46.149  50.694  1.00  0.00     0.050 A 
HETATM   17  C   UNL     1      24.177  44.805  50.838  1.00  0.00     0.008 A 
ENDBRANCH   1   2
BRANCH   1  18
HETATM   18  C   UNL     1      28.132  41.980  51.728  1.00  0.00     0.108 C 
BRANCH  18  19
HETATM   19  C   UNL     1      28.760  40.601  51.638  1.00  0.00     0.220 C 
HETATM   20  N   UNL     1      28.538  39.884  50.470  1.00  0.00    -0.349 N 
HETATM   21  C   UNL     1      27.625  40.276  49.389  1.00  0.00     0.145 C 
HETATM   22  C   UNL     1      28.998  38.492  50.397  1.00  0.00     0.145 C 
HETATM   23  C   UNL     1      28.158  39.895  47.992  1.00  0.00     0.143 C 
HETATM   24  N   UNL     1      28.697  38.520  47.906  1.00  0.00    -0.376 N 
HETATM   25  C   UNL     1      29.609  38.165  49.027  1.00  0.00     0.143 C 
HETATM   26  O   UNL     1      29.442  40.151  52.557  1.00  0.00    -0.273 OA
BRANCH  24  27
HETATM   27  C   UNL     1      27.860  37.476  47.485  1.00  0.00     0.063 A 
HETATM   28  C   UNL     1      28.253  36.694  46.379  1.00  0.00     0.092 A 
HETATM   29  C   UNL     1      27.509  35.616  45.910  1.00  0.00     0.039 A 
HETATM   30  C   UNL     1      26.308  35.304  46.536  1.00  0.00     0.003 A 
HETATM   31  C   UNL     1      25.869  36.075  47.612  1.00  0.00     0.002 A 
HETATM   32  C   UNL     1      26.635  37.154  48.078  1.00  0.00     0.032 A 
BRANCH  28  33
HETATM   33  O   UNL     1      29.385  37.042  45.686  1.00  0.00    -0.358 OA
HETATM   34  H   UNL     1      29.811  36.178  45.516  1.00  0.00     0.218 HD
ENDBRANCH  28  33
ENDBRANCH  24  27
ENDBRANCH  18  19
ENDBRANCH   1  18
TORSDOF 5
ENDMDL
MODEL 7
REMARK VINA RESULT:      -9.5      3.226      8.980
REMARK  5 active torsions:
REMARK  status: ('A' for Active; 'I' for Inactive)
REMARK    1  A    between atoms: C_14  and  C_15 
REMARK    2  A    between atoms: C_15  and  C_16 
REMARK    3  A    between atoms: C_16  and  C_17 
REMARK       I    between atoms: C_17  and  N_18 
REMARK    4  A    between atoms: N_21  and  C_22 
REMARK    5  A    between atoms: C_23  and  O_24 
ROOT
HETATM    1  C   UNL     1      22.837  46.155  49.563  1.00  0.00     0.051 C 
ENDROOT
BRANCH   1   2
HETATM    2  C   UNL     1      22.854  47.508  48.911  1.00  0.00    -0.017 A 
HETATM    3  C   UNL     1      24.038  48.314  48.771  1.00  0.00    -0.000 A 
HETATM    4  C   UNL     1      25.390  48.146  49.146  1.00  0.00     0.021 A 
HETATM    5  C   UNL     1      23.681  49.479  48.105  1.00  0.00     0.043 A 
HETATM    6  C   UNL     1      26.332  49.149  48.856  1.00  0.00    -0.061 A 
HETATM    7  C   UNL     1      27.776  48.959  49.218  1.00  0.00     0.048 C 
HETATM    8  C   UNL     1      25.926  50.301  48.176  1.00  0.00     0.009 A 
HETATM    9  C   UNL     1      24.594  50.490  47.792  1.00  0.00     0.031 A 
HETATM   10  N   UNL     1      22.338  49.388  47.846  1.00  0.00    -0.354 N 
HETATM   11  H   UNL     1      21.800  50.090  47.358  1.00  0.00     0.166 HD
HETATM   12  C   UNL     1      21.805  48.210  48.323  1.00  0.00     0.057 A 
HETATM   13  C   UNL     1      20.402  47.911  48.154  1.00  0.00     0.032 A 
HETATM   14  S   UNL     1      19.451  48.752  46.985  1.00  0.00    -0.100 SA
HETATM   15  C   UNL     1      19.624  46.991  48.832  1.00  0.00     0.021 A 
HETATM   16  C   UNL     1      18.040  47.879  47.385  1.00  0.00     0.050 A 
HETATM   17  C   UNL     1      18.267  46.969  48.390  1.00  0.00     0.008 A 
ENDBRANCH   1   2
BRANCH   1  18
HETATM   18  C   UNL     1      24.248  45.602  49.772  1.00  0.00     0.108 C 
BRANCH  18  19
HETATM   19  C   UNL     1      24.292  44.594  50.906  1.00  0.00     0.220 C 
HETATM   20  N   UNL     1      25.255  44.791  51.887  1.00  0.00    -0.349 N 
HETATM   21  C   UNL     1      26.329  45.791  51.837  1.00  0.00     0.145 C 
HETATM   22  C   UNL     1      25.433  43.764  52.919  1.00  0.00     0.145 C 
HETATM   23  C   UNL     1      26.650  46.387  53.224  1.00  0.00     0.143 C 
HETATM   24  N   UNL     1      26.764  45.381  54.302  1.00  0.00    -0.376 N 
HETATM   25  C   UNL     1      25.660  44.383  54.306  1.00  0.00     0.143 C 
HETATM   26  O   UNL     1      23.499  43.654  50.954  1.00  0.00    -0.273 OA
BRANCH  24  27
HETATM   27  C   UNL     1      28.024  44.854  54.625  1.00  0.00     0.063 A 
HETATM   28  C   UNL     1      28.784  45.482  55.633  1.00  0.00     0.092 A 
HETATM   29  C   UNL     1      30.026  45.014  56.048  1.00  0.00     0.039 A 
HETATM   30  C   UNL     1      30.564  43.892  55.428  1.00  0.00     0.003 A 
HETATM   31  C   UNL     1      29.858  43.264  54.402  1.00  0.00     0.002 A 
HETATM   32  C   UNL     1      28.602  43.744  54.002  1.00  0.00     0.032 A 
BRANCH  28  33
HETATM   33  O   UNL     1      28.317  46.645  56.193  1.00  0.00    -0.358 OA
HETATM   34  H   UNL     1      27.603  46.911  55.579  1.00  0.00     0.218 HD
ENDBRANCH  28  33
ENDBRANCH  24  27
ENDBRANCH  18  19
ENDBRANCH   1  18
TORSDOF 5
ENDMDL
MODEL 8
REMARK VINA RESULT:      -9.4      4.265      8.216
REMARK  5 active torsions:
REMARK  status: ('A' for Active; 'I' for Inactive)
REMARK    1  A    between atoms: C_14  and  C_15 
REMARK    2  A    between atoms: C_15  and  C_16 
REMARK    3  A    between atoms: C_16  and  C_17 
REMARK       I    between atoms: C_17  and  N_18 
REMARK    4  A    between atoms: N_21  and  C_22 
REMARK    5  A    between atoms: C_23  and  O_24 
ROOT
HETATM    1  C   UNL     1      27.541  41.712  52.558  1.00  0.00     0.051 C 
ENDROOT
BRANCH   1   2
HETATM    2  C   UNL     1      27.532  43.121  53.078  1.00  0.00    -0.017 A 
HETATM    3  C   UNL     1      28.464  43.620  54.054  1.00  0.00    -0.000 A 
HETATM    4  C   UNL     1      29.545  43.047  54.762  1.00  0.00     0.021 A 
HETATM    5  C   UNL     1      28.169  44.959  54.275  1.00  0.00     0.043 A 
HETATM    6  C   UNL     1      30.282  43.825  55.672  1.00  0.00    -0.061 A 
HETATM    7  C   UNL     1      31.454  43.232  56.399  1.00  0.00     0.048 C 
HETATM    8  C   UNL     1      29.952  45.171  55.855  1.00  0.00     0.009 A 
HETATM    9  C   UNL     1      28.889  45.762  55.165  1.00  0.00     0.031 A 
HETATM   10  N   UNL     1      27.106  45.266  53.468  1.00  0.00    -0.354 N 
HETATM   11  H   UNL     1      26.678  46.179  53.407  1.00  0.00     0.166 HD
HETATM   12  C   UNL     1      26.692  44.176  52.733  1.00  0.00     0.057 A 
HETATM   13  C   UNL     1      25.582  44.283  51.813  1.00  0.00     0.032 A 
HETATM   14  S   UNL     1      25.037  45.822  51.255  1.00  0.00    -0.100 SA
HETATM   15  C   UNL     1      24.813  43.274  51.263  1.00  0.00     0.021 A 
HETATM   16  C   UNL     1      23.812  45.129  50.291  1.00  0.00     0.050 A 
HETATM   17  C   UNL     1      23.797  43.758  50.386  1.00  0.00     0.008 A 
ENDBRANCH   1   2
BRANCH   1  18
HETATM   18  C   UNL     1      28.540  41.530  51.415  1.00  0.00     0.108 C 
BRANCH  18  19
HETATM   19  C   UNL     1      27.846  41.485  50.066  1.00  0.00     0.220 C 
HETATM   20  N   UNL     1      27.751  40.245  49.448  1.00  0.00    -0.349 N 
HETATM   21  C   UNL     1      28.401  39.012  49.908  1.00  0.00     0.145 C 
HETATM   22  C   UNL     1      27.223  40.176  48.080  1.00  0.00     0.145 C 
HETATM   23  C   UNL     1      27.536  37.757  49.665  1.00  0.00     0.143 C 
HETATM   24  N   UNL     1      26.929  37.694  48.318  1.00  0.00    -0.376 N 
HETATM   25  C   UNL     1      26.292  38.970  47.890  1.00  0.00     0.143 C 
HETATM   26  O   UNL     1      27.379  42.503  49.555  1.00  0.00    -0.273 OA
BRANCH  24  27
HETATM   27  C   UNL     1      27.594  37.005  47.292  1.00  0.00     0.063 A 
HETATM   28  C   UNL     1      27.046  35.793  46.823  1.00  0.00     0.092 A 
HETATM   29  C   UNL     1      27.612  35.057  45.787  1.00  0.00     0.039 A 
HETATM   30  C   UNL     1      28.785  35.514  45.199  1.00  0.00     0.003 A 
HETATM   31  C   UNL     1      29.376  36.690  45.659  1.00  0.00     0.002 A 
HETATM   32  C   UNL     1      28.788  37.426  46.699  1.00  0.00     0.032 A 
BRANCH  28  33
HETATM   33  O   UNL     1      25.942  35.273  47.451  1.00  0.00    -0.358 OA
HETATM   34  H   UNL     1      25.984  34.325  47.216  1.00  0.00     0.218 HD
ENDBRANCH  28  33
ENDBRANCH  24  27
ENDBRANCH  18  19
ENDBRANCH   1  18
TORSDOF 5
ENDMDL
MODEL 9
REMARK VINA RESULT:      -9.2      3.102      9.421
REMARK  5 active torsions:
REMARK  status: ('A' for Active; 'I' for Inactive)
REMARK    1  A    between atoms: C_14  and  C_15 
REMARK    2  A    between atoms: C_15  and  C_16 
REMARK    3  A    between atoms: C_16  and  C_17 
REMARK       I    between atoms: C_17  and  N_18 
REMARK    4  A    between atoms: N_21  and  C_22 
REMARK    5  A    between atoms: C_23  and  O_24 
ROOT
HETATM    1  C   UNL     1      23.103  48.443  48.631  1.00  0.00     0.051 C 
ENDROOT
BRANCH   1   2
HETATM    2  C   UNL     1      21.700  47.909  48.647  1.00  0.00    -0.017 A 
HETATM    3  C   UNL     1      20.544  48.707  48.961  1.00  0.00    -0.000 A 
HETATM    4  C   UNL     1      20.353  50.060  49.318  1.00  0.00     0.021 A 
HETATM    5  C   UNL     1      19.426  47.891  48.854  1.00  0.00     0.043 A 
HETATM    6  C   UNL     1      19.058  50.547  49.567  1.00  0.00    -0.061 A 
HETATM    7  C   UNL     1      18.845  51.993  49.909  1.00  0.00     0.048 C 
HETATM    8  C   UNL     1      17.962  49.690  49.440  1.00  0.00     0.009 A 
HETATM    9  C   UNL     1      18.124  48.346  49.086  1.00  0.00     0.031 A 
HETATM   10  N   UNL     1      19.877  46.650  48.488  1.00  0.00    -0.354 N 
HETATM   11  H   UNL     1      19.282  45.850  48.323  1.00  0.00     0.166 HD
HETATM   12  C   UNL     1      21.248  46.624  48.357  1.00  0.00     0.057 A 
HETATM   13  C   UNL     1      21.932  45.410  47.974  1.00  0.00     0.032 A 
HETATM   14  S   UNL     1      21.078  44.107  47.233  1.00  0.00    -0.100 SA
HETATM   15  C   UNL     1      23.268  45.086  48.119  1.00  0.00     0.021 A 
HETATM   16  C   UNL     1      22.484  43.149  47.106  1.00  0.00     0.050 A 
HETATM   17  C   UNL     1      23.588  43.788  47.618  1.00  0.00     0.008 A 
ENDBRANCH   1   2
BRANCH   1  18
HETATM   18  C   UNL     1      23.870  48.077  49.902  1.00  0.00     0.108 C 
BRANCH  18  19
HETATM   19  C   UNL     1      25.252  47.535  49.588  1.00  0.00     0.220 C 
HETATM   20  N   UNL     1      25.650  46.392  50.267  1.00  0.00    -0.349 N 
HETATM   21  C   UNL     1      24.918  45.759  51.371  1.00  0.00     0.145 C 
HETATM   22  C   UNL     1      27.030  45.918  50.107  1.00  0.00     0.145 C 
HETATM   23  C   UNL     1      25.022  44.219  51.349  1.00  0.00     0.143 C 
HETATM   24  N   UNL     1      26.392  43.710  51.116  1.00  0.00    -0.376 N 
HETATM   25  C   UNL     1      27.097  44.388  49.994  1.00  0.00     0.143 C 
HETATM   26  O   UNL     1      25.977  48.083  48.758  1.00  0.00    -0.273 OA
BRANCH  24  27
HETATM   27  C   UNL     1      27.209  43.400  52.213  1.00  0.00     0.063 A 
HETATM   28  C   UNL     1      27.494  42.046  52.485  1.00  0.00     0.092 A 
HETATM   29  C   UNL     1      28.322  41.640  53.527  1.00  0.00     0.039 A 
HETATM   30  C   UNL     1      28.877  42.604  54.360  1.00  0.00     0.003 A 
HETATM   31  C   UNL     1      28.591  43.952  54.144  1.00  0.00     0.002 A 
HETATM   32  C   UNL     1      27.760  44.345  53.083  1.00  0.00     0.032 A 
BRANCH  28  33
HETATM   33  O   UNL     1      26.882  41.072  51.736  1.00  0.00    -0.358 OA
HETATM   34  H   UNL     1      27.319  40.253  52.045  1.00  0.00     0.218 HD
ENDBRANCH  28  33
ENDBRANCH  24  27
ENDBRANCH  18  19
ENDBRANCH   1  18
TORSDOF 5
ENDMDL
MODEL 10
REMARK VINA RESULT:      -9.2      2.819      4.952
REMARK  5 active torsions:
REMARK  status: ('A' for Active; 'I' for Inactive)
REMARK    1  A    between atoms: C_14  and  C_15 
REMARK    2  A    between atoms: C_15  and  C_16 
REMARK    3  A    between atoms: C_16  and  C_17 
REMARK       I    between atoms: C_17  and  N_18 
REMARK    4  A    between atoms: N_21  and  C_22 
REMARK    5  A    between atoms: C_23  and  O_24 
ROOT
HETATM    1  C   UNL     1      25.209  44.600  51.554  1.00  0.00     0.051 C 
ENDROOT
BRANCH   1   2
HETATM    2  C   UNL     1      26.430  44.055  52.236  1.00  0.00    -0.017 A 
HETATM    3  C   UNL     1      27.049  42.802  51.890  1.00  0.00    -0.000 A 
HETATM    4  C   UNL     1      26.763  41.797  50.939  1.00  0.00     0.021 A 
HETATM    5  C   UNL     1      28.158  42.638  52.708  1.00  0.00     0.043 A 
HETATM    6  C   UNL     1      27.585  40.660  50.848  1.00  0.00    -0.061 A 
HETATM    7  C   UNL     1      27.309  39.607  49.815  1.00  0.00     0.048 C 
HETATM    8  C   UNL     1      28.696  40.542  51.688  1.00  0.00     0.009 A 
HETATM    9  C   UNL     1      29.002  41.524  52.636  1.00  0.00     0.031 A 
HETATM   10  N   UNL     1      28.218  43.742  53.517  1.00  0.00    -0.354 N 
HETATM   11  H   UNL     1      28.934  43.905  54.212  1.00  0.00     0.166 HD
HETATM   12  C   UNL     1      27.186  44.619  53.261  1.00  0.00     0.057 A 
HETATM   13  C   UNL     1      27.063  45.853  54.002  1.00  0.00     0.032 A 
HETATM   14  S   UNL     1      28.400  46.497  54.882  1.00  0.00    -0.100 SA
HETATM   15  C   UNL     1      25.958  46.671  54.144  1.00  0.00     0.021 A 
HETATM   16  C   UNL     1      27.503  47.845  55.419  1.00  0.00     0.050 A 
HETATM   17  C   UNL     1      26.209  47.818  54.955  1.00  0.00     0.008 A 
ENDBRANCH   1   2
BRANCH   1  18
HETATM   18  C   UNL     1      25.488  44.989  50.102  1.00  0.00     0.108 C 
BRANCH  18  19
HETATM   19  C   UNL     1      24.220  44.992  49.268  1.00  0.00     0.220 C 
HETATM   20  N   UNL     1      23.566  46.208  49.121  1.00  0.00    -0.349 N 
HETATM   21  C   UNL     1      23.905  47.448  49.830  1.00  0.00     0.145 C 
HETATM   22  C   UNL     1      22.261  46.232  48.452  1.00  0.00     0.145 C 
HETATM   23  C   UNL     1      23.705  48.705  48.957  1.00  0.00     0.143 C 
HETATM   24  N   UNL     1      22.429  48.725  48.210  1.00  0.00    -0.376 N 
HETATM   25  C   UNL     1      22.122  47.443  47.518  1.00  0.00     0.143 C 
HETATM   26  O   UNL     1      23.803  43.962  48.739  1.00  0.00    -0.273 OA
BRANCH  24  27
HETATM   27  C   UNL     1      21.312  49.364  48.769  1.00  0.00     0.063 A 
HETATM   28  C   UNL     1      21.242  50.772  48.723  1.00  0.00     0.092 A 
HETATM   29  C   UNL     1      20.160  51.493  49.217  1.00  0.00     0.039 A 
HETATM   30  C   UNL     1      19.107  50.807  49.810  1.00  0.00     0.003 A 
HETATM   31  C   UNL     1      19.156  49.416  49.906  1.00  0.00     0.002 A 
HETATM   32  C   UNL     1      20.251  48.703  49.394  1.00  0.00     0.032 A 
BRANCH  28  33
HETATM   33  O   UNL     1      22.311  51.476  48.229  1.00  0.00    -0.358 OA
HETATM   34  H   UNL     1      22.754  51.797  49.040  1.00  0.00     0.218 HD
ENDBRANCH  28  33
ENDBRANCH  24  27
ENDBRANCH  18  19
ENDBRANCH   1  18
TORSDOF 5
ENDMDL
