MODEL 1
REMARK VINA RESULT:      -9.8      0.000      0.000
REMARK  9 active torsions:
REMARK  status: ('A' for Active; 'I' for Inactive)
REMARK    1  A    between atoms: C_2  and  C_3 
REMARK    2  A    between atoms: C_3  and  C_4 
REMARK    3  A    between atoms: C_4  and  O_5 
REMARK    4  A    between atoms: O_5  and  C_6 
REMARK    5  A    between atoms: C_8  and  C_9 
REMARK       I    between atoms: C_9  and  N_10 
REMARK    6  A    between atoms: N_10  and  C_11 
REMARK    7  A    between atoms: N_12  and  C_13 
REMARK    8  A    between atoms: C_15  and  C_16 
REMARK    9  A    between atoms: C_25  and  O_26 
ROOT
HETATM    1  C   UNL     1      23.523  44.403  49.878  1.00  0.00     0.179 C 
HETATM    2  N   UNL     1      24.010  43.494  50.756  1.00  0.00    -0.333 N 
HETATM    3  S   UNL     1      22.024  44.147  49.183  1.00  0.00    -0.040 SA
HETATM    4  H   UNL     1      23.300  42.914  51.187  1.00  0.00     0.168 HD
ENDROOT
BRANCH   2   5
HETATM    5  C   UNL     1      25.342  43.126  51.037  1.00  0.00     0.035 A 
HETATM    6  C   UNL     1      26.036  43.563  52.174  1.00  0.00     0.046 A 
HETATM    7  C   UNL     1      27.367  43.171  52.410  1.00  0.00     0.035 A 
HETATM    8  C   UNL     1      27.975  42.314  51.475  1.00  0.00     0.078 A 
HETATM    9  C   UNL     1      27.311  41.916  50.318  1.00  0.00     0.040 A 
HETATM   10  C   UNL     1      26.002  42.335  50.092  1.00  0.00     0.032 A 
BRANCH   7  11
HETATM   11  C   UNL     1      28.127  43.633  53.586  1.00  0.00     0.112 A 
HETATM   12  S   UNL     1      27.809  45.147  54.339  1.00  0.00    -0.067 SA
HETATM   13  C   UNL     1      29.134  44.907  55.409  1.00  0.00     0.035 A 
HETATM   14  C   UNL     1      29.720  43.672  55.133  1.00  0.00     0.075 A 
HETATM   15  C   UNL     1      29.624  45.753  56.419  1.00  0.00     0.021 A 
HETATM   16  N   UNL     1      29.155  42.969  54.082  1.00  0.00    -0.239 NA
HETATM   17  C   UNL     1      30.818  43.253  55.911  1.00  0.00     0.033 A 
HETATM   18  C   UNL     1      31.310  44.082  56.925  1.00  0.00     0.002 A 
HETATM   19  C   UNL     1      30.722  45.320  57.169  1.00  0.00     0.002 A 
ENDBRANCH   7  11
BRANCH   8  20
HETATM   20  O   UNL     1      29.249  41.831  51.633  1.00  0.00    -0.360 OA
HETATM   21  H   UNL     1      29.257  40.903  51.313  1.00  0.00     0.217 HD
ENDBRANCH   8  20
ENDBRANCH   2   5
BRANCH   1  22
HETATM   22  N   UNL     1      24.193  45.549  49.565  1.00  0.00    -0.299 N 
HETATM   23  C   UNL     1      24.767  46.480  50.427  1.00  0.00     0.257 C 
HETATM   24  O   UNL     1      24.651  46.482  51.647  1.00  0.00    -0.267 OA
HETATM   25  H   UNL     1      23.951  45.903  48.648  1.00  0.00     0.171 HD
BRANCH  23  26
HETATM   26  C   UNL     1      25.495  47.601  49.764  1.00  0.00     0.035 A 
HETATM   27  C   UNL     1      24.747  48.549  49.047  1.00  0.00     0.053 A 
HETATM   28  C   UNL     1      25.388  49.608  48.406  1.00  0.00     0.069 A 
HETATM   29  C   UNL     1      26.779  49.714  48.479  1.00  0.00     0.037 A 
HETATM   30  C   UNL     1      27.527  48.793  49.213  1.00  0.00     0.004 A 
HETATM   31  C   UNL     1      26.887  47.740  49.864  1.00  0.00     0.017 A 
BRANCH  28  32
HETATM   32  O   UNL     1      24.778  50.579  47.663  1.00  0.00    -0.351 OA
BRANCH  32  33
HETATM   33  C   UNL     1      23.349  50.567  47.636  1.00  0.00     0.175 C 
BRANCH  33  34
HETATM   34  C   UNL     1      22.864  51.339  48.862  1.00  0.00     0.026 C 
BRANCH  34  35
HETATM   35  C   UNL     1      21.486  50.876  49.321  1.00  0.00    -0.002 C 
HETATM   36  C   UNL     1      20.384  51.489  48.471  1.00  0.00     0.005 C 
ENDBRANCH  34  35
ENDBRANCH  33  34
ENDBRANCH  32  33
ENDBRANCH  28  32
ENDBRANCH  23  26
ENDBRANCH   1  22
TORSDOF 9
ENDMDL
MODEL 2
REMARK VINA RESULT:      -9.6      2.948      4.619
REMARK  9 active torsions:
REMARK  status: ('A' for Active; 'I' for Inactive)
REMARK    1  A    between atoms: C_2  and  C_3 
REMARK    2  A    between atoms: C_3  and  C_4 
REMARK    3  A    between atoms: C_4  and  O_5 
REMARK    4  A    between atoms: O_5  and  C_6 
REMARK    5  A    between atoms: C_8  and  C_9 
REMARK       I    between atoms: C_9  and  N_10 
REMARK    6  A    between atoms: N_10  and  C_11 
REMARK    7  A    between atoms: N_12  and  C_13 
REMARK    8  A    between atoms: C_15  and  C_16 
REMARK    9  A    between atoms: C_25  and  O_26 
ROOT
HETATM    1  C   UNL     1      24.378  48.792  48.858  1.00  0.00     0.179 C 
HETATM    2  N   UNL     1      25.236  47.776  49.111  1.00  0.00    -0.333 N 
HETATM    3  S   UNL     1      24.975  50.243  48.280  1.00  0.00    -0.040 SA
HETATM    4  H   UNL     1      26.117  47.845  48.614  1.00  0.00     0.168 HD
ENDROOT
BRANCH   2   5
HETATM    5  C   UNL     1      25.162  46.741  50.066  1.00  0.00     0.035 A 
HETATM    6  C   UNL     1      26.116  46.561  51.078  1.00  0.00     0.046 A 
HETATM    7  C   UNL     1      26.002  45.510  52.006  1.00  0.00     0.035 A 
HETATM    8  C   UNL     1      24.892  44.654  51.896  1.00  0.00     0.078 A 
HETATM    9  C   UNL     1      23.968  44.794  50.864  1.00  0.00     0.040 A 
HETATM   10  C   UNL     1      24.113  45.827  49.941  1.00  0.00     0.032 A 
BRANCH   7  11
HETATM   11  C   UNL     1      27.002  45.285  53.067  1.00  0.00     0.112 A 
HETATM   12  S   UNL     1      27.233  46.403  54.354  1.00  0.00    -0.067 SA
HETATM   13  C   UNL     1      28.553  45.470  54.943  1.00  0.00     0.035 A 
HETATM   14  C   UNL     1      28.716  44.352  54.127  1.00  0.00     0.075 A 
HETATM   15  C   UNL     1      29.387  45.712  56.047  1.00  0.00     0.021 A 
HETATM   16  N   UNL     1      27.846  44.270  53.052  1.00  0.00    -0.239 NA
HETATM   17  C   UNL     1      29.732  43.426  54.439  1.00  0.00     0.033 A 
HETATM   18  C   UNL     1      30.564  43.652  55.540  1.00  0.00     0.002 A 
HETATM   19  C   UNL     1      30.396  44.785  56.330  1.00  0.00     0.002 A 
ENDBRANCH   7  11
BRANCH   8  20
HETATM   20  O   UNL     1      24.656  43.629  52.777  1.00  0.00    -0.360 OA
HETATM   21  H   UNL     1      24.347  42.856  52.259  1.00  0.00     0.217 HD
ENDBRANCH   8  20
ENDBRANCH   2   5
BRANCH   1  22
HETATM   22  N   UNL     1      23.028  48.667  49.017  1.00  0.00    -0.299 N 
HETATM   23  C   UNL     1      22.126  47.959  48.228  1.00  0.00     0.257 C 
HETATM   24  O   UNL     1      22.389  47.419  47.160  1.00  0.00    -0.267 OA
HETATM   25  H   UNL     1      22.629  49.425  49.555  1.00  0.00     0.171 HD
BRANCH  23  26
HETATM   26  C   UNL     1      20.714  47.962  48.713  1.00  0.00     0.035 A 
HETATM   27  C   UNL     1      20.256  49.086  49.421  1.00  0.00     0.053 A 
HETATM   28  C   UNL     1      18.947  49.126  49.898  1.00  0.00     0.069 A 
HETATM   29  C   UNL     1      18.099  48.040  49.672  1.00  0.00     0.037 A 
HETATM   30  C   UNL     1      18.537  46.932  48.945  1.00  0.00     0.004 A 
HETATM   31  C   UNL     1      19.843  46.894  48.457  1.00  0.00     0.017 A 
BRANCH  28  32
HETATM   32  O   UNL     1      18.390  50.147  50.616  1.00  0.00    -0.351 OA
BRANCH  32  33
HETATM   33  C   UNL     1      17.541  51.048  49.901  1.00  0.00     0.175 C 
BRANCH  33  34
HETATM   34  C   UNL     1      18.306  52.360  49.735  1.00  0.00     0.026 C 
BRANCH  34  35
HETATM   35  C   UNL     1      18.978  52.462  48.369  1.00  0.00    -0.002 C 
HETATM   36  C   UNL     1      18.085  51.907  47.270  1.00  0.00     0.005 C 
ENDBRANCH  34  35
ENDBRANCH  33  34
ENDBRANCH  32  33
ENDBRANCH  28  32
ENDBRANCH  23  26
ENDBRANCH   1  22
TORSDOF 9
ENDMDL
MODEL 3
REMARK VINA RESULT:      -9.5      2.910      9.029
REMARK  9 active torsions:
REMARK  status: ('A' for Active; 'I' for Inactive)
REMARK    1  A    between atoms: C_2  and  C_3 
REMARK    2  A    between atoms: C_3  and  C_4 
REMARK    3  A    between atoms: C_4  and  O_5 
REMARK    4  A    between atoms: O_5  and  C_6 
REMARK    5  A    between atoms: C_8  and  C_9 
REMARK       I    between atoms: C_9  and  N_10 
REMARK    6  A    between atoms: N_10  and  C_11 
REMARK    7  A    between atoms: N_12  and  C_13 
REMARK    8  A    between atoms: C_15  and  C_16 
REMARK    9  A    between atoms: C_25  and  O_26 
ROOT
HETATM    1  C   UNL     1      27.036  42.014  49.274  1.00  0.00     0.179 C 
HETATM    2  N   UNL     1      26.057  42.503  48.477  1.00  0.00    -0.333 N 
HETATM    3  S   UNL     1      27.968  40.734  48.735  1.00  0.00    -0.040 SA
HETATM    4  H   UNL     1      26.183  42.295  47.492  1.00  0.00     0.168 HD
ENDROOT
BRANCH   2   5
HETATM    5  C   UNL     1      24.827  43.105  48.813  1.00  0.00     0.035 A 
HETATM    6  C   UNL     1      24.567  44.471  48.634  1.00  0.00     0.046 A 
HETATM    7  C   UNL     1      23.324  45.028  48.989  1.00  0.00     0.035 A 
HETATM    8  C   UNL     1      22.345  44.167  49.516  1.00  0.00     0.078 A 
HETATM    9  C   UNL     1      22.612  42.820  49.744  1.00  0.00     0.040 A 
HETATM   10  C   UNL     1      23.858  42.294  49.408  1.00  0.00     0.032 A 
BRANCH   7  11
HETATM   11  C   UNL     1      23.032  46.465  48.832  1.00  0.00     0.112 A 
HETATM   12  S   UNL     1      23.987  47.678  49.591  1.00  0.00    -0.067 SA
HETATM   13  C   UNL     1      22.920  48.897  49.014  1.00  0.00     0.035 A 
HETATM   14  C   UNL     1      21.913  48.296  48.259  1.00  0.00     0.075 A 
HETATM   15  C   UNL     1      22.967  50.286  49.217  1.00  0.00     0.021 A 
HETATM   16  N   UNL     1      21.974  46.914  48.182  1.00  0.00    -0.239 NA
HETATM   17  C   UNL     1      20.932  49.113  47.661  1.00  0.00     0.033 A 
HETATM   18  C   UNL     1      20.973  50.499  47.850  1.00  0.00     0.002 A 
HETATM   19  C   UNL     1      21.976  51.076  48.624  1.00  0.00     0.002 A 
ENDBRANCH   7  11
BRANCH   8  20
HETATM   20  O   UNL     1      21.084  44.594  49.847  1.00  0.00    -0.360 OA
HETATM   21  H   UNL     1      21.166  45.495  50.226  1.00  0.00     0.217 HD
ENDBRANCH   8  20
ENDBRANCH   2   5
BRANCH   1  22
HETATM   22  N   UNL     1      27.324  42.554  50.494  1.00  0.00    -0.299 N 
HETATM   23  C   UNL     1      27.555  43.888  50.817  1.00  0.00     0.257 C 
HETATM   24  O   UNL     1      27.662  44.805  50.011  1.00  0.00    -0.267 OA
HETATM   25  H   UNL     1      27.727  41.880  51.132  1.00  0.00     0.171 HD
BRANCH  23  26
HETATM   26  C   UNL     1      27.777  44.165  52.267  1.00  0.00     0.035 A 
HETATM   27  C   UNL     1      28.920  43.627  52.880  1.00  0.00     0.053 A 
HETATM   28  C   UNL     1      29.161  43.854  54.234  1.00  0.00     0.069 A 
HETATM   29  C   UNL     1      28.255  44.616  54.975  1.00  0.00     0.037 A 
HETATM   30  C   UNL     1      27.131  45.177  54.367  1.00  0.00     0.004 A 
HETATM   31  C   UNL     1      26.894  44.960  53.011  1.00  0.00     0.017 A 
BRANCH  28  32
HETATM   32  O   UNL     1      30.221  43.371  54.949  1.00  0.00    -0.351 OA
BRANCH  32  33
HETATM   33  C   UNL     1      30.977  44.322  55.702  1.00  0.00     0.175 C 
BRANCH  33  34
HETATM   34  C   UNL     1      31.329  43.669  57.038  1.00  0.00     0.026 C 
BRANCH  34  35
HETATM   35  C   UNL     1      31.085  44.607  58.216  1.00  0.00    -0.002 C 
HETATM   36  C   UNL     1      30.409  45.893  57.768  1.00  0.00     0.005 C 
ENDBRANCH  34  35
ENDBRANCH  33  34
ENDBRANCH  32  33
ENDBRANCH  28  32
ENDBRANCH  23  26
ENDBRANCH   1  22
TORSDOF 9
ENDMDL
MODEL 4
REMARK VINA RESULT:      -9.4      2.695      8.840
REMARK  9 active torsions:
REMARK  status: ('A' for Active; 'I' for Inactive)
REMARK    1  A    between atoms: C_2  and  C_3 
REMARK    2  A    between atoms: C_3  and  C_4 
REMARK    3  A    between atoms: C_4  and  O_5 
REMARK    4  A    between atoms: O_5  and  C_6 
REMARK    5  A    between atoms: C_8  and  C_9 
REMARK       I    between atoms: C_9  and  N_10 
REMARK    6  A    between atoms: N_10  and  C_11 
REMARK    7  A    between atoms: N_12  and  C_13 
REMARK    8  A    between atoms: C_15  and  C_16 
REMARK    9  A    between atoms: C_25  and  O_26 
ROOT
HETATM    1  C   UNL     1      27.239  42.898  51.305  1.00  0.00     0.179 C 
HETATM    2  N   UNL     1      26.452  42.833  50.205  1.00  0.00    -0.333 N 
HETATM    3  S   UNL     1      28.311  41.653  51.618  1.00  0.00    -0.040 SA
HETATM    4  H   UNL     1      26.806  42.221  49.478  1.00  0.00     0.168 HD
ENDROOT
BRANCH   2   5
HETATM    5  C   UNL     1      25.158  43.347  49.981  1.00  0.00     0.035 A 
HETATM    6  C   UNL     1      24.911  44.689  49.658  1.00  0.00     0.046 A 
HETATM    7  C   UNL     1      23.601  45.158  49.447  1.00  0.00     0.035 A 
HETATM    8  C   UNL     1      22.547  44.233  49.558  1.00  0.00     0.078 A 
HETATM    9  C   UNL     1      22.779  42.911  49.929  1.00  0.00     0.040 A 
HETATM   10  C   UNL     1      24.082  42.474  50.156  1.00  0.00     0.032 A 
BRANCH   7  11
HETATM   11  C   UNL     1      23.312  46.568  49.127  1.00  0.00     0.112 A 
HETATM   12  S   UNL     1      24.290  47.855  49.714  1.00  0.00    -0.067 SA
HETATM   13  C   UNL     1      23.215  49.005  49.021  1.00  0.00     0.035 A 
HETATM   14  C   UNL     1      22.187  48.326  48.367  1.00  0.00     0.075 A 
HETATM   15  C   UNL     1      23.273  50.408  49.056  1.00  0.00     0.021 A 
HETATM   16  N   UNL     1      22.240  46.945  48.454  1.00  0.00    -0.239 NA
HETATM   17  C   UNL     1      21.196  49.074  47.700  1.00  0.00     0.033 A 
HETATM   18  C   UNL     1      21.248  50.472  47.721  1.00  0.00     0.002 A 
HETATM   19  C   UNL     1      22.271  51.129  48.397  1.00  0.00     0.002 A 
ENDBRANCH   7  11
BRANCH   8  20
HETATM   20  O   UNL     1      21.238  44.570  49.324  1.00  0.00    -0.360 OA
HETATM   21  H   UNL     1      20.713  44.281  50.101  1.00  0.00     0.217 HD
ENDBRANCH   8  20
ENDBRANCH   2   5
BRANCH   1  22
HETATM   22  N   UNL     1      27.221  43.965  52.155  1.00  0.00    -0.299 N 
HETATM   23  C   UNL     1      26.246  44.315  53.086  1.00  0.00     0.257 C 
HETATM   24  O   UNL     1      25.155  43.771  53.207  1.00  0.00    -0.267 OA
HETATM   25  H   UNL     1      27.804  44.727  51.834  1.00  0.00     0.171 HD
BRANCH  23  26
HETATM   26  C   UNL     1      26.559  45.513  53.918  1.00  0.00     0.035 A 
HETATM   27  C   UNL     1      27.523  45.386  54.932  1.00  0.00     0.053 A 
HETATM   28  C   UNL     1      27.839  46.479  55.738  1.00  0.00     0.069 A 
HETATM   29  C   UNL     1      27.185  47.696  55.532  1.00  0.00     0.037 A 
HETATM   30  C   UNL     1      26.247  47.838  54.510  1.00  0.00     0.004 A 
HETATM   31  C   UNL     1      25.938  46.750  53.695  1.00  0.00     0.017 A 
BRANCH  28  32
HETATM   32  O   UNL     1      28.739  46.479  56.766  1.00  0.00    -0.351 OA
BRANCH  32  33
HETATM   33  C   UNL     1      29.941  45.731  56.570  1.00  0.00     0.175 C 
BRANCH  33  34
HETATM   34  C   UNL     1      30.431  45.287  57.948  1.00  0.00     0.026 C 
BRANCH  34  35
HETATM   35  C   UNL     1      31.596  44.307  57.852  1.00  0.00    -0.002 C 
HETATM   36  C   UNL     1      31.337  43.239  56.802  1.00  0.00     0.005 C 
ENDBRANCH  34  35
ENDBRANCH  33  34
ENDBRANCH  32  33
ENDBRANCH  28  32
ENDBRANCH  23  26
ENDBRANCH   1  22
TORSDOF 9
ENDMDL
MODEL 5
REMARK VINA RESULT:      -9.1      2.853     10.427
REMARK  9 active torsions:
REMARK  status: ('A' for Active; 'I' for Inactive)
REMARK    1  A    between atoms: C_2  and  C_3 
REMARK    2  A    between atoms: C_3  and  C_4 
REMARK    3  A    between atoms: C_4  and  O_5 
REMARK    4  A    between atoms: O_5  and  C_6 
REMARK    5  A    between atoms: C_8  and  C_9 
REMARK       I    between atoms: C_9  and  N_10 
REMARK    6  A    between atoms: N_10  and  C_11 
REMARK    7  A    between atoms: N_12  and  C_13 
REMARK    8  A    between atoms: C_15  and  C_16 
REMARK    9  A    between atoms: C_25  and  O_26 
ROOT
HETATM    1  C   UNL     1      23.469  44.790  49.839  1.00  0.00     0.179 C 
HETATM    2  N   UNL     1      23.154  45.665  48.855  1.00  0.00    -0.333 N 
HETATM    3  S   UNL     1      22.948  43.205  49.720  1.00  0.00    -0.040 SA
HETATM    4  H   UNL     1      22.930  45.229  47.968  1.00  0.00     0.168 HD
ENDROOT
BRANCH   2   5
HETATM    5  C   UNL     1      22.935  47.057  48.915  1.00  0.00     0.035 A 
HETATM    6  C   UNL     1      21.656  47.632  48.940  1.00  0.00     0.046 A 
HETATM    7  C   UNL     1      21.486  49.028  48.995  1.00  0.00     0.035 A 
HETATM    8  C   UNL     1      22.642  49.829  49.039  1.00  0.00     0.078 A 
HETATM    9  C   UNL     1      23.914  49.269  48.963  1.00  0.00     0.040 A 
HETATM   10  C   UNL     1      24.059  47.886  48.885  1.00  0.00     0.032 A 
BRANCH   7  11
HETATM   11  C   UNL     1      20.154  49.659  49.000  1.00  0.00     0.112 A 
HETATM   12  S   UNL     1      18.860  49.065  48.035  1.00  0.00    -0.067 SA
HETATM   13  C   UNL     1      17.866  50.376  48.538  1.00  0.00     0.035 A 
HETATM   14  C   UNL     1      18.584  51.171  49.430  1.00  0.00     0.075 A 
HETATM   15  C   UNL     1      16.546  50.681  48.168  1.00  0.00     0.021 A 
HETATM   16  N   UNL     1      19.889  50.768  49.666  1.00  0.00    -0.239 NA
HETATM   17  C   UNL     1      17.954  52.298  49.995  1.00  0.00     0.033 A 
HETATM   18  C   UNL     1      16.637  52.608  49.640  1.00  0.00     0.002 A 
HETATM   19  C   UNL     1      15.945  51.812  48.733  1.00  0.00     0.002 A 
ENDBRANCH   7  11
BRANCH   8  20
HETATM   20  O   UNL     1      22.592  51.195  49.145  1.00  0.00    -0.360 OA
HETATM   21  H   UNL     1      21.803  51.424  49.681  1.00  0.00     0.217 HD
ENDBRANCH   8  20
ENDBRANCH   2   5
BRANCH   1  22
HETATM   22  N   UNL     1      24.235  45.139  50.913  1.00  0.00    -0.299 N 
HETATM   23  C   UNL     1      25.619  45.273  50.981  1.00  0.00     0.257 C 
HETATM   24  O   UNL     1      26.406  44.967  50.093  1.00  0.00    -0.267 OA
HETATM   25  H   UNL     1      23.775  44.954  51.795  1.00  0.00     0.171 HD
BRANCH  23  26
HETATM   26  C   UNL     1      26.151  45.740  52.295  1.00  0.00     0.035 A 
HETATM   27  C   UNL     1      27.134  44.963  52.930  1.00  0.00     0.053 A 
HETATM   28  C   UNL     1      27.652  45.359  54.162  1.00  0.00     0.069 A 
HETATM   29  C   UNL     1      27.181  46.531  54.761  1.00  0.00     0.037 A 
HETATM   30  C   UNL     1      26.226  47.323  54.123  1.00  0.00     0.004 A 
HETATM   31  C   UNL     1      25.715  46.934  52.886  1.00  0.00     0.017 A 
BRANCH  28  32
HETATM   32  O   UNL     1      28.591  44.683  54.889  1.00  0.00    -0.351 OA
BRANCH  32  33
HETATM   33  C   UNL     1      29.145  43.509  54.291  1.00  0.00     0.175 C 
BRANCH  33  34
HETATM   34  C   UNL     1      30.450  43.198  55.021  1.00  0.00     0.026 C 
BRANCH  34  35
HETATM   35  C   UNL     1      30.748  44.214  56.119  1.00  0.00    -0.002 C 
HETATM   36  C   UNL     1      31.667  43.629  57.180  1.00  0.00     0.005 C 
ENDBRANCH  34  35
ENDBRANCH  33  34
ENDBRANCH  32  33
ENDBRANCH  28  32
ENDBRANCH  23  26
ENDBRANCH   1  22
TORSDOF 9
ENDMDL
MODEL 6
REMARK VINA RESULT:      -9.1      2.886      4.594
REMARK  9 active torsions:
REMARK  status: ('A' for Active; 'I' for Inactive)
REMARK    1  A    between atoms: C_2  and  C_3 
REMARK    2  A    between atoms: C_3  and  C_4 
REMARK    3  A    between atoms: C_4  and  O_5 
REMARK    4  A    between atoms: O_5  and  C_6 
REMARK    5  A    between atoms: C_8  and  C_9 
REMARK       I    between atoms: C_9  and  N_10 
REMARK    6  A    between atoms: N_10  and  C_11 
REMARK    7  A    between atoms: N_12  and  C_13 
REMARK    8  A    between atoms: C_15  and  C_16 
REMARK    9  A    between atoms: C_25  and  O_26 
ROOT
HETATM    1  C   UNL     1      25.504  48.732  49.037  1.00  0.00     0.179 C 
HETATM    2  N   UNL     1      26.087  47.541  49.308  1.00  0.00    -0.333 N 
HETATM    3  S   UNL     1      26.393  49.922  48.270  1.00  0.00    -0.040 SA
HETATM    4  H   UNL     1      26.893  47.333  48.729  1.00  0.00     0.168 HD
ENDROOT
BRANCH   2   5
HETATM    5  C   UNL     1      25.852  46.633  50.361  1.00  0.00     0.035 A 
HETATM    6  C   UNL     1      26.779  46.388  51.385  1.00  0.00     0.046 A 
HETATM    7  C   UNL     1      26.501  45.469  52.414  1.00  0.00     0.035 A 
HETATM    8  C   UNL     1      25.257  44.814  52.391  1.00  0.00     0.078 A 
HETATM    9  C   UNL     1      24.353  45.012  51.351  1.00  0.00     0.040 A 
HETATM   10  C   UNL     1      24.658  45.909  50.330  1.00  0.00     0.032 A 
BRANCH   7  11
HETATM   11  C   UNL     1      27.467  45.178  53.490  1.00  0.00     0.112 A 
HETATM   12  S   UNL     1      27.737  46.269  54.792  1.00  0.00    -0.067 SA
HETATM   13  C   UNL     1      28.990  45.256  55.396  1.00  0.00     0.035 A 
HETATM   14  C   UNL     1      29.104  44.137  54.572  1.00  0.00     0.075 A 
HETATM   15  C   UNL     1      29.816  45.440  56.517  1.00  0.00     0.021 A 
HETATM   16  N   UNL     1      28.251  44.115  53.480  1.00  0.00    -0.239 NA
HETATM   17  C   UNL     1      30.059  43.152  54.893  1.00  0.00     0.033 A 
HETATM   18  C   UNL     1      30.882  43.320  56.011  1.00  0.00     0.002 A 
HETATM   19  C   UNL     1      30.765  44.454  56.809  1.00  0.00     0.002 A 
ENDBRANCH   7  11
BRANCH   8  20
HETATM   20  O   UNL     1      24.864  43.937  53.370  1.00  0.00    -0.360 OA
HETATM   21  H   UNL     1      24.300  43.254  52.949  1.00  0.00     0.217 HD
ENDBRANCH   8  20
ENDBRANCH   2   5
BRANCH   1  22
HETATM   22  N   UNL     1      24.196  48.990  49.330  1.00  0.00    -0.299 N 
HETATM   23  C   UNL     1      23.195  49.455  48.482  1.00  0.00     0.257 C 
HETATM   24  O   UNL     1      23.362  49.837  47.330  1.00  0.00    -0.267 OA
HETATM   25  H   UNL     1      24.047  49.172  50.314  1.00  0.00     0.171 HD
BRANCH  23  26
HETATM   26  C   UNL     1      21.839  49.569  49.097  1.00  0.00     0.035 A 
HETATM   27  C   UNL     1      20.987  48.454  49.043  1.00  0.00     0.053 A 
HETATM   28  C   UNL     1      19.710  48.522  49.597  1.00  0.00     0.069 A 
HETATM   29  C   UNL     1      19.285  49.707  50.201  1.00  0.00     0.037 A 
HETATM   30  C   UNL     1      20.136  50.810  50.285  1.00  0.00     0.004 A 
HETATM   31  C   UNL     1      21.417  50.741  49.740  1.00  0.00     0.017 A 
BRANCH  28  32
HETATM   32  O   UNL     1      18.783  47.518  49.591  1.00  0.00    -0.351 OA
BRANCH  32  33
HETATM   33  C   UNL     1      17.459  47.867  49.178  1.00  0.00     0.175 C 
BRANCH  33  34
HETATM   34  C   UNL     1      17.424  47.794  47.653  1.00  0.00     0.026 C 
BRANCH  34  35
HETATM   35  C   UNL     1      16.689  48.982  47.040  1.00  0.00    -0.002 C 
HETATM   36  C   UNL     1      15.433  49.322  47.827  1.00  0.00     0.005 C 
ENDBRANCH  34  35
ENDBRANCH  33  34
ENDBRANCH  32  33
ENDBRANCH  28  32
ENDBRANCH  23  26
ENDBRANCH   1  22
TORSDOF 9
ENDMDL
MODEL 7
REMARK VINA RESULT:      -8.7      3.345      7.380
REMARK  9 active torsions:
REMARK  status: ('A' for Active; 'I' for Inactive)
REMARK    1  A    between atoms: C_2  and  C_3 
REMARK    2  A    between atoms: C_3  and  C_4 
REMARK    3  A    between atoms: C_4  and  O_5 
REMARK    4  A    between atoms: O_5  and  C_6 
REMARK    5  A    between atoms: C_8  and  C_9 
REMARK       I    between atoms: C_9  and  N_10 
REMARK    6  A    between atoms: N_10  and  C_11 
REMARK    7  A    between atoms: N_12  and  C_13 
REMARK    8  A    between atoms: C_15  and  C_16 
REMARK    9  A    between atoms: C_25  and  O_26 
ROOT
HETATM    1  C   UNL     1      25.655  44.761  52.032  1.00  0.00     0.179 C 
HETATM    2  N   UNL     1      25.260  43.593  51.470  1.00  0.00    -0.333 N 
HETATM    3  S   UNL     1      26.075  44.789  53.650  1.00  0.00    -0.040 SA
HETATM    4  H   UNL     1      25.573  42.768  51.968  1.00  0.00     0.168 HD
ENDROOT
BRANCH   2   5
HETATM    5  C   UNL     1      24.358  43.353  50.413  1.00  0.00     0.035 A 
HETATM    6  C   UNL     1      23.378  44.273  50.016  1.00  0.00     0.046 A 
HETATM    7  C   UNL     1      22.497  43.987  48.956  1.00  0.00     0.035 A 
HETATM    8  C   UNL     1      22.642  42.753  48.297  1.00  0.00     0.078 A 
HETATM    9  C   UNL     1      23.579  41.813  48.717  1.00  0.00     0.040 A 
HETATM   10  C   UNL     1      24.425  42.107  49.784  1.00  0.00     0.032 A 
BRANCH   7  11
HETATM   11  C   UNL     1      21.444  44.928  48.532  1.00  0.00     0.112 A 
HETATM   12  S   UNL     1      21.804  46.529  48.019  1.00  0.00    -0.067 SA
HETATM   13  C   UNL     1      20.125  46.876  47.879  1.00  0.00     0.035 A 
HETATM   14  C   UNL     1      19.398  45.734  48.215  1.00  0.00     0.075 A 
HETATM   15  C   UNL     1      19.494  48.073  47.503  1.00  0.00     0.021 A 
HETATM   16  N   UNL     1      20.156  44.642  48.607  1.00  0.00    -0.239 NA
HETATM   17  C   UNL     1      17.991  45.780  48.147  1.00  0.00     0.033 A 
HETATM   18  C   UNL     1      17.352  46.964  47.766  1.00  0.00     0.002 A 
HETATM   19  C   UNL     1      18.096  48.098  47.454  1.00  0.00     0.002 A 
ENDBRANCH   7  11
BRANCH   8  20
HETATM   20  O   UNL     1      21.872  42.393  47.220  1.00  0.00    -0.360 OA
HETATM   21  H   UNL     1      22.235  42.847  46.430  1.00  0.00     0.217 HD
ENDBRANCH   8  20
ENDBRANCH   2   5
BRANCH   1  22
HETATM   22  N   UNL     1      25.763  45.917  51.315  1.00  0.00    -0.299 N 
HETATM   23  C   UNL     1      26.514  46.156  50.167  1.00  0.00     0.257 C 
HETATM   24  O   UNL     1      27.320  45.377  49.672  1.00  0.00    -0.267 OA
HETATM   25  H   UNL     1      25.543  46.737  51.865  1.00  0.00     0.171 HD
BRANCH  23  26
HETATM   26  C   UNL     1      26.364  47.520  49.579  1.00  0.00     0.035 A 
HETATM   27  C   UNL     1      25.068  48.004  49.343  1.00  0.00     0.053 A 
HETATM   28  C   UNL     1      24.884  49.269  48.787  1.00  0.00     0.069 A 
HETATM   29  C   UNL     1      25.998  50.047  48.464  1.00  0.00     0.037 A 
HETATM   30  C   UNL     1      27.289  49.585  48.722  1.00  0.00     0.004 A 
HETATM   31  C   UNL     1      27.475  48.324  49.288  1.00  0.00     0.017 A 
BRANCH  28  32
HETATM   32  O   UNL     1      23.679  49.844  48.489  1.00  0.00    -0.351 OA
BRANCH  32  33
HETATM   33  C   UNL     1      22.638  49.693  49.456  1.00  0.00     0.175 C 
BRANCH  33  34
HETATM   34  C   UNL     1      21.905  51.030  49.549  1.00  0.00     0.026 C 
BRANCH  34  35
HETATM   35  C   UNL     1      20.988  51.265  48.353  1.00  0.00    -0.002 C 
HETATM   36  C   UNL     1      19.663  51.876  48.783  1.00  0.00     0.005 C 
ENDBRANCH  34  35
ENDBRANCH  33  34
ENDBRANCH  32  33
ENDBRANCH  28  32
ENDBRANCH  23  26
ENDBRANCH   1  22
TORSDOF 9
ENDMDL
MODEL 8
REMARK VINA RESULT:      -8.7      2.477     10.098
REMARK  9 active torsions:
REMARK  status: ('A' for Active; 'I' for Inactive)
REMARK    1  A    between atoms: C_2  and  C_3 
REMARK    2  A    between atoms: C_3  and  C_4 
REMARK    3  A    between atoms: C_4  and  O_5 
REMARK    4  A    between atoms: O_5  and  C_6 
REMARK    5  A    between atoms: C_8  and  C_9 
REMARK       I    between atoms: C_9  and  N_10 
REMARK    6  A    between atoms: N_10  and  C_11 
REMARK    7  A    between atoms: N_12  and  C_13 
REMARK    8  A    between atoms: C_15  and  C_16 
REMARK    9  A    between atoms: C_25  and  O_26 
ROOT
HETATM    1  C   UNL     1      25.440  43.759  50.319  1.00  0.00     0.179 C 
HETATM    2  N   UNL     1      24.987  44.526  49.300  1.00  0.00    -0.333 N 
HETATM    3  S   UNL     1      25.149  42.112  50.295  1.00  0.00    -0.040 SA
HETATM    4  H   UNL     1      24.813  44.015  48.442  1.00  0.00     0.168 HD
ENDROOT
BRANCH   2   5
HETATM    5  C   UNL     1      24.571  45.874  49.292  1.00  0.00     0.035 A 
HETATM    6  C   UNL     1      23.289  46.279  48.895  1.00  0.00     0.046 A 
HETATM    7  C   UNL     1      22.921  47.638  48.901  1.00  0.00     0.035 A 
HETATM    8  C   UNL     1      23.876  48.575  49.332  1.00  0.00     0.078 A 
HETATM    9  C   UNL     1      25.167  48.187  49.679  1.00  0.00     0.040 A 
HETATM   10  C   UNL     1      25.518  46.839  49.643  1.00  0.00     0.032 A 
BRANCH   7  11
HETATM   11  C   UNL     1      21.587  48.093  48.468  1.00  0.00     0.112 A 
HETATM   12  S   UNL     1      20.185  47.114  48.655  1.00  0.00    -0.067 SA
HETATM   13  C   UNL     1      19.239  48.289  47.827  1.00  0.00     0.035 A 
HETATM   14  C   UNL     1      20.056  49.364  47.480  1.00  0.00     0.075 A 
HETATM   15  C   UNL     1      17.872  48.260  47.503  1.00  0.00     0.021 A 
HETATM   16  N   UNL     1      21.391  49.232  47.828  1.00  0.00    -0.239 NA
HETATM   17  C   UNL     1      19.484  50.464  46.810  1.00  0.00     0.033 A 
HETATM   18  C   UNL     1      18.122  50.451  46.489  1.00  0.00     0.002 A 
HETATM   19  C   UNL     1      17.330  49.358  46.827  1.00  0.00     0.002 A 
ENDBRANCH   7  11
BRANCH   8  20
HETATM   20  O   UNL     1      23.608  49.917  49.425  1.00  0.00    -0.360 OA
HETATM   21  H   UNL     1      23.622  50.158  50.376  1.00  0.00     0.217 HD
ENDBRANCH   8  20
ENDBRANCH   2   5
BRANCH   1  22
HETATM   22  N   UNL     1      26.166  44.272  51.354  1.00  0.00    -0.299 N 
HETATM   23  C   UNL     1      25.729  44.617  52.630  1.00  0.00     0.257 C 
HETATM   24  O   UNL     1      24.561  44.633  52.999  1.00  0.00    -0.267 OA
HETATM   25  H   UNL     1      27.007  44.742  51.044  1.00  0.00     0.171 HD
BRANCH  23  26
HETATM   26  C   UNL     1      26.794  45.091  53.563  1.00  0.00     0.035 A 
HETATM   27  C   UNL     1      27.830  44.204  53.896  1.00  0.00     0.053 A 
HETATM   28  C   UNL     1      28.840  44.604  54.771  1.00  0.00     0.069 A 
HETATM   29  C   UNL     1      28.808  45.890  55.315  1.00  0.00     0.037 A 
HETATM   30  C   UNL     1      27.798  46.787  54.966  1.00  0.00     0.004 A 
HETATM   31  C   UNL     1      26.793  46.393  54.084  1.00  0.00     0.017 A 
BRANCH  28  32
HETATM   32  O   UNL     1      29.887  43.831  55.189  1.00  0.00    -0.351 OA
BRANCH  32  33
HETATM   33  C   UNL     1      30.979  44.510  55.813  1.00  0.00     0.175 C 
BRANCH  33  34
HETATM   34  C   UNL     1      31.385  43.689  57.036  1.00  0.00     0.026 C 
BRANCH  34  35
HETATM   35  C   UNL     1      31.519  44.553  58.286  1.00  0.00    -0.002 C 
HETATM   36  C   UNL     1      30.583  45.751  58.234  1.00  0.00     0.005 C 
ENDBRANCH  34  35
ENDBRANCH  33  34
ENDBRANCH  32  33
ENDBRANCH  28  32
ENDBRANCH  23  26
ENDBRANCH   1  22
TORSDOF 9
ENDMDL
MODEL 9
REMARK VINA RESULT:      -8.5      3.923      5.711
REMARK  9 active torsions:
REMARK  status: ('A' for Active; 'I' for Inactive)
REMARK    1  A    between atoms: C_2  and  C_3 
REMARK    2  A    between atoms: C_3  and  C_4 
REMARK    3  A    between atoms: C_4  and  O_5 
REMARK    4  A    between atoms: O_5  and  C_6 
REMARK    5  A    between atoms: C_8  and  C_9 
REMARK       I    between atoms: C_9  and  N_10 
REMARK    6  A    between atoms: N_10  and  C_11 
REMARK    7  A    between atoms: N_12  and  C_13 
REMARK    8  A    between atoms: C_15  and  C_16 
REMARK    9  A    between atoms: C_25  and  O_26 
ROOT
HETATM    1  C   UNL     1      22.945  48.827  49.088  1.00  0.00     0.179 C 
HETATM    2  N   UNL     1      24.100  48.158  49.314  1.00  0.00    -0.333 N 
HETATM    3  S   UNL     1      22.982  50.490  48.920  1.00  0.00    -0.040 SA
HETATM    4  H   UNL     1      24.932  48.660  49.026  1.00  0.00     0.168 HD
ENDROOT
BRANCH   2   5
HETATM    5  C   UNL     1      24.334  46.963  50.027  1.00  0.00     0.035 A 
HETATM    6  C   UNL     1      25.259  46.863  51.075  1.00  0.00     0.046 A 
HETATM    7  C   UNL     1      25.461  45.647  51.754  1.00  0.00     0.035 A 
HETATM    8  C   UNL     1      24.693  44.538  51.357  1.00  0.00     0.078 A 
HETATM    9  C   UNL     1      23.809  44.616  50.284  1.00  0.00     0.040 A 
HETATM   10  C   UNL     1      23.642  45.823  49.611  1.00  0.00     0.032 A 
BRANCH   7  11
HETATM   11  C   UNL     1      26.443  45.509  52.845  1.00  0.00     0.112 A 
HETATM   12  S   UNL     1      26.574  46.671  54.107  1.00  0.00    -0.067 SA
HETATM   13  C   UNL     1      27.930  45.834  54.755  1.00  0.00     0.035 A 
HETATM   14  C   UNL     1      28.180  44.706  53.974  1.00  0.00     0.075 A 
HETATM   15  C   UNL     1      28.718  46.153  55.873  1.00  0.00     0.021 A 
HETATM   16  N   UNL     1      27.346  44.545  52.880  1.00  0.00    -0.239 NA
HETATM   17  C   UNL     1      29.239  43.850  54.336  1.00  0.00     0.033 A 
HETATM   18  C   UNL     1      30.027  44.153  55.452  1.00  0.00     0.002 A 
HETATM   19  C   UNL     1      29.771  45.294  56.206  1.00  0.00     0.002 A 
ENDBRANCH   7  11
BRANCH   8  20
HETATM   20  O   UNL     1      24.772  43.320  51.983  1.00  0.00    -0.360 OA
HETATM   21  H   UNL     1      24.982  42.648  51.300  1.00  0.00     0.217 HD
ENDBRANCH   8  20
ENDBRANCH   2   5
BRANCH   1  22
HETATM   22  N   UNL     1      21.746  48.190  48.948  1.00  0.00    -0.299 N 
HETATM   23  C   UNL     1      20.484  48.624  49.345  1.00  0.00     0.257 C 
HETATM   24  O   UNL     1      20.257  49.624  50.016  1.00  0.00    -0.267 OA
HETATM   25  H   UNL     1      21.847  47.188  48.853  1.00  0.00     0.171 HD
BRANCH  23  26
HETATM   26  C   UNL     1      19.354  47.718  48.984  1.00  0.00     0.035 A 
HETATM   27  C   UNL     1      19.658  46.449  48.465  1.00  0.00     0.053 A 
HETATM   28  C   UNL     1      18.632  45.575  48.107  1.00  0.00     0.069 A 
HETATM   29  C   UNL     1      17.303  45.974  48.264  1.00  0.00     0.037 A 
HETATM   30  C   UNL     1      16.993  47.222  48.805  1.00  0.00     0.004 A 
HETATM   31  C   UNL     1      18.017  48.093  49.174  1.00  0.00     0.017 A 
BRANCH  28  32
HETATM   32  O   UNL     1      18.796  44.327  47.574  1.00  0.00    -0.351 OA
BRANCH  32  33
HETATM   33  C   UNL     1      19.904  44.145  46.689  1.00  0.00     0.175 C 
BRANCH  33  34
HETATM   34  C   UNL     1      19.388  43.395  45.462  1.00  0.00     0.026 C 
BRANCH  34  35
HETATM   35  C   UNL     1      18.752  44.334  44.442  1.00  0.00    -0.002 C 
HETATM   36  C   UNL     1      19.453  45.684  44.420  1.00  0.00     0.005 C 
ENDBRANCH  34  35
ENDBRANCH  33  34
ENDBRANCH  32  33
ENDBRANCH  28  32
ENDBRANCH  23  26
ENDBRANCH   1  22
TORSDOF 9
ENDMDL
MODEL 10
REMARK VINA RESULT:      -8.5      4.008      5.559
REMARK  9 active torsions:
REMARK  status: ('A' for Active; 'I' for Inactive)
REMARK    1  A    between atoms: C_2  and  C_3 
REMARK    2  A    between atoms: C_3  and  C_4 
REMARK    3  A    between atoms: C_4  and  O_5 
REMARK    4  A    between atoms: O_5  and  C_6 
REMARK    5  A    between atoms: C_8  and  C_9 
REMARK       I    between atoms: C_9  and  N_10 
REMARK    6  A    between atoms: N_10  and  C_11 
REMARK    7  A    between atoms: N_12  and  C_13 
REMARK    8  A    between atoms: C_15  and  C_16 
REMARK    9  A    between atoms: C_25  and  O_26 
ROOT
HETATM    1  C   UNL     1      23.174  48.767  49.110  1.00  0.00     0.179 C 
HETATM    2  N   UNL     1      24.315  48.108  49.419  1.00  0.00    -0.333 N 
HETATM    3  S   UNL     1      23.217  50.426  48.906  1.00  0.00    -0.040 SA
HETATM    4  H   UNL     1      25.162  48.605  49.166  1.00  0.00     0.168 HD
ENDROOT
BRANCH   2   5
HETATM    5  C   UNL     1      24.510  46.931  50.171  1.00  0.00     0.035 A 
HETATM    6  C   UNL     1      25.466  46.822  51.191  1.00  0.00     0.046 A 
HETATM    7  C   UNL     1      25.626  45.624  51.913  1.00  0.00     0.035 A 
HETATM    8  C   UNL     1      24.786  44.544  51.588  1.00  0.00     0.078 A 
HETATM    9  C   UNL     1      23.870  44.628  50.543  1.00  0.00     0.040 A 
HETATM   10  C   UNL     1      23.744  45.815  49.826  1.00  0.00     0.032 A 
BRANCH   7  11
HETATM   11  C   UNL     1      26.638  45.476  52.975  1.00  0.00     0.112 A 
HETATM   12  S   UNL     1      26.833  46.649  54.218  1.00  0.00    -0.067 SA
HETATM   13  C   UNL     1      28.189  45.787  54.835  1.00  0.00     0.035 A 
HETATM   14  C   UNL     1      28.389  44.645  54.061  1.00  0.00     0.075 A 
HETATM   15  C   UNL     1      29.018  46.101  55.925  1.00  0.00     0.021 A 
HETATM   16  N   UNL     1      27.519  44.491  52.994  1.00  0.00    -0.239 NA
HETATM   17  C   UNL     1      29.439  43.769  54.401  1.00  0.00     0.033 A 
HETATM   18  C   UNL     1      30.267  44.066  55.489  1.00  0.00     0.002 A 
HETATM   19  C   UNL     1      30.061  45.222  56.236  1.00  0.00     0.002 A 
ENDBRANCH   7  11
BRANCH   8  20
HETATM   20  O   UNL     1      24.823  43.349  52.261  1.00  0.00    -0.360 OA
HETATM   21  H   UNL     1      23.937  43.203  52.657  1.00  0.00     0.217 HD
ENDBRANCH   8  20
ENDBRANCH   2   5
BRANCH   1  22
HETATM   22  N   UNL     1      21.986  48.124  48.918  1.00  0.00    -0.299 N 
HETATM   23  C   UNL     1      20.701  48.575  49.206  1.00  0.00     0.257 C 
HETATM   24  O   UNL     1      20.430  49.606  49.811  1.00  0.00    -0.267 OA
HETATM   25  H   UNL     1      22.091  47.118  48.878  1.00  0.00     0.171 HD
BRANCH  23  26
HETATM   26  C   UNL     1      19.596  47.652  48.810  1.00  0.00     0.035 A 
HETATM   27  C   UNL     1      18.283  48.151  48.801  1.00  0.00     0.053 A 
HETATM   28  C   UNL     1      17.222  47.320  48.445  1.00  0.00     0.069 A 
HETATM   29  C   UNL     1      17.475  45.990  48.104  1.00  0.00     0.037 A 
HETATM   30  C   UNL     1      18.779  45.494  48.084  1.00  0.00     0.004 A 
HETATM   31  C   UNL     1      19.843  46.326  48.428  1.00  0.00     0.017 A 
BRANCH  28  32
HETATM   32  O   UNL     1      15.903  47.677  48.417  1.00  0.00    -0.351 OA
BRANCH  32  33
HETATM   33  C   UNL     1      15.615  49.067  48.246  1.00  0.00     0.175 C 
BRANCH  33  34
HETATM   34  C   UNL     1      15.413  49.309  46.751  1.00  0.00     0.026 C 
BRANCH  34  35
HETATM   35  C   UNL     1      14.449  48.302  46.133  1.00  0.00    -0.002 C 
HETATM   36  C   UNL     1      15.140  47.446  45.084  1.00  0.00     0.005 C 
ENDBRANCH  34  35
ENDBRANCH  33  34
ENDBRANCH  32  33
ENDBRANCH  28  32
ENDBRANCH  23  26
ENDBRANCH   1  22
TORSDOF 9
ENDMDL
