MODEL 1
REMARK VINA RESULT:     -10.1      0.000      0.000
REMARK  5 active torsions:
REMARK  status: ('A' for Active; 'I' for Inactive)
REMARK    1  A    between atoms: C_7  and  C_8 
REMARK    2  A    between atoms: N_9  and  N_10 
REMARK       I    between atoms: N_10  and  C_11 
REMARK    3  A    between atoms: C_11  and  C_12 
REMARK    4  A    between atoms: C_12  and  N_13 
REMARK       I    between atoms: N_13  and  C_14 
REMARK    5  A    between atoms: C_14  and  C_15 
ROOT
HETATM    1  N   UNL     1      25.042  46.514  51.146  1.00  0.00    -0.246 N 
HETATM    2  C   UNL     1      24.825  47.441  50.136  1.00  0.00     0.255 C 
HETATM    3  O   UNL     1      25.528  48.419  49.890  1.00  0.00    -0.270 OA
HETATM    4  H   UNL     1      24.436  45.689  51.200  1.00  0.00     0.192 HD
ENDROOT
BRANCH   1   5
HETATM    5  N   UNL     1      26.074  46.673  52.022  1.00  0.00    -0.184 NA
HETATM    6  C   UNL     1      26.073  45.864  53.031  1.00  0.00     0.153 C 
BRANCH   6   7
HETATM    7  C   UNL     1      27.108  45.957  54.047  1.00  0.00     0.018 A 
HETATM    8  C   UNL     1      27.257  46.956  55.001  1.00  0.00     0.018 A 
HETATM    9  C   UNL     1      26.456  48.181  55.270  1.00  0.00     0.069 C 
HETATM   10  N   UNL     1      28.356  46.647  55.763  1.00  0.00    -0.358 N 
HETATM   11  H   UNL     1      28.699  47.200  56.536  1.00  0.00     0.166 HD
HETATM   12  C   UNL     1      28.927  45.472  55.337  1.00  0.00     0.043 A 
HETATM   13  C   UNL     1      28.170  45.014  54.260  1.00  0.00     0.004 A 
HETATM   14  C   UNL     1      30.048  44.789  55.826  1.00  0.00     0.030 A 
HETATM   15  C   UNL     1      28.556  43.806  53.639  1.00  0.00     0.014 A 
HETATM   16  C   UNL     1      29.675  43.110  54.114  1.00  0.00     0.001 A 
HETATM   17  C   UNL     1      30.407  43.597  55.193  1.00  0.00     0.002 A 
ENDBRANCH   6   7
ENDBRANCH   1   5
BRANCH   2  18
HETATM   18  C   UNL     1      23.548  47.156  49.346  1.00  0.00     0.227 C 
BRANCH  18  19
HETATM   19  N   UNL     1      22.499  48.138  49.569  1.00  0.00    -0.348 N 
HETATM   20  C   UNL     1      22.181  49.083  48.620  1.00  0.00     0.252 C 
HETATM   21  O   UNL     1      22.823  49.219  47.582  1.00  0.00    -0.268 OA
HETATM   22  H   UNL     1      22.136  48.228  50.510  1.00  0.00     0.163 HD
BRANCH  20  23
HETATM   23  C   UNL     1      21.044  49.984  48.943  1.00  0.00     0.032 A 
HETATM   24  C   UNL     1      20.128  49.587  49.927  1.00  0.00     0.020 A 
HETATM   25  C   UNL     1      19.059  50.420  50.262  1.00  0.00     0.043 A 
HETATM   26  C   UNL     1      18.920  51.648  49.624  1.00  0.00     0.116 A 
HETATM   27  F   UNL     1      17.899  52.450  49.952  1.00  0.00    -0.206 F 
HETATM   28  C   UNL     1      19.830  52.061  48.656  1.00  0.00     0.043 A 
HETATM   29  C   UNL     1      20.898  51.229  48.313  1.00  0.00     0.020 A 
ENDBRANCH  20  23
ENDBRANCH  18  19
ENDBRANCH   2  18
TORSDOF 5
ENDMDL
MODEL 2
REMARK VINA RESULT:      -9.7      4.475      9.997
REMARK  5 active torsions:
REMARK  status: ('A' for Active; 'I' for Inactive)
REMARK    1  A    between atoms: C_7  and  C_8 
REMARK    2  A    between atoms: N_9  and  N_10 
REMARK       I    between atoms: N_10  and  C_11 
REMARK    3  A    between atoms: C_11  and  C_12 
REMARK    4  A    between atoms: C_12  and  N_13 
REMARK       I    between atoms: N_13  and  C_14 
REMARK    5  A    between atoms: C_14  and  C_15 
ROOT
HETATM    1  N   UNL     1      25.912  45.120  50.877  1.00  0.00    -0.246 N 
HETATM    2  C   UNL     1      26.655  43.985  50.586  1.00  0.00     0.255 C 
HETATM    3  O   UNL     1      27.248  43.760  49.533  1.00  0.00    -0.270 OA
HETATM    4  H   UNL     1      25.534  45.238  51.822  1.00  0.00     0.192 HD
ENDROOT
BRANCH   1   5
HETATM    5  N   UNL     1      25.727  46.087  49.934  1.00  0.00    -0.184 NA
HETATM    6  C   UNL     1      25.598  47.291  50.392  1.00  0.00     0.153 C 
BRANCH   6   7
HETATM    7  C   UNL     1      25.367  48.400  49.484  1.00  0.00     0.018 A 
HETATM    8  C   UNL     1      26.328  49.210  48.890  1.00  0.00     0.018 A 
HETATM    9  C   UNL     1      27.812  49.205  48.992  1.00  0.00     0.069 C 
HETATM   10  N   UNL     1      25.675  50.123  48.100  1.00  0.00    -0.358 N 
HETATM   11  H   UNL     1      26.127  50.837  47.545  1.00  0.00     0.166 HD
HETATM   12  C   UNL     1      24.316  49.931  48.157  1.00  0.00     0.043 A 
HETATM   13  C   UNL     1      24.088  48.859  49.018  1.00  0.00     0.004 A 
HETATM   14  C   UNL     1      23.283  50.622  47.511  1.00  0.00     0.030 A 
HETATM   15  C   UNL     1      22.753  48.458  49.245  1.00  0.00     0.014 A 
HETATM   16  C   UNL     1      21.708  49.138  48.608  1.00  0.00     0.001 A 
HETATM   17  C   UNL     1      21.973  50.204  47.753  1.00  0.00     0.002 A 
ENDBRANCH   6   7
ENDBRANCH   1   5
BRANCH   2  18
HETATM   18  C   UNL     1      26.634  42.966  51.725  1.00  0.00     0.227 C 
BRANCH  18  19
HETATM   19  N   UNL     1      27.711  43.150  52.685  1.00  0.00    -0.348 N 
HETATM   20  C   UNL     1      27.655  44.125  53.654  1.00  0.00     0.252 C 
HETATM   21  O   UNL     1      26.753  44.956  53.704  1.00  0.00    -0.268 OA
HETATM   22  H   UNL     1      28.582  42.666  52.507  1.00  0.00     0.163 HD
BRANCH  20  23
HETATM   23  C   UNL     1      28.787  44.163  54.617  1.00  0.00     0.032 A 
HETATM   24  C   UNL     1      29.680  43.083  54.649  1.00  0.00     0.020 A 
HETATM   25  C   UNL     1      30.762  43.098  55.531  1.00  0.00     0.043 A 
HETATM   26  C   UNL     1      30.953  44.196  56.364  1.00  0.00     0.116 A 
HETATM   27  F   UNL     1      31.995  44.213  57.205  1.00  0.00    -0.206 F 
HETATM   28  C   UNL     1      30.083  45.281  56.332  1.00  0.00     0.043 A 
HETATM   29  C   UNL     1      28.996  45.269  55.455  1.00  0.00     0.020 A 
ENDBRANCH  20  23
ENDBRANCH  18  19
ENDBRANCH   2  18
TORSDOF 5
ENDMDL
MODEL 3
REMARK VINA RESULT:      -9.1      1.378      2.429
REMARK  5 active torsions:
REMARK  status: ('A' for Active; 'I' for Inactive)
REMARK    1  A    between atoms: C_7  and  C_8 
REMARK    2  A    between atoms: N_9  and  N_10 
REMARK       I    between atoms: N_10  and  C_11 
REMARK    3  A    between atoms: C_11  and  C_12 
REMARK    4  A    between atoms: C_12  and  N_13 
REMARK       I    between atoms: N_13  and  C_14 
REMARK    5  A    between atoms: C_14  and  C_15 
ROOT
HETATM    1  N   UNL     1      25.685  45.605  50.197  1.00  0.00    -0.246 N 
HETATM    2  C   UNL     1      24.871  46.720  50.339  1.00  0.00     0.255 C 
HETATM    3  O   UNL     1      25.023  47.625  51.156  1.00  0.00    -0.270 OA
HETATM    4  H   UNL     1      25.510  44.959  49.421  1.00  0.00     0.192 HD
ENDROOT
BRANCH   1   5
HETATM    5  N   UNL     1      26.731  45.398  51.046  1.00  0.00    -0.184 NA
HETATM    6  C   UNL     1      26.601  44.394  51.851  1.00  0.00     0.153 C 
BRANCH   6   7
HETATM    7  C   UNL     1      27.639  44.092  52.821  1.00  0.00     0.018 A 
HETATM    8  C   UNL     1      28.458  42.969  52.851  1.00  0.00     0.018 A 
HETATM    9  C   UNL     1      28.526  41.783  51.956  1.00  0.00     0.069 C 
HETATM   10  N   UNL     1      29.301  43.095  53.927  1.00  0.00    -0.358 N 
HETATM   11  H   UNL     1      30.008  42.422  54.190  1.00  0.00     0.166 HD
HETATM   12  C   UNL     1      29.060  44.269  54.599  1.00  0.00     0.043 A 
HETATM   13  C   UNL     1      28.022  44.918  53.932  1.00  0.00     0.004 A 
HETATM   14  C   UNL     1      29.684  44.797  55.736  1.00  0.00     0.030 A 
HETATM   15  C   UNL     1      27.585  46.164  54.433  1.00  0.00     0.014 A 
HETATM   16  C   UNL     1      28.197  46.707  55.569  1.00  0.00     0.001 A 
HETATM   17  C   UNL     1      29.232  46.031  56.209  1.00  0.00     0.002 A 
ENDBRANCH   6   7
ENDBRANCH   1   5
BRANCH   2  18
HETATM   18  C   UNL     1      23.682  46.702  49.378  1.00  0.00     0.227 C 
BRANCH  18  19
HETATM   19  N   UNL     1      22.794  47.842  49.537  1.00  0.00    -0.348 N 
HETATM   20  C   UNL     1      21.975  48.266  48.516  1.00  0.00     0.252 C 
HETATM   21  O   UNL     1      22.017  47.779  47.389  1.00  0.00    -0.268 OA
HETATM   22  H   UNL     1      22.928  48.428  50.351  1.00  0.00     0.163 HD
BRANCH  20  23
HETATM   23  C   UNL     1      21.065  49.399  48.828  1.00  0.00     0.032 A 
HETATM   24  C   UNL     1      20.016  49.190  49.734  1.00  0.00     0.020 A 
HETATM   25  C   UNL     1      19.155  50.239  50.060  1.00  0.00     0.043 A 
HETATM   26  C   UNL     1      19.355  51.493  49.490  1.00  0.00     0.116 A 
HETATM   27  F   UNL     1      18.534  52.501  49.808  1.00  0.00    -0.206 F 
HETATM   28  C   UNL     1      20.402  51.718  48.601  1.00  0.00     0.043 A 
HETATM   29  C   UNL     1      21.263  50.670  48.268  1.00  0.00     0.020 A 
ENDBRANCH  20  23
ENDBRANCH  18  19
ENDBRANCH   2  18
TORSDOF 5
ENDMDL
MODEL 4
REMARK VINA RESULT:      -8.8      2.441      2.958
REMARK  5 active torsions:
REMARK  status: ('A' for Active; 'I' for Inactive)
REMARK    1  A    between atoms: C_7  and  C_8 
REMARK    2  A    between atoms: N_9  and  N_10 
REMARK       I    between atoms: N_10  and  C_11 
REMARK    3  A    between atoms: C_11  and  C_12 
REMARK    4  A    between atoms: C_12  and  N_13 
REMARK       I    between atoms: N_13  and  C_14 
REMARK    5  A    between atoms: C_14  and  C_15 
ROOT
HETATM    1  N   UNL     1      24.793  45.089  52.060  1.00  0.00    -0.246 N 
HETATM    2  C   UNL     1      24.771  44.018  51.179  1.00  0.00     0.255 C 
HETATM    3  O   UNL     1      25.381  42.959  51.314  1.00  0.00    -0.270 OA
HETATM    4  H   UNL     1      24.174  45.887  51.886  1.00  0.00     0.192 HD
ENDROOT
BRANCH   1   5
HETATM    5  N   UNL     1      25.588  45.059  53.167  1.00  0.00    -0.184 NA
HETATM    6  C   UNL     1      26.618  45.841  53.130  1.00  0.00     0.153 C 
BRANCH   6   7
HETATM    7  C   UNL     1      27.554  45.874  54.240  1.00  0.00     0.018 A 
HETATM    8  C   UNL     1      27.610  46.815  55.261  1.00  0.00     0.018 A 
HETATM    9  C   UNL     1      26.783  48.023  55.526  1.00  0.00     0.069 C 
HETATM   10  N   UNL     1      28.636  46.460  56.101  1.00  0.00    -0.358 N 
HETATM   11  H   UNL     1      28.904  46.967  56.934  1.00  0.00     0.166 HD
HETATM   12  C   UNL     1      29.249  45.312  55.662  1.00  0.00     0.043 A 
HETATM   13  C   UNL     1      28.596  44.918  54.495  1.00  0.00     0.004 A 
HETATM   14  C   UNL     1      30.323  44.600  56.212  1.00  0.00     0.030 A 
HETATM   15  C   UNL     1      29.043  43.748  53.843  1.00  0.00     0.014 A 
HETATM   16  C   UNL     1      30.116  43.024  54.378  1.00  0.00     0.001 A 
HETATM   17  C   UNL     1      30.744  43.447  55.546  1.00  0.00     0.002 A 
ENDBRANCH   6   7
ENDBRANCH   1   5
BRANCH   2  18
HETATM   18  C   UNL     1      23.921  44.298  49.939  1.00  0.00     0.227 C 
BRANCH  18  19
HETATM   19  N   UNL     1      23.927  45.696  49.539  1.00  0.00    -0.348 N 
HETATM   20  C   UNL     1      22.821  46.290  48.977  1.00  0.00     0.252 C 
HETATM   21  O   UNL     1      21.807  45.660  48.688  1.00  0.00    -0.268 OA
HETATM   22  H   UNL     1      24.821  46.170  49.512  1.00  0.00     0.163 HD
BRANCH  20  23
HETATM   23  C   UNL     1      22.933  47.742  48.677  1.00  0.00     0.032 A 
HETATM   24  C   UNL     1      24.088  48.425  49.081  1.00  0.00     0.020 A 
HETATM   25  C   UNL     1      24.229  49.785  48.798  1.00  0.00     0.043 A 
HETATM   26  C   UNL     1      23.223  50.449  48.103  1.00  0.00     0.116 A 
HETATM   27  F   UNL     1      23.362  51.752  47.826  1.00  0.00    -0.206 F 
HETATM   28  C   UNL     1      22.078  49.780  47.684  1.00  0.00     0.043 A 
HETATM   29  C   UNL     1      21.930  48.420  47.968  1.00  0.00     0.020 A 
ENDBRANCH  20  23
ENDBRANCH  18  19
ENDBRANCH   2  18
TORSDOF 5
ENDMDL
MODEL 5
REMARK VINA RESULT:      -8.8      1.899      2.230
REMARK  5 active torsions:
REMARK  status: ('A' for Active; 'I' for Inactive)
REMARK    1  A    between atoms: C_7  and  C_8 
REMARK    2  A    between atoms: N_9  and  N_10 
REMARK       I    between atoms: N_10  and  C_11 
REMARK    3  A    between atoms: C_11  and  C_12 
REMARK    4  A    between atoms: C_12  and  N_13 
REMARK       I    between atoms: N_13  and  C_14 
REMARK    5  A    between atoms: C_14  and  C_15 
ROOT
HETATM    1  N   UNL     1      24.133  45.450  50.669  1.00  0.00    -0.246 N 
HETATM    2  C   UNL     1      23.178  44.553  50.212  1.00  0.00     0.255 C 
HETATM    3  O   UNL     1      22.899  43.472  50.726  1.00  0.00    -0.270 OA
HETATM    4  H   UNL     1      24.218  46.362  50.208  1.00  0.00     0.192 HD
ENDROOT
BRANCH   1   5
HETATM    5  N   UNL     1      24.914  45.143  51.742  1.00  0.00    -0.184 NA
HETATM    6  C   UNL     1      25.896  45.956  51.964  1.00  0.00     0.153 C 
BRANCH   6   7
HETATM    7  C   UNL     1      26.814  45.715  53.064  1.00  0.00     0.018 A 
HETATM    8  C   UNL     1      26.913  46.439  54.246  1.00  0.00     0.018 A 
HETATM    9  C   UNL     1      26.160  47.627  54.734  1.00  0.00     0.069 C 
HETATM   10  N   UNL     1      27.900  45.864  55.007  1.00  0.00    -0.358 N 
HETATM   11  H   UNL     1      28.186  46.184  55.922  1.00  0.00     0.166 HD
HETATM   12  C   UNL     1      28.446  44.783  54.359  1.00  0.00     0.043 A 
HETATM   13  C   UNL     1      27.788  44.663  53.135  1.00  0.00     0.004 A 
HETATM   14  C   UNL     1      29.463  43.911  54.766  1.00  0.00     0.030 A 
HETATM   15  C   UNL     1      28.171  43.611  52.274  1.00  0.00     0.014 A 
HETATM   16  C   UNL     1      29.186  42.730  52.664  1.00  0.00     0.001 A 
HETATM   17  C   UNL     1      29.821  42.880  53.894  1.00  0.00     0.002 A 
ENDBRANCH   6   7
ENDBRANCH   1   5
BRANCH   2  18
HETATM   18  C   UNL     1      22.501  45.025  48.925  1.00  0.00     0.227 C 
BRANCH  18  19
HETATM   19  N   UNL     1      22.083  46.417  48.969  1.00  0.00    -0.348 N 
HETATM   20  C   UNL     1      21.889  47.149  47.820  1.00  0.00     0.252 C 
HETATM   21  O   UNL     1      22.154  46.709  46.704  1.00  0.00    -0.268 OA
HETATM   22  H   UNL     1      22.118  46.887  49.865  1.00  0.00     0.163 HD
BRANCH  20  23
HETATM   23  C   UNL     1      21.395  48.539  47.999  1.00  0.00     0.032 A 
HETATM   24  C   UNL     1      22.211  49.464  48.664  1.00  0.00     0.020 A 
HETATM   25  C   UNL     1      21.780  50.781  48.832  1.00  0.00     0.043 A 
HETATM   26  C   UNL     1      20.544  51.168  48.325  1.00  0.00     0.116 A 
HETATM   27  F   UNL     1      20.134  52.434  48.480  1.00  0.00    -0.206 F 
HETATM   28  C   UNL     1      19.730  50.264  47.650  1.00  0.00     0.043 A 
HETATM   29  C   UNL     1      20.155  48.944  47.483  1.00  0.00     0.020 A 
ENDBRANCH  20  23
ENDBRANCH  18  19
ENDBRANCH   2  18
TORSDOF 5
ENDMDL
MODEL 6
REMARK VINA RESULT:      -8.7      6.605      8.953
REMARK  5 active torsions:
REMARK  status: ('A' for Active; 'I' for Inactive)
REMARK    1  A    between atoms: C_7  and  C_8 
REMARK    2  A    between atoms: N_9  and  N_10 
REMARK       I    between atoms: N_10  and  C_11 
REMARK    3  A    between atoms: C_11  and  C_12 
REMARK    4  A    between atoms: C_12  and  N_13 
REMARK       I    between atoms: N_13  and  C_14 
REMARK    5  A    between atoms: C_14  and  C_15 
ROOT
HETATM    1  N   UNL     1      27.264  43.299  51.172  1.00  0.00    -0.246 N 
HETATM    2  C   UNL     1      26.965  43.902  49.959  1.00  0.00     0.255 C 
HETATM    3  O   UNL     1      27.337  45.016  49.595  1.00  0.00    -0.270 OA
HETATM    4  H   UNL     1      26.971  42.330  51.330  1.00  0.00     0.192 HD
ENDROOT
BRANCH   1   5
HETATM    5  N   UNL     1      27.979  43.968  52.120  1.00  0.00    -0.184 NA
HETATM    6  C   UNL     1      27.329  44.263  53.199  1.00  0.00     0.153 C 
BRANCH   6   7
HETATM    7  C   UNL     1      27.978  45.001  54.268  1.00  0.00     0.018 A 
HETATM    8  C   UNL     1      27.626  46.253  54.756  1.00  0.00     0.018 A 
HETATM    9  C   UNL     1      26.538  47.189  54.359  1.00  0.00     0.069 C 
HETATM   10  N   UNL     1      28.496  46.567  55.770  1.00  0.00    -0.358 N 
HETATM   11  H   UNL     1      28.473  47.422  56.309  1.00  0.00     0.166 HD
HETATM   12  C   UNL     1      29.404  45.555  55.962  1.00  0.00     0.043 A 
HETATM   13  C   UNL     1      29.109  44.557  55.035  1.00  0.00     0.004 A 
HETATM   14  C   UNL     1      30.454  45.453  56.884  1.00  0.00     0.030 A 
HETATM   15  C   UNL     1      29.909  43.393  55.031  1.00  0.00     0.014 A 
HETATM   16  C   UNL     1      30.963  43.274  55.945  1.00  0.00     0.001 A 
HETATM   17  C   UNL     1      31.228  44.291  56.858  1.00  0.00     0.002 A 
ENDBRANCH   6   7
ENDBRANCH   1   5
BRANCH   2  18
HETATM   18  C   UNL     1      26.048  43.041  49.089  1.00  0.00     0.227 C 
BRANCH  18  19
HETATM   19  N   UNL     1      26.737  41.937  48.440  1.00  0.00    -0.348 N 
HETATM   20  C   UNL     1      26.757  40.676  48.989  1.00  0.00     0.252 C 
HETATM   21  O   UNL     1      26.289  40.431  50.098  1.00  0.00    -0.268 OA
HETATM   22  H   UNL     1      27.356  42.161  47.670  1.00  0.00     0.163 HD
BRANCH  20  23
HETATM   23  C   UNL     1      27.435  39.621  48.192  1.00  0.00     0.032 A 
HETATM   24  C   UNL     1      28.417  38.835  48.811  1.00  0.00     0.020 A 
HETATM   25  C   UNL     1      29.059  37.826  48.092  1.00  0.00     0.043 A 
HETATM   26  C   UNL     1      28.707  37.598  46.765  1.00  0.00     0.116 A 
HETATM   27  F   UNL     1      29.318  36.624  46.079  1.00  0.00    -0.206 F 
HETATM   28  C   UNL     1      27.723  38.360  46.143  1.00  0.00     0.043 A 
HETATM   29  C   UNL     1      27.081  39.374  46.857  1.00  0.00     0.020 A 
ENDBRANCH  20  23
ENDBRANCH  18  19
ENDBRANCH   2  18
TORSDOF 5
ENDMDL
MODEL 7
REMARK VINA RESULT:      -8.6      6.864     10.577
REMARK  5 active torsions:
REMARK  status: ('A' for Active; 'I' for Inactive)
REMARK    1  A    between atoms: C_7  and  C_8 
REMARK    2  A    between atoms: N_9  and  N_10 
REMARK       I    between atoms: N_10  and  C_11 
REMARK    3  A    between atoms: C_11  and  C_12 
REMARK    4  A    between atoms: C_12  and  N_13 
REMARK       I    between atoms: N_13  and  C_14 
REMARK    5  A    between atoms: C_14  and  C_15 
ROOT
HETATM    1  N   UNL     1      26.929  41.959  51.476  1.00  0.00    -0.246 N 
HETATM    2  C   UNL     1      26.795  43.232  50.941  1.00  0.00     0.255 C 
HETATM    3  O   UNL     1      26.738  43.511  49.744  1.00  0.00    -0.270 OA
HETATM    4  H   UNL     1      26.878  41.841  52.492  1.00  0.00     0.192 HD
ENDROOT
BRANCH   1   5
HETATM    5  N   UNL     1      27.077  40.878  50.660  1.00  0.00    -0.184 NA
HETATM    6  C   UNL     1      28.299  40.572  50.361  1.00  0.00     0.153 C 
BRANCH   6   7
HETATM    7  C   UNL     1      28.580  39.455  49.476  1.00  0.00     0.018 A 
HETATM    8  C   UNL     1      29.245  38.278  49.798  1.00  0.00     0.018 A 
HETATM    9  C   UNL     1      29.852  37.814  51.075  1.00  0.00     0.069 C 
HETATM   10  N   UNL     1      29.280  37.496  48.670  1.00  0.00    -0.358 N 
HETATM   11  H   UNL     1      29.701  36.579  48.615  1.00  0.00     0.166 HD
HETATM   12  C   UNL     1      28.653  38.126  47.622  1.00  0.00     0.043 A 
HETATM   13  C   UNL     1      28.204  39.359  48.093  1.00  0.00     0.004 A 
HETATM   14  C   UNL     1      28.452  37.694  46.305  1.00  0.00     0.030 A 
HETATM   15  C   UNL     1      27.516  40.205  47.196  1.00  0.00     0.014 A 
HETATM   16  C   UNL     1      27.307  39.789  45.875  1.00  0.00     0.001 A 
HETATM   17  C   UNL     1      27.769  38.550  45.439  1.00  0.00     0.002 A 
ENDBRANCH   6   7
ENDBRANCH   1   5
BRANCH   2  18
HETATM   18  C   UNL     1      26.774  44.319  52.016  1.00  0.00     0.227 C 
BRANCH  18  19
HETATM   19  N   UNL     1      27.862  44.207  52.973  1.00  0.00    -0.348 N 
HETATM   20  C   UNL     1      27.880  44.943  54.135  1.00  0.00     0.252 C 
HETATM   21  O   UNL     1      27.042  45.805  54.385  1.00  0.00    -0.268 OA
HETATM   22  H   UNL     1      28.695  43.714  52.677  1.00  0.00     0.163 HD
BRANCH  20  23
HETATM   23  C   UNL     1      29.013  44.684  55.062  1.00  0.00     0.032 A 
HETATM   24  C   UNL     1      29.733  43.488  54.929  1.00  0.00     0.020 A 
HETATM   25  C   UNL     1      30.812  43.226  55.774  1.00  0.00     0.043 A 
HETATM   26  C   UNL     1      31.173  44.163  56.737  1.00  0.00     0.116 A 
HETATM   27  F   UNL     1      32.214  43.913  57.542  1.00  0.00    -0.206 F 
HETATM   28  C   UNL     1      30.477  45.360  56.870  1.00  0.00     0.043 A 
HETATM   29  C   UNL     1      29.394  45.626  56.030  1.00  0.00     0.020 A 
ENDBRANCH  20  23
ENDBRANCH  18  19
ENDBRANCH   2  18
TORSDOF 5
ENDMDL
MODEL 8
REMARK VINA RESULT:      -8.6      1.594      2.140
REMARK  5 active torsions:
REMARK  status: ('A' for Active; 'I' for Inactive)
REMARK    1  A    between atoms: C_7  and  C_8 
REMARK    2  A    between atoms: N_9  and  N_10 
REMARK       I    between atoms: N_10  and  C_11 
REMARK    3  A    between atoms: C_11  and  C_12 
REMARK    4  A    between atoms: C_12  and  N_13 
REMARK       I    between atoms: N_13  and  C_14 
REMARK    5  A    between atoms: C_14  and  C_15 
ROOT
HETATM    1  N   UNL     1      24.324  47.828  50.466  1.00  0.00    -0.246 N 
HETATM    2  C   UNL     1      23.578  47.355  49.396  1.00  0.00     0.255 C 
HETATM    3  O   UNL     1      23.181  46.201  49.246  1.00  0.00    -0.270 OA
HETATM    4  H   UNL     1      24.524  48.832  50.526  1.00  0.00     0.192 HD
ENDROOT
BRANCH   1   5
HETATM    5  N   UNL     1      24.743  46.980  51.446  1.00  0.00    -0.184 NA
HETATM    6  C   UNL     1      25.913  47.235  51.938  1.00  0.00     0.153 C 
BRANCH   6   7
HETATM    7  C   UNL     1      26.477  46.382  52.969  1.00  0.00     0.018 A 
HETATM    8  C   UNL     1      26.687  46.708  54.304  1.00  0.00     0.018 A 
HETATM    9  C   UNL     1      26.421  47.962  55.059  1.00  0.00     0.069 C 
HETATM   10  N   UNL     1      27.228  45.608  54.922  1.00  0.00    -0.358 N 
HETATM   11  H   UNL     1      27.480  45.560  55.900  1.00  0.00     0.166 HD
HETATM   12  C   UNL     1      27.374  44.573  54.032  1.00  0.00     0.043 A 
HETATM   13  C   UNL     1      26.915  45.025  52.796  1.00  0.00     0.004 A 
HETATM   14  C   UNL     1      27.873  43.280  54.233  1.00  0.00     0.030 A 
HETATM   15  C   UNL     1      26.958  44.134  51.702  1.00  0.00     0.014 A 
HETATM   16  C   UNL     1      27.454  42.837  51.884  1.00  0.00     0.001 A 
HETATM   17  C   UNL     1      27.904  42.419  53.133  1.00  0.00     0.002 A 
ENDBRANCH   6   7
ENDBRANCH   1   5
BRANCH   2  18
HETATM   18  C   UNL     1      23.320  48.432  48.342  1.00  0.00     0.227 C 
BRANCH  18  19
HETATM   19  N   UNL     1      22.032  49.091  48.492  1.00  0.00    -0.348 N 
HETATM   20  C   UNL     1      21.870  50.178  49.320  1.00  0.00     0.252 C 
HETATM   21  O   UNL     1      22.765  50.590  50.053  1.00  0.00    -0.268 OA
HETATM   22  H   UNL     1      21.220  48.618  48.116  1.00  0.00     0.163 HD
BRANCH  20  23
HETATM   23  C   UNL     1      20.521  50.802  49.331  1.00  0.00     0.032 A 
HETATM   24  C   UNL     1      20.271  51.880  48.470  1.00  0.00     0.020 A 
HETATM   25  C   UNL     1      19.009  52.475  48.446  1.00  0.00     0.043 A 
HETATM   26  C   UNL     1      18.002  51.983  49.271  1.00  0.00     0.116 A 
HETATM   27  F   UNL     1      16.789  52.550  49.242  1.00  0.00    -0.206 F 
HETATM   28  C   UNL     1      18.232  50.904  50.119  1.00  0.00     0.043 A 
HETATM   29  C   UNL     1      19.495  50.308  50.150  1.00  0.00     0.020 A 
ENDBRANCH  20  23
ENDBRANCH  18  19
ENDBRANCH   2  18
TORSDOF 5
ENDMDL
MODEL 9
REMARK VINA RESULT:      -8.3      4.730      9.888
REMARK  5 active torsions:
REMARK  status: ('A' for Active; 'I' for Inactive)
REMARK    1  A    between atoms: C_7  and  C_8 
REMARK    2  A    between atoms: N_9  and  N_10 
REMARK       I    between atoms: N_10  and  C_11 
REMARK    3  A    between atoms: C_11  and  C_12 
REMARK    4  A    between atoms: C_12  and  N_13 
REMARK       I    between atoms: N_13  and  C_14 
REMARK    5  A    between atoms: C_14  and  C_15 
ROOT
HETATM    1  N   UNL     1      26.543  43.081  51.493  1.00  0.00    -0.246 N 
HETATM    2  C   UNL     1      27.414  42.090  51.065  1.00  0.00     0.255 C 
HETATM    3  O   UNL     1      27.570  41.718  49.903  1.00  0.00    -0.270 OA
HETATM    4  H   UNL     1      26.562  43.367  52.477  1.00  0.00     0.192 HD
ENDROOT
BRANCH   1   5
HETATM    5  N   UNL     1      25.709  43.698  50.610  1.00  0.00    -0.184 NA
HETATM    6  C   UNL     1      25.224  44.832  51.004  1.00  0.00     0.153 C 
BRANCH   6   7
HETATM    7  C   UNL     1      24.301  45.569  50.160  1.00  0.00     0.018 A 
HETATM    8  C   UNL     1      23.069  45.134  49.686  1.00  0.00     0.018 A 
HETATM    9  C   UNL     1      22.346  43.847  49.876  1.00  0.00     0.069 C 
HETATM   10  N   UNL     1      22.527  46.148  48.936  1.00  0.00    -0.358 N 
HETATM   11  H   UNL     1      21.631  46.108  48.471  1.00  0.00     0.166 HD
HETATM   12  C   UNL     1      23.367  47.234  48.909  1.00  0.00     0.043 A 
HETATM   13  C   UNL     1      24.491  46.904  49.666  1.00  0.00     0.004 A 
HETATM   14  C   UNL     1      23.211  48.474  48.277  1.00  0.00     0.030 A 
HETATM   15  C   UNL     1      25.514  47.869  49.796  1.00  0.00     0.014 A 
HETATM   16  C   UNL     1      25.375  49.114  49.170  1.00  0.00     0.001 A 
HETATM   17  C   UNL     1      24.238  49.410  48.423  1.00  0.00     0.002 A 
ENDBRANCH   6   7
ENDBRANCH   1   5
BRANCH   2  18
HETATM   18  C   UNL     1      28.166  41.432  52.222  1.00  0.00     0.227 C 
BRANCH  18  19
HETATM   19  N   UNL     1      28.396  42.328  53.345  1.00  0.00    -0.348 N 
HETATM   20  C   UNL     1      29.656  42.785  53.656  1.00  0.00     0.252 C 
HETATM   21  O   UNL     1      30.665  42.389  53.079  1.00  0.00    -0.268 OA
HETATM   22  H   UNL     1      27.637  42.459  54.001  1.00  0.00     0.163 HD
BRANCH  20  23
HETATM   23  C   UNL     1      29.747  43.750  54.783  1.00  0.00     0.032 A 
HETATM   24  C   UNL     1      30.790  43.610  55.708  1.00  0.00     0.020 A 
HETATM   25  C   UNL     1      30.911  44.511  56.767  1.00  0.00     0.043 A 
HETATM   26  C   UNL     1      29.997  45.554  56.887  1.00  0.00     0.116 A 
HETATM   27  F   UNL     1      30.118  46.423  57.899  1.00  0.00    -0.206 F 
HETATM   28  C   UNL     1      28.966  45.714  55.968  1.00  0.00     0.043 A 
HETATM   29  C   UNL     1      28.838  44.812  54.909  1.00  0.00     0.020 A 
ENDBRANCH  20  23
ENDBRANCH  18  19
ENDBRANCH   2  18
TORSDOF 5
ENDMDL
MODEL 10
REMARK VINA RESULT:      -8.3      6.704      9.762
REMARK  5 active torsions:
REMARK  status: ('A' for Active; 'I' for Inactive)
REMARK    1  A    between atoms: C_7  and  C_8 
REMARK    2  A    between atoms: N_9  and  N_10 
REMARK       I    between atoms: N_10  and  C_11 
REMARK    3  A    between atoms: C_11  and  C_12 
REMARK    4  A    between atoms: C_12  and  N_13 
REMARK       I    between atoms: N_13  and  C_14 
REMARK    5  A    between atoms: C_14  and  C_15 
ROOT
HETATM    1  N   UNL     1      26.495  42.615  51.315  1.00  0.00    -0.246 N 
HETATM    2  C   UNL     1      26.694  42.886  49.969  1.00  0.00     0.255 C 
HETATM    3  O   UNL     1      27.108  43.944  49.499  1.00  0.00    -0.270 OA
HETATM    4  H   UNL     1      26.229  41.667  51.597  1.00  0.00     0.192 HD
ENDROOT
BRANCH   1   5
HETATM    5  N   UNL     1      26.697  43.583  52.254  1.00  0.00    -0.184 NA
HETATM    6  C   UNL     1      27.807  43.493  52.913  1.00  0.00     0.153 C 
BRANCH   6   7
HETATM    7  C   UNL     1      28.119  44.452  53.958  1.00  0.00     0.018 A 
HETATM    8  C   UNL     1      27.449  45.637  54.235  1.00  0.00     0.018 A 
HETATM    9  C   UNL     1      26.270  46.271  53.585  1.00  0.00     0.069 C 
HETATM   10  N   UNL     1      28.069  46.228  55.308  1.00  0.00    -0.358 N 
HETATM   11  H   UNL     1      27.789  47.103  55.729  1.00  0.00     0.166 HD
HETATM   12  C   UNL     1      29.122  45.461  55.743  1.00  0.00     0.043 A 
HETATM   13  C   UNL     1      29.183  44.340  54.916  1.00  0.00     0.004 A 
HETATM   14  C   UNL     1      30.013  45.677  56.801  1.00  0.00     0.030 A 
HETATM   15  C   UNL     1      30.192  43.384  55.163  1.00  0.00     0.014 A 
HETATM   16  C   UNL     1      31.093  43.584  56.217  1.00  0.00     0.001 A 
HETATM   17  C   UNL     1      31.002  44.715  57.023  1.00  0.00     0.002 A 
ENDBRANCH   6   7
ENDBRANCH   1   5
BRANCH   2  18
HETATM   18  C   UNL     1      26.290  41.717  49.072  1.00  0.00     0.227 C 
BRANCH  18  19
HETATM   19  N   UNL     1      26.769  40.429  49.549  1.00  0.00    -0.348 N 
HETATM   20  C   UNL     1      28.022  39.961  49.228  1.00  0.00     0.252 C 
HETATM   21  O   UNL     1      28.765  40.546  48.445  1.00  0.00    -0.268 OA
HETATM   22  H   UNL     1      26.090  39.805  49.969  1.00  0.00     0.163 HD
BRANCH  20  23
HETATM   23  C   UNL     1      28.417  38.664  49.837  1.00  0.00     0.032 A 
HETATM   24  C   UNL     1      29.563  38.619  50.642  1.00  0.00     0.020 A 
HETATM   25  C   UNL     1      29.949  37.418  51.241  1.00  0.00     0.043 A 
HETATM   26  C   UNL     1      29.181  36.275  51.042  1.00  0.00     0.116 A 
HETATM   27  F   UNL     1      29.548  35.125  51.623  1.00  0.00    -0.206 F 
HETATM   28  C   UNL     1      28.033  36.309  50.258  1.00  0.00     0.043 A 
HETATM   29  C   UNL     1      27.645  37.507  49.653  1.00  0.00     0.020 A 
ENDBRANCH  20  23
ENDBRANCH  18  19
ENDBRANCH   2  18
TORSDOF 5
ENDMDL
