MODEL 1
REMARK VINA RESULT:     -10.1      0.000      0.000
REMARK  5 active torsions:
REMARK  status: ('A' for Active; 'I' for Inactive)
REMARK    1  A    between atoms: C_9  and  N_10 
REMARK       I    between atoms: N_10  and  C_11 
REMARK    2  A    between atoms: C_11  and  C_12 
REMARK    3  A    between atoms: C_14  and  O_15 
REMARK    4  A    between atoms: O_15  and  C_16 
REMARK    5  A    between atoms: C_16  and  C_17 
ROOT
HETATM    1  C   UNL     1      26.722  45.935  53.015  1.00  0.00    -0.013 A 
HETATM    2  C   UNL     1      26.986  46.251  54.363  1.00  0.00     0.053 A 
HETATM    3  C   UNL     1      26.446  47.434  54.976  1.00  0.00     0.100 C 
HETATM    4  N   UNL     1      25.995  48.380  55.476  1.00  0.00    -0.191 NA
HETATM    5  C   UNL     1      27.787  45.400  55.139  1.00  0.00     0.023 A 
HETATM    6  C   UNL     1      28.326  44.239  54.585  1.00  0.00     0.002 A 
HETATM    7  C   UNL     1      28.072  43.922  53.254  1.00  0.00     0.001 A 
HETATM    8  C   UNL     1      27.277  44.763  52.472  1.00  0.00     0.011 A 
ENDROOT
BRANCH   1   9
HETATM    9  C   UNL     1      25.862  46.825  52.145  1.00  0.00     0.216 C 
BRANCH   9  10
HETATM   10  O   UNL     1      26.246  46.623  50.787  1.00  0.00    -0.347 OA
BRANCH  10  11
HETATM   11  C   UNL     1      26.222  47.714  49.964  1.00  0.00     0.070 A 
HETATM   12  C   UNL     1      24.944  48.139  49.594  1.00  0.00     0.053 A 
HETATM   13  C   UNL     1      24.772  49.251  48.760  1.00  0.00     0.035 A 
HETATM   14  C   UNL     1      25.895  49.960  48.318  1.00  0.00     0.017 A 
HETATM   15  C   UNL     1      27.174  49.538  48.687  1.00  0.00     0.004 A 
HETATM   16  C   UNL     1      27.337  48.417  49.506  1.00  0.00     0.037 A 
BRANCH  13  17
HETATM   17  C   UNL     1      23.384  49.681  48.425  1.00  0.00     0.256 C 
HETATM   18  N   UNL     1      22.461  49.574  49.453  1.00  0.00    -0.323 N 
HETATM   19  H   UNL     1      22.822  49.344  50.370  1.00  0.00     0.169 HD
HETATM   20  O   UNL     1      23.154  50.093  47.293  1.00  0.00    -0.267 OA
BRANCH  18  21
HETATM   21  C   UNL     1      21.067  49.773  49.366  1.00  0.00     0.035 A 
HETATM   22  C   UNL     1      20.439  50.979  49.692  1.00  0.00     0.039 A 
HETATM   23  C   UNL     1      19.067  51.089  49.524  1.00  0.00    -0.022 A 
HETATM   24  C   UNL     1      18.215  52.285  49.771  1.00  0.00     0.274 C 
HETATM   25  C   UNL     1      18.307  50.029  49.029  1.00  0.00    -0.025 A 
HETATM   26  N   UNL     1      16.786  51.780  49.597  1.00  0.00    -0.067 N 
HETATM   27  C   UNL     1      15.866  52.759  48.961  1.00  0.00     0.270 C 
HETATM   28  H   UNL     1      16.448  51.575  50.545  1.00  0.00     0.280 HD
HETATM   29  C   UNL     1      16.881  50.436  48.884  1.00  0.00     0.273 C 
HETATM   30  C   UNL     1      18.904  48.823  48.708  1.00  0.00     0.012 A 
HETATM   31  C   UNL     1      20.289  48.700  48.885  1.00  0.00     0.030 A 
ENDBRANCH  18  21
ENDBRANCH  13  17
ENDBRANCH  10  11
ENDBRANCH   9  10
ENDBRANCH   1   9
TORSDOF 5
ENDMDL
MODEL 2
REMARK VINA RESULT:      -9.6      2.210      9.810
REMARK  5 active torsions:
REMARK  status: ('A' for Active; 'I' for Inactive)
REMARK    1  A    between atoms: C_9  and  N_10 
REMARK       I    between atoms: N_10  and  C_11 
REMARK    2  A    between atoms: C_11  and  C_12 
REMARK    3  A    between atoms: C_14  and  O_15 
REMARK    4  A    between atoms: O_15  and  C_16 
REMARK    5  A    between atoms: C_16  and  C_17 
ROOT
HETATM    1  C   UNL     1      19.955  51.038  49.581  1.00  0.00    -0.013 A 
HETATM    2  C   UNL     1      18.720  50.543  50.046  1.00  0.00     0.053 A 
HETATM    3  C   UNL     1      18.652  49.510  51.044  1.00  0.00     0.100 C 
HETATM    4  N   UNL     1      18.599  48.688  51.862  1.00  0.00    -0.191 NA
HETATM    5  C   UNL     1      17.520  51.062  49.537  1.00  0.00     0.023 A 
HETATM    6  C   UNL     1      17.540  52.069  48.572  1.00  0.00     0.002 A 
HETATM    7  C   UNL     1      18.755  52.561  48.107  1.00  0.00     0.001 A 
HETATM    8  C   UNL     1      19.955  52.050  48.605  1.00  0.00     0.011 A 
ENDROOT
BRANCH   1   9
HETATM    9  C   UNL     1      21.270  50.507  50.104  1.00  0.00     0.216 C 
BRANCH   9  10
HETATM   10  O   UNL     1      22.091  50.176  48.988  1.00  0.00    -0.347 OA
BRANCH  10  11
HETATM   11  C   UNL     1      22.273  48.848  48.719  1.00  0.00     0.070 A 
HETATM   12  C   UNL     1      23.324  48.248  49.418  1.00  0.00     0.053 A 
HETATM   13  C   UNL     1      23.616  46.890  49.245  1.00  0.00     0.035 A 
HETATM   14  C   UNL     1      22.826  46.120  48.383  1.00  0.00     0.017 A 
HETATM   15  C   UNL     1      21.775  46.716  47.685  1.00  0.00     0.004 A 
HETATM   16  C   UNL     1      21.500  48.076  47.850  1.00  0.00     0.037 A 
BRANCH  13  17
HETATM   17  C   UNL     1      24.726  46.294  50.042  1.00  0.00     0.256 C 
HETATM   18  N   UNL     1      24.653  46.496  51.412  1.00  0.00    -0.323 N 
HETATM   19  H   UNL     1      23.800  46.906  51.769  1.00  0.00     0.169 HD
HETATM   20  O   UNL     1      25.608  45.680  49.453  1.00  0.00    -0.267 OA
BRANCH  18  21
HETATM   21  C   UNL     1      25.635  46.168  52.371  1.00  0.00     0.035 A 
HETATM   22  C   UNL     1      26.330  44.955  52.378  1.00  0.00     0.039 A 
HETATM   23  C   UNL     1      27.313  44.749  53.335  1.00  0.00    -0.022 A 
HETATM   24  C   UNL     1      28.190  43.557  53.494  1.00  0.00     0.274 C 
HETATM   25  C   UNL     1      27.625  45.727  54.279  1.00  0.00    -0.025 A 
HETATM   26  N   UNL     1      28.936  43.802  54.801  1.00  0.00    -0.067 N 
HETATM   27  C   UNL     1      30.347  43.332  54.797  1.00  0.00     0.270 C 
HETATM   28  H   UNL     1      28.417  43.282  55.518  1.00  0.00     0.280 HD
HETATM   29  C   UNL     1      28.757  45.277  55.138  1.00  0.00     0.273 C 
HETATM   30  C   UNL     1      26.944  46.932  54.298  1.00  0.00     0.012 A 
HETATM   31  C   UNL     1      25.943  47.144  53.341  1.00  0.00     0.030 A 
ENDBRANCH  18  21
ENDBRANCH  13  17
ENDBRANCH  10  11
ENDBRANCH   9  10
ENDBRANCH   1   9
TORSDOF 5
ENDMDL
MODEL 3
REMARK VINA RESULT:      -9.6      2.883      5.810
REMARK  5 active torsions:
REMARK  status: ('A' for Active; 'I' for Inactive)
REMARK    1  A    between atoms: C_9  and  N_10 
REMARK       I    between atoms: N_10  and  C_11 
REMARK    2  A    between atoms: C_11  and  C_12 
REMARK    3  A    between atoms: C_14  and  O_15 
REMARK    4  A    between atoms: O_15  and  C_16 
REMARK    5  A    between atoms: C_16  and  C_17 
ROOT
HETATM    1  C   UNL     1      29.998  44.086  55.277  1.00  0.00    -0.013 A 
HETATM    2  C   UNL     1      29.723  45.269  55.991  1.00  0.00     0.053 A 
HETATM    3  C   UNL     1      28.845  46.278  55.464  1.00  0.00     0.100 C 
HETATM    4  N   UNL     1      28.122  47.084  55.044  1.00  0.00    -0.191 NA
HETATM    5  C   UNL     1      30.304  45.480  57.251  1.00  0.00     0.023 A 
HETATM    6  C   UNL     1      31.157  44.524  57.802  1.00  0.00     0.002 A 
HETATM    7  C   UNL     1      31.437  43.355  57.101  1.00  0.00     0.001 A 
HETATM    8  C   UNL     1      30.864  43.136  55.847  1.00  0.00     0.011 A 
ENDROOT
BRANCH   1   9
HETATM    9  C   UNL     1      29.390  43.820  53.918  1.00  0.00     0.216 C 
BRANCH   9  10
HETATM   10  O   UNL     1      28.235  43.006  54.099  1.00  0.00    -0.347 OA
BRANCH  10  11
HETATM   11  C   UNL     1      27.594  42.572  52.972  1.00  0.00     0.070 A 
HETATM   12  C   UNL     1      26.819  43.542  52.332  1.00  0.00     0.053 A 
HETATM   13  C   UNL     1      26.115  43.237  51.161  1.00  0.00     0.035 A 
HETATM   14  C   UNL     1      26.215  41.953  50.612  1.00  0.00     0.017 A 
HETATM   15  C   UNL     1      26.989  40.982  51.249  1.00  0.00     0.004 A 
HETATM   16  C   UNL     1      27.676  41.290  52.427  1.00  0.00     0.037 A 
BRANCH  13  17
HETATM   17  C   UNL     1      25.330  44.319  50.500  1.00  0.00     0.256 C 
HETATM   18  N   UNL     1      26.017  45.502  50.275  1.00  0.00    -0.323 N 
HETATM   19  H   UNL     1      27.013  45.494  50.450  1.00  0.00     0.169 HD
HETATM   20  O   UNL     1      24.161  44.100  50.203  1.00  0.00    -0.267 OA
BRANCH  18  21
HETATM   21  C   UNL     1      25.479  46.719  49.803  1.00  0.00     0.035 A 
HETATM   22  C   UNL     1      24.109  46.942  49.636  1.00  0.00     0.039 A 
HETATM   23  C   UNL     1      23.678  48.191  49.214  1.00  0.00    -0.022 A 
HETATM   24  C   UNL     1      22.276  48.647  49.012  1.00  0.00     0.274 C 
HETATM   25  C   UNL     1      24.580  49.225  48.964  1.00  0.00    -0.025 A 
HETATM   26  N   UNL     1      22.409  50.027  48.375  1.00  0.00    -0.067 N 
HETATM   27  C   UNL     1      21.383  51.007  48.819  1.00  0.00     0.270 C 
HETATM   28  H   UNL     1      22.308  49.876  47.365  1.00  0.00     0.280 HD
HETATM   29  C   UNL     1      23.851  50.471  48.592  1.00  0.00     0.273 C 
HETATM   30  C   UNL     1      25.942  49.026  49.113  1.00  0.00     0.012 A 
HETATM   31  C   UNL     1      26.386  47.763  49.530  1.00  0.00     0.030 A 
ENDBRANCH  18  21
ENDBRANCH  13  17
ENDBRANCH  10  11
ENDBRANCH   9  10
ENDBRANCH   1   9
TORSDOF 5
ENDMDL
MODEL 4
REMARK VINA RESULT:      -9.4      2.468      3.586
REMARK  5 active torsions:
REMARK  status: ('A' for Active; 'I' for Inactive)
REMARK    1  A    between atoms: C_9  and  N_10 
REMARK       I    between atoms: N_10  and  C_11 
REMARK    2  A    between atoms: C_11  and  C_12 
REMARK    3  A    between atoms: C_14  and  O_15 
REMARK    4  A    between atoms: O_15  and  C_16 
REMARK    5  A    between atoms: C_16  and  C_17 
ROOT
HETATM    1  C   UNL     1      28.073  44.270  54.380  1.00  0.00    -0.013 A 
HETATM    2  C   UNL     1      28.984  43.195  54.364  1.00  0.00     0.053 A 
HETATM    3  C   UNL     1      28.709  41.989  53.632  1.00  0.00     0.100 C 
HETATM    4  N   UNL     1      28.494  41.022  53.026  1.00  0.00    -0.191 NA
HETATM    5  C   UNL     1      30.194  43.290  55.068  1.00  0.00     0.023 A 
HETATM    6  C   UNL     1      30.503  44.445  55.787  1.00  0.00     0.002 A 
HETATM    7  C   UNL     1      29.607  45.509  55.810  1.00  0.00     0.001 A 
HETATM    8  C   UNL     1      28.400  45.425  55.113  1.00  0.00     0.011 A 
ENDROOT
BRANCH   1   9
HETATM    9  C   UNL     1      26.760  44.209  53.633  1.00  0.00     0.216 C 
BRANCH   9  10
HETATM   10  O   UNL     1      26.593  45.435  52.926  1.00  0.00    -0.347 OA
BRANCH  10  11
HETATM   11  C   UNL     1      25.991  45.371  51.700  1.00  0.00     0.070 A 
HETATM   12  C   UNL     1      25.329  46.539  51.312  1.00  0.00     0.053 A 
HETATM   13  C   UNL     1      24.676  46.615  50.076  1.00  0.00     0.035 A 
HETATM   14  C   UNL     1      24.714  45.517  49.209  1.00  0.00     0.017 A 
HETATM   15  C   UNL     1      25.374  44.349  49.593  1.00  0.00     0.004 A 
HETATM   16  C   UNL     1      26.010  44.275  50.836  1.00  0.00     0.037 A 
BRANCH  13  17
HETATM   17  C   UNL     1      24.016  47.897  49.699  1.00  0.00     0.256 C 
HETATM   18  N   UNL     1      22.635  47.846  49.580  1.00  0.00    -0.323 N 
HETATM   19  H   UNL     1      22.181  46.994  49.884  1.00  0.00     0.169 HD
HETATM   20  O   UNL     1      24.715  48.889  49.524  1.00  0.00    -0.267 OA
BRANCH  18  21
HETATM   21  C   UNL     1      21.786  48.866  49.101  1.00  0.00     0.035 A 
HETATM   22  C   UNL     1      20.883  48.686  48.049  1.00  0.00     0.039 A 
HETATM   23  C   UNL     1      20.056  49.737  47.685  1.00  0.00    -0.022 A 
HETATM   24  C   UNL     1      19.007  49.744  46.630  1.00  0.00     0.274 C 
HETATM   25  C   UNL     1      20.102  50.962  48.351  1.00  0.00    -0.025 A 
HETATM   26  N   UNL     1      18.554  51.199  46.549  1.00  0.00    -0.067 N 
HETATM   27  C   UNL     1      17.099  51.373  46.294  1.00  0.00     0.270 C 
HETATM   28  H   UNL     1      19.078  51.609  45.767  1.00  0.00     0.280 HD
HETATM   29  C   UNL     1      19.067  51.887  47.808  1.00  0.00     0.273 C 
HETATM   30  C   UNL     1      20.994  51.168  49.389  1.00  0.00     0.012 A 
HETATM   31  C   UNL     1      21.840  50.113  49.756  1.00  0.00     0.030 A 
ENDBRANCH  18  21
ENDBRANCH  13  17
ENDBRANCH  10  11
ENDBRANCH   9  10
ENDBRANCH   1   9
TORSDOF 5
ENDMDL
MODEL 5
REMARK VINA RESULT:      -9.0      2.401     10.396
REMARK  5 active torsions:
REMARK  status: ('A' for Active; 'I' for Inactive)
REMARK    1  A    between atoms: C_9  and  N_10 
REMARK       I    between atoms: N_10  and  C_11 
REMARK    2  A    between atoms: C_11  and  C_12 
REMARK    3  A    between atoms: C_14  and  O_15 
REMARK    4  A    between atoms: O_15  and  C_16 
REMARK    5  A    between atoms: C_16  and  C_17 
ROOT
HETATM    1  C   UNL     1      19.690  50.231  48.461  1.00  0.00    -0.013 A 
HETATM    2  C   UNL     1      19.031  49.936  47.251  1.00  0.00     0.053 A 
HETATM    3  C   UNL     1      19.062  48.616  46.682  1.00  0.00     0.100 C 
HETATM    4  N   UNL     1      19.073  47.546  46.232  1.00  0.00    -0.191 NA
HETATM    5  C   UNL     1      18.318  50.939  46.577  1.00  0.00     0.023 A 
HETATM    6  C   UNL     1      18.258  52.232  47.098  1.00  0.00     0.002 A 
HETATM    7  C   UNL     1      18.910  52.532  48.291  1.00  0.00     0.001 A 
HETATM    8  C   UNL     1      19.622  51.541  48.968  1.00  0.00     0.011 A 
ENDROOT
BRANCH   1   9
HETATM    9  C   UNL     1      20.468  49.178  49.219  1.00  0.00     0.216 C 
BRANCH   9  10
HETATM   10  O   UNL     1      21.755  49.058  48.619  1.00  0.00    -0.347 OA
BRANCH  10  11
HETATM   11  C   UNL     1      22.421  47.879  48.803  1.00  0.00     0.070 A 
HETATM   12  C   UNL     1      23.528  47.960  49.652  1.00  0.00     0.053 A 
HETATM   13  C   UNL     1      24.298  46.826  49.936  1.00  0.00     0.035 A 
HETATM   14  C   UNL     1      23.933  45.591  49.385  1.00  0.00     0.017 A 
HETATM   15  C   UNL     1      22.828  45.507  48.537  1.00  0.00     0.004 A 
HETATM   16  C   UNL     1      22.075  46.648  48.245  1.00  0.00     0.037 A 
BRANCH  13  17
HETATM   17  C   UNL     1      25.447  46.962  50.875  1.00  0.00     0.256 C 
HETATM   18  N   UNL     1      25.536  45.988  51.857  1.00  0.00    -0.323 N 
HETATM   19  H   UNL     1      24.904  45.201  51.779  1.00  0.00     0.169 HD
HETATM   20  O   UNL     1      26.222  47.900  50.723  1.00  0.00    -0.267 OA
BRANCH  18  21
HETATM   21  C   UNL     1      26.431  45.961  52.948  1.00  0.00     0.035 A 
HETATM   22  C   UNL     1      27.319  44.910  53.190  1.00  0.00     0.039 A 
HETATM   23  C   UNL     1      28.194  45.002  54.261  1.00  0.00    -0.022 A 
HETATM   24  C   UNL     1      29.238  44.021  54.669  1.00  0.00     0.274 C 
HETATM   25  C   UNL     1      28.210  46.122  55.093  1.00  0.00    -0.025 A 
HETATM   26  N   UNL     1      29.760  44.549  56.002  1.00  0.00    -0.067 N 
HETATM   27  C   UNL     1      31.220  44.355  56.206  1.00  0.00     0.270 C 
HETATM   28  H   UNL     1      29.252  44.026  56.724  1.00  0.00     0.280 HD
HETATM   29  C   UNL     1      29.286  45.993  56.116  1.00  0.00     0.273 C 
HETATM   30  C   UNL     1      27.334  47.172  54.879  1.00  0.00     0.012 A 
HETATM   31  C   UNL     1      26.440  47.081  53.804  1.00  0.00     0.030 A 
ENDBRANCH  18  21
ENDBRANCH  13  17
ENDBRANCH  10  11
ENDBRANCH   9  10
ENDBRANCH   1   9
TORSDOF 5
ENDMDL
MODEL 6
REMARK VINA RESULT:      -8.7     11.515     15.646
REMARK  5 active torsions:
REMARK  status: ('A' for Active; 'I' for Inactive)
REMARK    1  A    between atoms: C_9  and  N_10 
REMARK       I    between atoms: N_10  and  C_11 
REMARK    2  A    between atoms: C_11  and  C_12 
REMARK    3  A    between atoms: C_14  and  O_15 
REMARK    4  A    between atoms: O_15  and  C_16 
REMARK    5  A    between atoms: C_16  and  C_17 
ROOT
HETATM    1  C   UNL     1      27.982  51.506  40.593  1.00  0.00    -0.013 A 
HETATM    2  C   UNL     1      28.028  51.596  39.187  1.00  0.00     0.053 A 
HETATM    3  C   UNL     1      27.331  50.657  38.351  1.00  0.00     0.100 C 
HETATM    4  N   UNL     1      26.754  49.908  37.677  1.00  0.00    -0.191 NA
HETATM    5  C   UNL     1      28.762  52.623  38.574  1.00  0.00     0.023 A 
HETATM    6  C   UNL     1      29.448  53.558  39.348  1.00  0.00     0.002 A 
HETATM    7  C   UNL     1      29.409  53.474  40.736  1.00  0.00     0.001 A 
HETATM    8  C   UNL     1      28.683  52.455  41.356  1.00  0.00     0.011 A 
ENDROOT
BRANCH   1   9
HETATM    9  C   UNL     1      27.202  50.415  41.293  1.00  0.00     0.216 C 
BRANCH   9  10
HETATM   10  O   UNL     1      28.113  49.649  42.075  1.00  0.00    -0.347 OA
BRANCH  10  11
HETATM   11  C   UNL     1      28.990  48.845  41.401  1.00  0.00     0.070 A 
HETATM   12  C   UNL     1      30.338  49.112  41.653  1.00  0.00     0.053 A 
HETATM   13  C   UNL     1      31.344  48.359  41.036  1.00  0.00     0.035 A 
HETATM   14  C   UNL     1      30.991  47.308  40.181  1.00  0.00     0.017 A 
HETATM   15  C   UNL     1      29.646  47.039  39.928  1.00  0.00     0.004 A 
HETATM   16  C   UNL     1      28.647  47.806  40.535  1.00  0.00     0.037 A 
BRANCH  13  17
HETATM   17  C   UNL     1      32.766  48.664  41.367  1.00  0.00     0.256 C 
HETATM   18  N   UNL     1      33.030  49.981  41.708  1.00  0.00    -0.323 N 
HETATM   19  H   UNL     1      32.232  50.591  41.833  1.00  0.00     0.169 HD
HETATM   20  O   UNL     1      33.588  47.755  41.321  1.00  0.00    -0.267 OA
BRANCH  18  21
HETATM   21  C   UNL     1      34.297  50.564  41.922  1.00  0.00     0.035 A 
HETATM   22  C   UNL     1      34.564  51.470  42.953  1.00  0.00     0.039 A 
HETATM   23  C   UNL     1      35.856  51.948  43.110  1.00  0.00    -0.022 A 
HETATM   24  C   UNL     1      36.359  52.879  44.157  1.00  0.00     0.274 C 
HETATM   25  C   UNL     1      36.891  51.538  42.269  1.00  0.00    -0.025 A 
HETATM   26  N   UNL     1      37.790  53.195  43.734  1.00  0.00    -0.067 N 
HETATM   27  C   UNL     1      38.744  53.337  44.865  1.00  0.00     0.270 C 
HETATM   28  H   UNL     1      37.739  54.087  43.229  1.00  0.00     0.280 HD
HETATM   29  C   UNL     1      38.181  52.147  42.698  1.00  0.00     0.273 C 
HETATM   30  C   UNL     1      36.650  50.650  41.235  1.00  0.00     0.012 A 
HETATM   31  C   UNL     1      35.344  50.170  41.064  1.00  0.00     0.030 A 
ENDBRANCH  18  21
ENDBRANCH  13  17
ENDBRANCH  10  11
ENDBRANCH   9  10
ENDBRANCH   1   9
TORSDOF 5
ENDMDL
MODEL 7
REMARK VINA RESULT:      -8.6      3.091      4.989
REMARK  5 active torsions:
REMARK  status: ('A' for Active; 'I' for Inactive)
REMARK    1  A    between atoms: C_9  and  N_10 
REMARK       I    between atoms: N_10  and  C_11 
REMARK    2  A    between atoms: C_11  and  C_12 
REMARK    3  A    between atoms: C_14  and  O_15 
REMARK    4  A    between atoms: O_15  and  C_16 
REMARK    5  A    between atoms: C_16  and  C_17 
ROOT
HETATM    1  C   UNL     1      28.661  43.928  53.568  1.00  0.00    -0.013 A 
HETATM    2  C   UNL     1      28.510  44.944  54.532  1.00  0.00     0.053 A 
HETATM    3  C   UNL     1      27.427  45.888  54.465  1.00  0.00     0.100 C 
HETATM    4  N   UNL     1      26.542  46.638  54.420  1.00  0.00    -0.191 NA
HETATM    5  C   UNL     1      29.423  45.048  55.592  1.00  0.00     0.023 A 
HETATM    6  C   UNL     1      30.485  44.149  55.698  1.00  0.00     0.002 A 
HETATM    7  C   UNL     1      30.643  43.146  54.748  1.00  0.00     0.001 A 
HETATM    8  C   UNL     1      29.740  43.034  53.689  1.00  0.00     0.011 A 
ENDROOT
BRANCH   1   9
HETATM    9  C   UNL     1      27.698  43.781  52.412  1.00  0.00     0.216 C 
BRANCH   9  10
HETATM   10  O   UNL     1      27.419  42.394  52.238  1.00  0.00    -0.347 OA
BRANCH  10  11
HETATM   11  C   UNL     1      26.528  42.054  51.259  1.00  0.00     0.070 A 
HETATM   12  C   UNL     1      25.513  42.990  51.043  1.00  0.00     0.053 A 
HETATM   13  C   UNL     1      24.537  42.773  50.063  1.00  0.00     0.035 A 
HETATM   14  C   UNL     1      24.598  41.619  49.273  1.00  0.00     0.017 A 
HETATM   15  C   UNL     1      25.612  40.684  49.486  1.00  0.00     0.004 A 
HETATM   16  C   UNL     1      26.573  40.899  50.477  1.00  0.00     0.037 A 
BRANCH  13  17
HETATM   17  C   UNL     1      23.496  43.820  49.852  1.00  0.00     0.256 C 
HETATM   18  N   UNL     1      23.856  44.857  49.004  1.00  0.00    -0.323 N 
HETATM   19  H   UNL     1      24.727  44.754  48.500  1.00  0.00     0.169 HD
HETATM   20  O   UNL     1      22.419  43.701  50.423  1.00  0.00    -0.267 OA
BRANCH  18  21
HETATM   21  C   UNL     1      23.124  46.036  48.748  1.00  0.00     0.035 A 
HETATM   22  C   UNL     1      21.970  46.071  47.961  1.00  0.00     0.039 A 
HETATM   23  C   UNL     1      21.294  47.272  47.811  1.00  0.00    -0.022 A 
HETATM   24  C   UNL     1      20.035  47.518  47.056  1.00  0.00     0.274 C 
HETATM   25  C   UNL     1      21.738  48.438  48.435  1.00  0.00    -0.025 A 
HETATM   26  N   UNL     1      19.862  49.033  47.082  1.00  0.00    -0.067 N 
HETATM   27  C   UNL     1      18.451  49.486  47.203  1.00  0.00     0.270 C 
HETATM   28  H   UNL     1      20.243  49.371  46.190  1.00  0.00     0.280 HD
HETATM   29  C   UNL     1      20.796  49.562  48.165  1.00  0.00     0.273 C 
HETATM   30  C   UNL     1      22.883  48.432  49.211  1.00  0.00     0.012 A 
HETATM   31  C   UNL     1      23.577  47.223  49.359  1.00  0.00     0.030 A 
ENDBRANCH  18  21
ENDBRANCH  13  17
ENDBRANCH  10  11
ENDBRANCH   9  10
ENDBRANCH   1   9
TORSDOF 5
ENDMDL
MODEL 8
REMARK VINA RESULT:      -8.4     12.432     17.156
REMARK  5 active torsions:
REMARK  status: ('A' for Active; 'I' for Inactive)
REMARK    1  A    between atoms: C_9  and  N_10 
REMARK       I    between atoms: N_10  and  C_11 
REMARK    2  A    between atoms: C_11  and  C_12 
REMARK    3  A    between atoms: C_14  and  O_15 
REMARK    4  A    between atoms: O_15  and  C_16 
REMARK    5  A    between atoms: C_16  and  C_17 
ROOT
HETATM    1  C   UNL     1      30.783  51.106  39.522  1.00  0.00    -0.013 A 
HETATM    2  C   UNL     1      30.111  52.278  39.924  1.00  0.00     0.053 A 
HETATM    3  C   UNL     1      30.818  53.389  40.500  1.00  0.00     0.100 C 
HETATM    4  N   UNL     1      31.393  54.293  40.949  1.00  0.00    -0.191 NA
HETATM    5  C   UNL     1      28.721  52.381  39.761  1.00  0.00     0.023 A 
HETATM    6  C   UNL     1      27.997  51.328  39.201  1.00  0.00     0.002 A 
HETATM    7  C   UNL     1      28.653  50.167  38.805  1.00  0.00     0.001 A 
HETATM    8  C   UNL     1      30.035  50.054  38.964  1.00  0.00     0.011 A 
ENDROOT
BRANCH   1   9
HETATM    9  C   UNL     1      32.279  50.956  39.680  1.00  0.00     0.216 C 
BRANCH   9  10
HETATM   10  O   UNL     1      32.525  50.102  40.794  1.00  0.00    -0.347 OA
BRANCH  10  11
HETATM   11  C   UNL     1      32.777  50.702  41.996  1.00  0.00     0.070 A 
HETATM   12  C   UNL     1      34.091  51.148  42.162  1.00  0.00     0.053 A 
HETATM   13  C   UNL     1      34.485  51.789  43.343  1.00  0.00     0.035 A 
HETATM   14  C   UNL     1      33.542  52.010  44.354  1.00  0.00     0.017 A 
HETATM   15  C   UNL     1      32.229  51.567  44.190  1.00  0.00     0.004 A 
HETATM   16  C   UNL     1      31.848  50.913  43.015  1.00  0.00     0.037 A 
BRANCH  13  17
HETATM   17  C   UNL     1      35.891  52.274  43.454  1.00  0.00     0.256 C 
HETATM   18  N   UNL     1      36.648  51.689  44.457  1.00  0.00    -0.323 N 
HETATM   19  H   UNL     1      36.238  50.898  44.938  1.00  0.00     0.169 HD
HETATM   20  O   UNL     1      36.278  53.135  42.671  1.00  0.00    -0.267 OA
BRANCH  18  21
HETATM   21  C   UNL     1      37.945  52.062  44.868  1.00  0.00     0.035 A 
HETATM   22  C   UNL     1      38.195  52.987  45.885  1.00  0.00     0.039 A 
HETATM   23  C   UNL     1      39.507  53.248  46.249  1.00  0.00    -0.022 A 
HETATM   24  C   UNL     1      39.987  54.161  47.323  1.00  0.00     0.274 C 
HETATM   25  C   UNL     1      40.576  52.602  45.629  1.00  0.00    -0.025 A 
HETATM   26  N   UNL     1      41.502  54.192  47.151  1.00  0.00    -0.067 N 
HETATM   27  C   UNL     1      42.261  54.259  48.427  1.00  0.00     0.270 C 
HETATM   28  H   UNL     1      41.701  55.037  46.603  1.00  0.00     0.280 HD
HETATM   29  C   UNL     1      41.865  53.014  46.254  1.00  0.00     0.273 C 
HETATM   30  C   UNL     1      40.355  51.688  44.613  1.00  0.00     0.012 A 
HETATM   31  C   UNL     1      39.032  51.427  44.232  1.00  0.00     0.030 A 
ENDBRANCH  18  21
ENDBRANCH  13  17
ENDBRANCH  10  11
ENDBRANCH   9  10
ENDBRANCH   1   9
TORSDOF 5
ENDMDL
MODEL 9
REMARK VINA RESULT:      -8.2     20.416     24.553
REMARK  5 active torsions:
REMARK  status: ('A' for Active; 'I' for Inactive)
REMARK    1  A    between atoms: C_9  and  N_10 
REMARK       I    between atoms: N_10  and  C_11 
REMARK    2  A    between atoms: C_11  and  C_12 
REMARK    3  A    between atoms: C_14  and  O_15 
REMARK    4  A    between atoms: O_15  and  C_16 
REMARK    5  A    between atoms: C_16  and  C_17 
ROOT
HETATM    1  C   UNL     1      39.899  46.991  65.225  1.00  0.00    -0.013 A 
HETATM    2  C   UNL     1      38.703  47.043  65.970  1.00  0.00     0.053 A 
HETATM    3  C   UNL     1      38.205  45.891  66.671  1.00  0.00     0.100 C 
HETATM    4  N   UNL     1      37.812  44.965  67.251  1.00  0.00    -0.191 NA
HETATM    5  C   UNL     1      37.975  48.240  66.045  1.00  0.00     0.023 A 
HETATM    6  C   UNL     1      38.426  49.383  65.385  1.00  0.00     0.002 A 
HETATM    7  C   UNL     1      39.603  49.338  64.644  1.00  0.00     0.001 A 
HETATM    8  C   UNL     1      40.335  48.152  64.562  1.00  0.00     0.011 A 
ENDROOT
BRANCH   1   9
HETATM    9  C   UNL     1      40.714  45.722  65.120  1.00  0.00     0.216 C 
BRANCH   9  10
HETATM   10  O   UNL     1      40.589  45.222  63.791  1.00  0.00    -0.347 OA
BRANCH  10  11
HETATM   11  C   UNL     1      39.594  44.315  63.557  1.00  0.00     0.070 A 
HETATM   12  C   UNL     1      40.006  42.980  63.566  1.00  0.00     0.053 A 
HETATM   13  C   UNL     1      39.088  41.946  63.348  1.00  0.00     0.035 A 
HETATM   14  C   UNL     1      37.737  42.255  63.149  1.00  0.00     0.017 A 
HETATM   15  C   UNL     1      37.322  43.588  63.141  1.00  0.00     0.004 A 
HETATM   16  C   UNL     1      38.248  44.615  63.342  1.00  0.00     0.037 A 
BRANCH  13  17
HETATM   17  C   UNL     1      39.576  40.538  63.403  1.00  0.00     0.256 C 
HETATM   18  N   UNL     1      40.023  40.108  64.642  1.00  0.00    -0.323 N 
HETATM   19  H   UNL     1      39.861  40.727  65.427  1.00  0.00     0.169 HD
HETATM   20  O   UNL     1      39.549  39.867  62.377  1.00  0.00    -0.267 OA
BRANCH  18  21
HETATM   21  C   UNL     1      40.663  38.886  64.936  1.00  0.00     0.035 A 
HETATM   22  C   UNL     1      41.936  38.550  64.468  1.00  0.00     0.039 A 
HETATM   23  C   UNL     1      42.499  37.343  64.855  1.00  0.00    -0.022 A 
HETATM   24  C   UNL     1      43.846  36.815  64.504  1.00  0.00     0.274 C 
HETATM   25  C   UNL     1      41.826  36.467  65.706  1.00  0.00    -0.025 A 
HETATM   26  N   UNL     1      43.852  35.389  65.046  1.00  0.00    -0.067 N 
HETATM   27  C   UNL     1      45.159  34.953  65.603  1.00  0.00     0.270 C 
HETATM   28  H   UNL     1      43.615  34.789  64.248  1.00  0.00     0.280 HD
HETATM   29  C   UNL     1      42.679  35.285  66.014  1.00  0.00     0.273 C 
HETATM   30  C   UNL     1      40.561  36.773  66.176  1.00  0.00     0.012 A 
HETATM   31  C   UNL     1      39.981  37.986  65.781  1.00  0.00     0.030 A 
ENDBRANCH  18  21
ENDBRANCH  13  17
ENDBRANCH  10  11
ENDBRANCH   9  10
ENDBRANCH   1   9
TORSDOF 5
ENDMDL
MODEL 10
REMARK VINA RESULT:      -8.1     12.500     15.666
REMARK  5 active torsions:
REMARK  status: ('A' for Active; 'I' for Inactive)
REMARK    1  A    between atoms: C_9  and  N_10 
REMARK       I    between atoms: N_10  and  C_11 
REMARK    2  A    between atoms: C_11  and  C_12 
REMARK    3  A    between atoms: C_14  and  O_15 
REMARK    4  A    between atoms: O_15  and  C_16 
REMARK    5  A    between atoms: C_16  and  C_17 
ROOT
HETATM    1  C   UNL     1      29.610  51.914  39.191  1.00  0.00    -0.013 A 
HETATM    2  C   UNL     1      30.875  52.355  39.628  1.00  0.00     0.053 A 
HETATM    3  C   UNL     1      32.077  52.015  38.916  1.00  0.00     0.100 C 
HETATM    4  N   UNL     1      33.045  51.754  38.330  1.00  0.00    -0.191 NA
HETATM    5  C   UNL     1      30.982  53.150  40.779  1.00  0.00     0.023 A 
HETATM    6  C   UNL     1      29.840  53.508  41.497  1.00  0.00     0.002 A 
HETATM    7  C   UNL     1      28.589  53.073  41.073  1.00  0.00     0.001 A 
HETATM    8  C   UNL     1      28.472  52.281  39.930  1.00  0.00     0.011 A 
ENDROOT
BRANCH   1   9
HETATM    9  C   UNL     1      29.452  51.057  37.955  1.00  0.00     0.216 C 
BRANCH   9  10
HETATM   10  O   UNL     1      28.699  49.900  38.309  1.00  0.00    -0.347 OA
BRANCH  10  11
HETATM   11  C   UNL     1      29.395  48.826  38.788  1.00  0.00     0.070 A 
HETATM   12  C   UNL     1      30.482  49.151  39.604  1.00  0.00     0.053 A 
HETATM   13  C   UNL     1      31.277  48.147  40.170  1.00  0.00     0.035 A 
HETATM   14  C   UNL     1      30.959  46.803  39.939  1.00  0.00     0.017 A 
HETATM   15  C   UNL     1      29.873  46.476  39.126  1.00  0.00     0.004 A 
HETATM   16  C   UNL     1      29.094  47.484  38.550  1.00  0.00     0.037 A 
BRANCH  13  17
HETATM   17  C   UNL     1      32.404  48.549  41.060  1.00  0.00     0.256 C 
HETATM   18  N   UNL     1      32.365  49.857  41.519  1.00  0.00    -0.323 N 
HETATM   19  H   UNL     1      31.523  50.384  41.328  1.00  0.00     0.169 HD
HETATM   20  O   UNL     1      33.268  47.721  41.324  1.00  0.00    -0.267 OA
BRANCH  18  21
HETATM   21  C   UNL     1      33.368  50.530  42.248  1.00  0.00     0.035 A 
HETATM   22  C   UNL     1      34.716  50.538  41.878  1.00  0.00     0.039 A 
HETATM   23  C   UNL     1      35.617  51.272  42.634  1.00  0.00    -0.022 A 
HETATM   24  C   UNL     1      37.076  51.444  42.394  1.00  0.00     0.274 C 
HETATM   25  C   UNL     1      35.204  52.007  43.745  1.00  0.00    -0.025 A 
HETATM   26  N   UNL     1      37.582  52.189  43.625  1.00  0.00    -0.067 N 
HETATM   27  C   UNL     1      38.649  53.185  43.342  1.00  0.00     0.270 C 
HETATM   28  H   UNL     1      37.960  51.467  44.249  1.00  0.00     0.280 HD
HETATM   29  C   UNL     1      36.354  52.753  44.330  1.00  0.00     0.273 C 
HETATM   30  C   UNL     1      33.877  52.009  44.137  1.00  0.00     0.012 A 
HETATM   31  C   UNL     1      32.962  51.260  43.384  1.00  0.00     0.030 A 
ENDBRANCH  18  21
ENDBRANCH  13  17
ENDBRANCH  10  11
ENDBRANCH   9  10
ENDBRANCH   1   9
TORSDOF 5
ENDMDL
