MODEL 1
REMARK VINA RESULT:      -8.2      0.000      0.000
REMARK  8 active torsions:
REMARK  status: ('A' for Active; 'I' for Inactive)
REMARK    1  A    between atoms: C_2  and  C_3 
REMARK    2  A    between atoms: C_3  and  C_4 
REMARK    3  A    between atoms: C_4  and  O_5 
REMARK    4  A    between atoms: O_5  and  C_6 
REMARK    5  A    between atoms: C_9  and  C_10 
REMARK    6  A    between atoms: C_10  and  N_11 
REMARK    7  A    between atoms: N_11  and  C_12 
REMARK    8  A    between atoms: C_19  and  C_20 
REMARK       I    between atoms: C_20  and  N_21 
ROOT
HETATM    1  C   UNL     1      25.236  47.125  50.614  1.00  0.00     0.009 A 
HETATM    2  C   UNL     1      24.142  47.656  49.905  1.00  0.00     0.039 A 
HETATM    3  C   UNL     1      24.329  48.704  48.979  1.00  0.00     0.030 A 
HETATM    4  C   UNL     1      25.616  49.172  48.755  1.00  0.00     0.063 A 
HETATM    5  N   UNL     1      25.486  50.161  47.820  1.00  0.00    -0.277 N 
HETATM    6  H   UNL     1      26.226  50.722  47.414  1.00  0.00     0.189 HD
HETATM    7  N   UNL     1      24.223  50.383  47.417  1.00  0.00    -0.168 NA
HETATM    8  C   UNL     1      23.497  49.486  48.124  1.00  0.00     0.156 A 
HETATM    9  C   UNL     1      26.736  48.648  49.399  1.00  0.00     0.034 A 
HETATM   10  C   UNL     1      26.516  47.612  50.318  1.00  0.00     0.026 A 
ENDROOT
BRANCH   1  11
HETATM   11  N   UNL     1      25.008  46.040  51.473  1.00  0.00    -0.289 NA
HETATM   12  H   UNL     1      25.223  46.271  52.441  1.00  0.00     0.128 HD
BRANCH  11  13
HETATM   13  C   UNL     1      25.525  44.731  51.099  1.00  0.00     0.131 C 
BRANCH  13  14
HETATM   14  C   UNL     1      26.546  44.265  52.111  1.00  0.00    -0.045 A 
HETATM   15  C   UNL     1      26.198  44.147  53.465  1.00  0.00     0.011 A 
HETATM   16  C   UNL     1      27.112  43.645  54.397  1.00  0.00     0.037 A 
HETATM   17  C   UNL     1      28.383  43.248  53.981  1.00  0.00     0.068 A 
HETATM   18  C   UNL     1      28.755  43.416  52.648  1.00  0.00     0.037 A 
HETATM   19  C   UNL     1      27.843  43.916  51.715  1.00  0.00     0.011 A 
BRANCH  17  20
HETATM   20  O   UNL     1      29.339  42.705  54.796  1.00  0.00    -0.351 OA
BRANCH  20  21
HETATM   21  C   UNL     1      30.614  43.356  54.757  1.00  0.00     0.176 C 
BRANCH  21  22
HETATM   22  C   UNL     1      31.070  43.572  56.200  1.00  0.00     0.030 C 
BRANCH  22  23
HETATM   23  C   UNL     1      30.281  44.666  56.936  1.00  0.00    -0.021 C 
HETATM   24  C   UNL     1      30.071  45.909  56.072  1.00  0.00     0.009 C 
HETATM   25  C   UNL     1      31.001  45.048  58.230  1.00  0.00     0.009 C 
ENDBRANCH  22  23
ENDBRANCH  21  22
ENDBRANCH  20  21
ENDBRANCH  17  20
ENDBRANCH  13  14
ENDBRANCH  11  13
ENDBRANCH   1  11
BRANCH   8  26
HETATM   26  C   UNL     1      22.038  49.400  47.975  1.00  0.00     0.270 C 
HETATM   27  N   UNL     1      21.427  50.604  47.755  1.00  0.00    -0.365 N 
HETATM   28  H   UNL     1      22.002  51.438  47.716  1.00  0.00     0.159 HD
HETATM   29  H   UNL     1      20.427  50.647  47.643  1.00  0.00     0.159 HD
HETATM   30  O   UNL     1      21.391  48.359  48.037  1.00  0.00    -0.266 OA
ENDBRANCH   8  26
TORSDOF 8
ENDMDL
MODEL 2
REMARK VINA RESULT:      -8.1      2.261      4.023
REMARK  8 active torsions:
REMARK  status: ('A' for Active; 'I' for Inactive)
REMARK    1  A    between atoms: C_2  and  C_3 
REMARK    2  A    between atoms: C_3  and  C_4 
REMARK    3  A    between atoms: C_4  and  O_5 
REMARK    4  A    between atoms: O_5  and  C_6 
REMARK    5  A    between atoms: C_9  and  C_10 
REMARK    6  A    between atoms: C_10  and  N_11 
REMARK    7  A    between atoms: N_11  and  C_12 
REMARK    8  A    between atoms: C_19  and  C_20 
REMARK       I    between atoms: C_20  and  N_21 
ROOT
HETATM    1  C   UNL     1      23.406  48.907  48.936  1.00  0.00     0.009 A 
HETATM    2  C   UNL     1      22.075  48.555  49.227  1.00  0.00     0.039 A 
HETATM    3  C   UNL     1      21.056  49.532  49.210  1.00  0.00     0.030 A 
HETATM    4  C   UNL     1      21.388  50.834  48.863  1.00  0.00     0.063 A 
HETATM    5  N   UNL     1      20.217  51.537  48.925  1.00  0.00    -0.277 N 
HETATM    6  H   UNL     1      20.082  52.521  48.727  1.00  0.00     0.189 HD
HETATM    7  N   UNL     1      19.149  50.806  49.287  1.00  0.00    -0.168 NA
HETATM    8  C   UNL     1      19.653  49.563  49.464  1.00  0.00     0.156 A 
HETATM    9  C   UNL     1      22.684  51.220  48.524  1.00  0.00     0.034 A 
HETATM   10  C   UNL     1      23.675  50.228  48.557  1.00  0.00     0.026 A 
ENDROOT
BRANCH   1  11
HETATM   11  N   UNL     1      24.370  47.888  48.902  1.00  0.00    -0.289 NA
HETATM   12  H   UNL     1      23.945  46.963  48.885  1.00  0.00     0.128 HD
BRANCH  11  13
HETATM   13  C   UNL     1      25.490  47.954  49.831  1.00  0.00     0.131 C 
BRANCH  13  14
HETATM   14  C   UNL     1      25.320  46.928  50.927  1.00  0.00    -0.045 A 
HETATM   15  C   UNL     1      24.646  45.724  50.671  1.00  0.00     0.011 A 
HETATM   16  C   UNL     1      24.550  44.736  51.656  1.00  0.00     0.037 A 
HETATM   17  C   UNL     1      25.134  44.940  52.906  1.00  0.00     0.068 A 
HETATM   18  C   UNL     1      25.755  46.157  53.186  1.00  0.00     0.037 A 
HETATM   19  C   UNL     1      25.854  47.145  52.203  1.00  0.00     0.011 A 
BRANCH  17  20
HETATM   20  O   UNL     1      25.137  44.028  53.927  1.00  0.00    -0.351 OA
BRANCH  20  21
HETATM   21  C   UNL     1      26.300  44.053  54.762  1.00  0.00     0.176 C 
BRANCH  21  22
HETATM   22  C   UNL     1      27.364  43.176  54.104  1.00  0.00     0.030 C 
BRANCH  22  23
HETATM   23  C   UNL     1      28.752  43.834  54.045  1.00  0.00    -0.021 C 
HETATM   24  C   UNL     1      29.864  42.881  54.484  1.00  0.00     0.009 C 
HETATM   25  C   UNL     1      28.772  45.092  54.916  1.00  0.00     0.009 C 
ENDBRANCH  22  23
ENDBRANCH  21  22
ENDBRANCH  20  21
ENDBRANCH  17  20
ENDBRANCH  13  14
ENDBRANCH  11  13
ENDBRANCH   1  11
BRANCH   8  26
HETATM   26  C   UNL     1      18.794  48.444  49.873  1.00  0.00     0.270 C 
HETATM   27  N   UNL     1      18.851  48.156  51.209  1.00  0.00    -0.365 N 
HETATM   28  H   UNL     1      19.460  48.711  51.798  1.00  0.00     0.159 HD
HETATM   29  H   UNL     1      18.299  47.401  51.584  1.00  0.00     0.159 HD
HETATM   30  O   UNL     1      18.078  47.800  49.112  1.00  0.00    -0.266 OA
ENDBRANCH   8  26
TORSDOF 8
ENDMDL
MODEL 3
REMARK VINA RESULT:      -7.9      3.278      9.426
REMARK  8 active torsions:
REMARK  status: ('A' for Active; 'I' for Inactive)
REMARK    1  A    between atoms: C_2  and  C_3 
REMARK    2  A    between atoms: C_3  and  C_4 
REMARK    3  A    between atoms: C_4  and  O_5 
REMARK    4  A    between atoms: O_5  and  C_6 
REMARK    5  A    between atoms: C_9  and  C_10 
REMARK    6  A    between atoms: C_10  and  N_11 
REMARK    7  A    between atoms: N_11  and  C_12 
REMARK    8  A    between atoms: C_19  and  C_20 
REMARK       I    between atoms: C_20  and  N_21 
ROOT
HETATM    1  C   UNL     1      27.568  43.741  52.391  1.00  0.00     0.009 A 
HETATM    2  C   UNL     1      27.755  44.575  53.509  1.00  0.00     0.039 A 
HETATM    3  C   UNL     1      28.855  44.380  54.372  1.00  0.00     0.030 A 
HETATM    4  C   UNL     1      29.766  43.377  54.073  1.00  0.00     0.063 A 
HETATM    5  N   UNL     1      30.708  43.434  55.062  1.00  0.00    -0.277 N 
HETATM    6  H   UNL     1      31.529  42.849  55.161  1.00  0.00     0.189 HD
HETATM    7  N   UNL     1      30.487  44.385  55.986  1.00  0.00    -0.168 NA
HETATM    8  C   UNL     1      29.346  44.980  55.569  1.00  0.00     0.156 A 
HETATM    9  C   UNL     1      29.648  42.555  52.953  1.00  0.00     0.034 A 
HETATM   10  C   UNL     1      28.540  42.769  52.119  1.00  0.00     0.026 A 
ENDROOT
BRANCH   1  11
HETATM   11  N   UNL     1      26.497  44.016  51.528  1.00  0.00    -0.289 NA
HETATM   12  H   UNL     1      25.804  43.271  51.533  1.00  0.00     0.128 HD
BRANCH  11  13
HETATM   13  C   UNL     1      26.789  44.478  50.177  1.00  0.00     0.131 C 
BRANCH  13  14
HETATM   14  C   UNL     1      26.245  45.873  49.974  1.00  0.00    -0.045 A 
HETATM   15  C   UNL     1      27.106  46.924  49.622  1.00  0.00     0.011 A 
HETATM   16  C   UNL     1      26.602  48.201  49.357  1.00  0.00     0.037 A 
HETATM   17  C   UNL     1      25.230  48.438  49.435  1.00  0.00     0.068 A 
HETATM   18  C   UNL     1      24.375  47.414  49.840  1.00  0.00     0.037 A 
HETATM   19  C   UNL     1      24.876  46.136  50.104  1.00  0.00     0.011 A 
BRANCH  17  20
HETATM   20  O   UNL     1      24.626  49.635  49.157  1.00  0.00    -0.351 OA
BRANCH  20  21
HETATM   21  C   UNL     1      23.197  49.591  49.077  1.00  0.00     0.176 C 
BRANCH  21  22
HETATM   22  C   UNL     1      22.768  50.503  47.927  1.00  0.00     0.030 C 
BRANCH  22  23
HETATM   23  C   UNL     1      21.249  50.519  47.690  1.00  0.00    -0.021 C 
HETATM   24  C   UNL     1      20.520  51.437  48.673  1.00  0.00     0.009 C 
HETATM   25  C   UNL     1      20.688  49.100  47.792  1.00  0.00     0.009 C 
ENDBRANCH  22  23
ENDBRANCH  21  22
ENDBRANCH  20  21
ENDBRANCH  17  20
ENDBRANCH  13  14
ENDBRANCH  11  13
ENDBRANCH   1  11
BRANCH   8  26
HETATM   26  C   UNL     1      28.750  46.095  56.319  1.00  0.00     0.270 C 
HETATM   27  N   UNL     1      29.048  46.092  57.654  1.00  0.00    -0.365 N 
HETATM   28  H   UNL     1      29.632  45.348  58.017  1.00  0.00     0.159 HD
HETATM   29  H   UNL     1      28.681  46.815  58.252  1.00  0.00     0.159 HD
HETATM   30  O   UNL     1      28.042  46.968  55.825  1.00  0.00    -0.266 OA
ENDBRANCH   8  26
TORSDOF 8
ENDMDL
MODEL 4
REMARK VINA RESULT:      -7.9      2.930      9.527
REMARK  8 active torsions:
REMARK  status: ('A' for Active; 'I' for Inactive)
REMARK    1  A    between atoms: C_2  and  C_3 
REMARK    2  A    between atoms: C_3  and  C_4 
REMARK    3  A    between atoms: C_4  and  O_5 
REMARK    4  A    between atoms: O_5  and  C_6 
REMARK    5  A    between atoms: C_9  and  C_10 
REMARK    6  A    between atoms: C_10  and  N_11 
REMARK    7  A    between atoms: N_11  and  C_12 
REMARK    8  A    between atoms: C_19  and  C_20 
REMARK       I    between atoms: C_20  and  N_21 
ROOT
HETATM    1  C   UNL     1      26.097  45.657  52.862  1.00  0.00     0.009 A 
HETATM    2  C   UNL     1      27.122  44.823  53.348  1.00  0.00     0.039 A 
HETATM    3  C   UNL     1      27.940  45.243  54.418  1.00  0.00     0.030 A 
HETATM    4  C   UNL     1      27.689  46.475  55.004  1.00  0.00     0.063 A 
HETATM    5  N   UNL     1      28.618  46.602  55.999  1.00  0.00    -0.277 N 
HETATM    6  H   UNL     1      28.728  47.379  56.640  1.00  0.00     0.189 HD
HETATM    7  N   UNL     1      29.460  45.560  56.109  1.00  0.00    -0.168 NA
HETATM    8  C   UNL     1      29.050  44.711  55.139  1.00  0.00     0.156 A 
HETATM    9  C   UNL     1      26.658  47.316  54.587  1.00  0.00     0.034 A 
HETATM   10  C   UNL     1      25.866  46.873  53.518  1.00  0.00     0.026 A 
ENDROOT
BRANCH   1  11
HETATM   11  N   UNL     1      25.269  45.166  51.841  1.00  0.00    -0.289 NA
HETATM   12  H   UNL     1      24.948  44.220  52.035  1.00  0.00     0.128 HD
BRANCH  11  13
HETATM   13  C   UNL     1      25.698  45.322  50.458  1.00  0.00     0.131 C 
BRANCH  13  14
HETATM   14  C   UNL     1      25.197  46.635  49.902  1.00  0.00    -0.045 A 
HETATM   15  C   UNL     1      26.085  47.703  49.700  1.00  0.00     0.011 A 
HETATM   16  C   UNL     1      25.648  48.895  49.114  1.00  0.00     0.037 A 
HETATM   17  C   UNL     1      24.317  49.028  48.718  1.00  0.00     0.068 A 
HETATM   18  C   UNL     1      23.417  47.993  48.968  1.00  0.00     0.037 A 
HETATM   19  C   UNL     1      23.852  46.800  49.551  1.00  0.00     0.011 A 
BRANCH  17  20
HETATM   20  O   UNL     1      23.791  50.130  48.100  1.00  0.00    -0.351 OA
BRANCH  20  21
HETATM   21  C   UNL     1      23.066  51.021  48.955  1.00  0.00     0.176 C 
BRANCH  21  22
HETATM   22  C   UNL     1      21.678  51.220  48.348  1.00  0.00     0.030 C 
BRANCH  22  23
HETATM   23  C   UNL     1      20.542  51.166  49.383  1.00  0.00    -0.021 C 
HETATM   24  C   UNL     1      20.076  49.736  49.657  1.00  0.00     0.009 C 
HETATM   25  C   UNL     1      19.361  52.015  48.907  1.00  0.00     0.009 C 
ENDBRANCH  22  23
ENDBRANCH  21  22
ENDBRANCH  20  21
ENDBRANCH  17  20
ENDBRANCH  13  14
ENDBRANCH  11  13
ENDBRANCH   1  11
BRANCH   8  26
HETATM   26  C   UNL     1      29.723  43.423  54.920  1.00  0.00     0.270 C 
HETATM   27  N   UNL     1      30.893  43.280  55.613  1.00  0.00    -0.365 N 
HETATM   28  H   UNL     1      31.202  44.043  56.203  1.00  0.00     0.159 HD
HETATM   29  H   UNL     1      31.429  42.431  55.524  1.00  0.00     0.159 HD
HETATM   30  O   UNL     1      29.303  42.533  54.186  1.00  0.00    -0.266 OA
ENDBRANCH   8  26
TORSDOF 8
ENDMDL
MODEL 5
REMARK VINA RESULT:      -7.6      2.898      9.838
REMARK  8 active torsions:
REMARK  status: ('A' for Active; 'I' for Inactive)
REMARK    1  A    between atoms: C_2  and  C_3 
REMARK    2  A    between atoms: C_3  and  C_4 
REMARK    3  A    between atoms: C_4  and  O_5 
REMARK    4  A    between atoms: O_5  and  C_6 
REMARK    5  A    between atoms: C_9  and  C_10 
REMARK    6  A    between atoms: C_10  and  N_11 
REMARK    7  A    between atoms: N_11  and  C_12 
REMARK    8  A    between atoms: C_19  and  C_20 
REMARK       I    between atoms: C_20  and  N_21 
ROOT
HETATM    1  C   UNL     1      26.994  44.390  50.146  1.00  0.00     0.009 A 
HETATM    2  C   UNL     1      27.640  44.297  51.394  1.00  0.00     0.039 A 
HETATM    3  C   UNL     1      27.702  43.065  52.079  1.00  0.00     0.030 A 
HETATM    4  C   UNL     1      27.147  41.943  51.481  1.00  0.00     0.063 A 
HETATM    5  N   UNL     1      27.363  40.918  52.359  1.00  0.00    -0.277 N 
HETATM    6  H   UNL     1      27.095  39.948  52.246  1.00  0.00     0.189 HD
HETATM    7  N   UNL     1      28.007  41.276  53.483  1.00  0.00    -0.168 NA
HETATM    8  C   UNL     1      28.225  42.601  53.322  1.00  0.00     0.156 A 
HETATM    9  C   UNL     1      26.536  41.976  50.227  1.00  0.00     0.034 A 
HETATM   10  C   UNL     1      26.486  43.216  49.575  1.00  0.00     0.026 A 
ENDROOT
BRANCH   1  11
HETATM   11  N   UNL     1      27.018  45.622  49.475  1.00  0.00    -0.289 NA
HETATM   12  H   UNL     1      27.789  45.679  48.813  1.00  0.00     0.128 HD
BRANCH  11  13
HETATM   13  C   UNL     1      26.880  46.845  50.254  1.00  0.00     0.131 C 
BRANCH  13  14
HETATM   14  C   UNL     1      25.929  47.796  49.566  1.00  0.00    -0.045 A 
HETATM   15  C   UNL     1      24.544  47.573  49.617  1.00  0.00     0.011 A 
HETATM   16  C   UNL     1      23.651  48.488  49.049  1.00  0.00     0.037 A 
HETATM   17  C   UNL     1      24.136  49.641  48.432  1.00  0.00     0.068 A 
HETATM   18  C   UNL     1      25.512  49.841  48.328  1.00  0.00     0.037 A 
HETATM   19  C   UNL     1      26.405  48.929  48.895  1.00  0.00     0.011 A 
BRANCH  17  20
HETATM   20  O   UNL     1      23.354  50.621  47.882  1.00  0.00    -0.351 OA
BRANCH  20  21
HETATM   21  C   UNL     1      22.462  51.271  48.794  1.00  0.00     0.176 C 
BRANCH  21  22
HETATM   22  C   UNL     1      21.034  50.985  48.329  1.00  0.00     0.030 C 
BRANCH  22  23
HETATM   23  C   UNL     1      19.958  51.619  49.226  1.00  0.00    -0.021 C 
HETATM   24  C   UNL     1      19.139  50.568  49.977  1.00  0.00     0.009 C 
HETATM   25  C   UNL     1      19.029  52.498  48.386  1.00  0.00     0.009 C 
ENDBRANCH  22  23
ENDBRANCH  21  22
ENDBRANCH  20  21
ENDBRANCH  17  20
ENDBRANCH  13  14
ENDBRANCH  11  13
ENDBRANCH   1  11
BRANCH   8  26
HETATM   26  C   UNL     1      28.917  43.390  54.350  1.00  0.00     0.270 C 
HETATM   27  N   UNL     1      30.190  42.966  54.616  1.00  0.00    -0.365 N 
HETATM   28  H   UNL     1      30.550  42.167  54.106  1.00  0.00     0.159 HD
HETATM   29  H   UNL     1      30.744  43.443  55.309  1.00  0.00     0.159 HD
HETATM   30  O   UNL     1      28.428  44.348  54.940  1.00  0.00    -0.266 OA
ENDBRANCH   8  26
TORSDOF 8
ENDMDL
MODEL 6
REMARK VINA RESULT:      -7.6      2.925      9.849
REMARK  8 active torsions:
REMARK  status: ('A' for Active; 'I' for Inactive)
REMARK    1  A    between atoms: C_2  and  C_3 
REMARK    2  A    between atoms: C_3  and  C_4 
REMARK    3  A    between atoms: C_4  and  O_5 
REMARK    4  A    between atoms: O_5  and  C_6 
REMARK    5  A    between atoms: C_9  and  C_10 
REMARK    6  A    between atoms: C_10  and  N_11 
REMARK    7  A    between atoms: N_11  and  C_12 
REMARK    8  A    between atoms: C_19  and  C_20 
REMARK       I    between atoms: C_20  and  N_21 
ROOT
HETATM    1  C   UNL     1      26.229  46.382  52.884  1.00  0.00     0.009 A 
HETATM    2  C   UNL     1      27.015  45.218  52.988  1.00  0.00     0.039 A 
HETATM    3  C   UNL     1      27.971  45.089  54.017  1.00  0.00     0.030 A 
HETATM    4  C   UNL     1      28.093  46.113  54.945  1.00  0.00     0.063 A 
HETATM    5  N   UNL     1      29.073  45.709  55.808  1.00  0.00    -0.277 N 
HETATM    6  H   UNL     1      29.422  46.209  56.617  1.00  0.00     0.189 HD
HETATM    7  N   UNL     1      29.605  44.509  55.521  1.00  0.00    -0.168 NA
HETATM    8  C   UNL     1      28.931  44.113  54.417  1.00  0.00     0.156 A 
HETATM    9  C   UNL     1      27.307  47.265  54.910  1.00  0.00     0.034 A 
HETATM   10  C   UNL     1      26.370  47.366  53.871  1.00  0.00     0.026 A 
ENDROOT
BRANCH   1  11
HETATM   11  N   UNL     1      25.247  46.434  51.883  1.00  0.00    -0.289 NA
HETATM   12  H   UNL     1      24.495  45.770  52.055  1.00  0.00     0.128 HD
BRANCH  11  13
HETATM   13  C   UNL     1      25.669  46.428  50.489  1.00  0.00     0.131 C 
BRANCH  13  14
HETATM   14  C   UNL     1      24.898  47.466  49.707  1.00  0.00    -0.045 A 
HETATM   15  C   UNL     1      23.518  47.318  49.504  1.00  0.00     0.011 A 
HETATM   16  C   UNL     1      22.782  48.311  48.848  1.00  0.00     0.037 A 
HETATM   17  C   UNL     1      23.421  49.465  48.395  1.00  0.00     0.068 A 
HETATM   18  C   UNL     1      24.801  49.592  48.542  1.00  0.00     0.037 A 
HETATM   19  C   UNL     1      25.538  48.603  49.199  1.00  0.00     0.011 A 
BRANCH  17  20
HETATM   20  O   UNL     1      22.794  50.515  47.780  1.00  0.00    -0.351 OA
BRANCH  20  21
HETATM   21  C   UNL     1      21.364  50.455  47.778  1.00  0.00     0.176 C 
BRANCH  21  22
HETATM   22  C   UNL     1      20.849  51.609  48.638  1.00  0.00     0.030 C 
BRANCH  22  23
HETATM   23  C   UNL     1      19.503  51.314  49.319  1.00  0.00    -0.021 C 
HETATM   24  C   UNL     1      18.990  49.908  49.004  1.00  0.00     0.009 C 
HETATM   25  C   UNL     1      18.463  52.353  48.894  1.00  0.00     0.009 C 
ENDBRANCH  22  23
ENDBRANCH  21  22
ENDBRANCH  20  21
ENDBRANCH  17  20
ENDBRANCH  13  14
ENDBRANCH  11  13
ENDBRANCH   1  11
BRANCH   8  26
HETATM   26  C   UNL     1      29.218  42.825  53.770  1.00  0.00     0.270 C 
HETATM   27  N   UNL     1      30.286  42.856  52.915  1.00  0.00    -0.365 N 
HETATM   28  H   UNL     1      30.782  43.732  52.792  1.00  0.00     0.159 HD
HETATM   29  H   UNL     1      30.559  42.021  52.421  1.00  0.00     0.159 HD
HETATM   30  O   UNL     1      28.578  41.795  53.953  1.00  0.00    -0.266 OA
ENDBRANCH   8  26
TORSDOF 8
ENDMDL
MODEL 7
REMARK VINA RESULT:      -7.6      2.280      3.501
REMARK  8 active torsions:
REMARK  status: ('A' for Active; 'I' for Inactive)
REMARK    1  A    between atoms: C_2  and  C_3 
REMARK    2  A    between atoms: C_3  and  C_4 
REMARK    3  A    between atoms: C_4  and  O_5 
REMARK    4  A    between atoms: O_5  and  C_6 
REMARK    5  A    between atoms: C_9  and  C_10 
REMARK    6  A    between atoms: C_10  and  N_11 
REMARK    7  A    between atoms: N_11  and  C_12 
REMARK    8  A    between atoms: C_19  and  C_20 
REMARK       I    between atoms: C_20  and  N_21 
ROOT
HETATM    1  C   UNL     1      24.252  48.445  49.035  1.00  0.00     0.009 A 
HETATM    2  C   UNL     1      22.965  47.877  49.093  1.00  0.00     0.039 A 
HETATM    3  C   UNL     1      21.849  48.578  48.589  1.00  0.00     0.030 A 
HETATM    4  C   UNL     1      22.052  49.819  48.003  1.00  0.00     0.063 A 
HETATM    5  N   UNL     1      20.814  50.243  47.609  1.00  0.00    -0.277 N 
HETATM    6  H   UNL     1      20.584  51.110  47.138  1.00  0.00     0.189 HD
HETATM    7  N   UNL     1      19.818  49.387  47.892  1.00  0.00    -0.168 NA
HETATM    8  C   UNL     1      20.444  48.352  48.496  1.00  0.00     0.156 A 
HETATM    9  C   UNL     1      23.313  50.403  47.882  1.00  0.00     0.034 A 
HETATM   10  C   UNL     1      24.401  49.684  48.398  1.00  0.00     0.026 A 
ENDROOT
BRANCH   1  11
HETATM   11  N   UNL     1      25.337  47.680  49.489  1.00  0.00    -0.289 NA
HETATM   12  H   UNL     1      25.474  46.844  48.924  1.00  0.00     0.128 HD
BRANCH  11  13
HETATM   13  C   UNL     1      25.446  47.398  50.913  1.00  0.00     0.131 C 
BRANCH  13  14
HETATM   14  C   UNL     1      25.799  45.945  51.132  1.00  0.00    -0.045 A 
HETATM   15  C   UNL     1      25.027  45.151  51.993  1.00  0.00     0.011 A 
HETATM   16  C   UNL     1      25.298  43.787  52.143  1.00  0.00     0.037 A 
HETATM   17  C   UNL     1      26.342  43.202  51.425  1.00  0.00     0.068 A 
HETATM   18  C   UNL     1      27.148  43.997  50.612  1.00  0.00     0.037 A 
HETATM   19  C   UNL     1      26.878  45.359  50.459  1.00  0.00     0.011 A 
BRANCH  17  20
HETATM   20  O   UNL     1      26.668  41.873  51.463  1.00  0.00    -0.351 OA
BRANCH  20  21
HETATM   21  C   UNL     1      27.998  41.585  51.910  1.00  0.00     0.176 C 
BRANCH  21  22
HETATM   22  C   UNL     1      27.999  41.653  53.437  1.00  0.00     0.030 C 
BRANCH  22  23
HETATM   23  C   UNL     1      28.992  42.679  54.006  1.00  0.00    -0.021 C 
HETATM   24  C   UNL     1      28.310  43.994  54.388  1.00  0.00     0.009 C 
HETATM   25  C   UNL     1      30.105  42.948  52.991  1.00  0.00     0.009 C 
ENDBRANCH  22  23
ENDBRANCH  21  22
ENDBRANCH  20  21
ENDBRANCH  17  20
ENDBRANCH  13  14
ENDBRANCH  11  13
ENDBRANCH   1  11
BRANCH   8  26
HETATM   26  C   UNL     1      19.695  47.181  48.972  1.00  0.00     0.270 C 
HETATM   27  N   UNL     1      18.562  47.491  49.674  1.00  0.00    -0.365 N 
HETATM   28  H   UNL     1      18.331  48.468  49.812  1.00  0.00     0.159 HD
HETATM   29  H   UNL     1      17.983  46.754  50.044  1.00  0.00     0.159 HD
HETATM   30  O   UNL     1      20.026  46.015  48.780  1.00  0.00    -0.266 OA
ENDBRANCH   8  26
TORSDOF 8
ENDMDL
MODEL 8
REMARK VINA RESULT:      -7.4      2.983      9.799
REMARK  8 active torsions:
REMARK  status: ('A' for Active; 'I' for Inactive)
REMARK    1  A    between atoms: C_2  and  C_3 
REMARK    2  A    between atoms: C_3  and  C_4 
REMARK    3  A    between atoms: C_4  and  O_5 
REMARK    4  A    between atoms: O_5  and  C_6 
REMARK    5  A    between atoms: C_9  and  C_10 
REMARK    6  A    between atoms: C_10  and  N_11 
REMARK    7  A    between atoms: N_11  and  C_12 
REMARK    8  A    between atoms: C_19  and  C_20 
REMARK       I    between atoms: C_20  and  N_21 
ROOT
HETATM    1  C   UNL     1      25.977  46.433  52.276  1.00  0.00     0.009 A 
HETATM    2  C   UNL     1      26.165  45.121  51.801  1.00  0.00     0.039 A 
HETATM    3  C   UNL     1      26.835  44.163  52.591  1.00  0.00     0.030 A 
HETATM    4  C   UNL     1      27.268  44.529  53.857  1.00  0.00     0.063 A 
HETATM    5  N   UNL     1      27.862  43.412  54.377  1.00  0.00    -0.277 N 
HETATM    6  H   UNL     1      28.287  43.313  55.291  1.00  0.00     0.189 HD
HETATM    7  N   UNL     1      27.858  42.348  53.556  1.00  0.00    -0.168 NA
HETATM    8  C   UNL     1      27.223  42.798  52.448  1.00  0.00     0.156 A 
HETATM    9  C   UNL     1      27.065  45.802  54.389  1.00  0.00     0.034 A 
HETATM   10  C   UNL     1      26.402  46.734  53.577  1.00  0.00     0.026 A 
ENDROOT
BRANCH   1  11
HETATM   11  N   UNL     1      25.247  47.329  51.481  1.00  0.00    -0.289 NA
HETATM   12  H   UNL     1      24.262  47.348  51.737  1.00  0.00     0.128 HD
BRANCH  11  13
HETATM   13  C   UNL     1      25.432  47.293  50.037  1.00  0.00     0.131 C 
BRANCH  13  14
HETATM   14  C   UNL     1      24.445  48.216  49.361  1.00  0.00    -0.045 A 
HETATM   15  C   UNL     1      24.899  49.308  48.607  1.00  0.00     0.011 A 
HETATM   16  C   UNL     1      23.997  50.123  47.915  1.00  0.00     0.037 A 
HETATM   17  C   UNL     1      22.631  49.849  47.966  1.00  0.00     0.068 A 
HETATM   18  C   UNL     1      22.168  48.800  48.760  1.00  0.00     0.037 A 
HETATM   19  C   UNL     1      23.067  47.983  49.450  1.00  0.00     0.011 A 
BRANCH  17  20
HETATM   20  O   UNL     1      21.666  50.552  47.297  1.00  0.00    -0.351 OA
BRANCH  20  21
HETATM   21  C   UNL     1      20.372  50.544  47.909  1.00  0.00     0.176 C 
BRANCH  21  22
HETATM   22  C   UNL     1      20.286  51.762  48.829  1.00  0.00     0.030 C 
BRANCH  22  23
HETATM   23  C   UNL     1      19.094  51.716  49.799  1.00  0.00    -0.021 C 
HETATM   24  C   UNL     1      18.820  50.302  50.312  1.00  0.00     0.009 C 
HETATM   25  C   UNL     1      17.843  52.273  49.116  1.00  0.00     0.009 C 
ENDBRANCH  22  23
ENDBRANCH  21  22
ENDBRANCH  20  21
ENDBRANCH  17  20
ENDBRANCH  13  14
ENDBRANCH  11  13
ENDBRANCH   1  11
BRANCH   8  26
HETATM   26  C   UNL     1      27.008  41.925  51.287  1.00  0.00     0.270 C 
HETATM   27  N   UNL     1      25.719  41.490  51.147  1.00  0.00    -0.365 N 
HETATM   28  H   UNL     1      25.031  41.787  51.830  1.00  0.00     0.159 HD
HETATM   29  H   UNL     1      25.473  40.883  50.381  1.00  0.00     0.159 HD
HETATM   30  O   UNL     1      27.882  41.592  50.493  1.00  0.00    -0.266 OA
ENDBRANCH   8  26
TORSDOF 8
ENDMDL
MODEL 9
REMARK VINA RESULT:      -7.2      4.756     10.812
REMARK  8 active torsions:
REMARK  status: ('A' for Active; 'I' for Inactive)
REMARK    1  A    between atoms: C_2  and  C_3 
REMARK    2  A    between atoms: C_3  and  C_4 
REMARK    3  A    between atoms: C_4  and  O_5 
REMARK    4  A    between atoms: O_5  and  C_6 
REMARK    5  A    between atoms: C_9  and  C_10 
REMARK    6  A    between atoms: C_10  and  N_11 
REMARK    7  A    between atoms: N_11  and  C_12 
REMARK    8  A    between atoms: C_19  and  C_20 
REMARK       I    between atoms: C_20  and  N_21 
ROOT
HETATM    1  C   UNL     1      23.920  47.715  49.596  1.00  0.00     0.009 A 
HETATM    2  C   UNL     1      23.990  46.314  49.721  1.00  0.00     0.039 A 
HETATM    3  C   UNL     1      25.239  45.658  49.732  1.00  0.00     0.030 A 
HETATM    4  C   UNL     1      26.394  46.424  49.657  1.00  0.00     0.063 A 
HETATM    5  N   UNL     1      27.427  45.530  49.698  1.00  0.00    -0.277 N 
HETATM    6  H   UNL     1      28.418  45.737  49.670  1.00  0.00     0.189 HD
HETATM    7  N   UNL     1      27.046  44.244  49.788  1.00  0.00    -0.168 NA
HETATM    8  C   UNL     1      25.695  44.309  49.813  1.00  0.00     0.156 A 
HETATM    9  C   UNL     1      26.376  47.816  49.577  1.00  0.00     0.034 A 
HETATM   10  C   UNL     1      25.119  48.438  49.562  1.00  0.00     0.026 A 
ENDROOT
BRANCH   1  11
HETATM   11  N   UNL     1      22.658  48.325  49.656  1.00  0.00    -0.289 NA
HETATM   12  H   UNL     1      21.936  47.675  49.962  1.00  0.00     0.128 HD
BRANCH  11  13
HETATM   13  C   UNL     1      22.218  49.134  48.528  1.00  0.00     0.131 C 
BRANCH  13  14
HETATM   14  C   UNL     1      21.047  50.000  48.932  1.00  0.00    -0.045 A 
HETATM   15  C   UNL     1      20.889  51.279  48.379  1.00  0.00     0.011 A 
HETATM   16  C   UNL     1      19.769  52.058  48.688  1.00  0.00     0.037 A 
HETATM   17  C   UNL     1      18.791  51.560  49.549  1.00  0.00     0.068 A 
HETATM   18  C   UNL     1      18.970  50.313  50.147  1.00  0.00     0.037 A 
HETATM   19  C   UNL     1      20.087  49.533  49.839  1.00  0.00     0.011 A 
BRANCH  17  20
HETATM   20  O   UNL     1      17.638  52.215  49.887  1.00  0.00    -0.351 OA
BRANCH  20  21
HETATM   21  C   UNL     1      16.728  52.442  48.805  1.00  0.00     0.176 C 
BRANCH  21  22
HETATM   22  C   UNL     1      15.640  51.371  48.881  1.00  0.00     0.030 C 
BRANCH  22  23
HETATM   23  C   UNL     1      15.595  50.453  47.649  1.00  0.00    -0.021 C 
HETATM   24  C   UNL     1      15.608  48.972  48.030  1.00  0.00     0.009 C 
HETATM   25  C   UNL     1      16.774  50.761  46.724  1.00  0.00     0.009 C 
ENDBRANCH  22  23
ENDBRANCH  21  22
ENDBRANCH  20  21
ENDBRANCH  17  20
ENDBRANCH  13  14
ENDBRANCH  11  13
ENDBRANCH   1  11
BRANCH   8  26
HETATM   26  C   UNL     1      24.876  43.093  49.907  1.00  0.00     0.270 C 
HETATM   27  N   UNL     1      25.088  42.364  51.045  1.00  0.00    -0.365 N 
HETATM   28  H   UNL     1      25.770  42.700  51.714  1.00  0.00     0.159 HD
HETATM   29  H   UNL     1      24.574  41.511  51.198  1.00  0.00     0.159 HD
HETATM   30  O   UNL     1      24.065  42.732  49.060  1.00  0.00    -0.266 OA
ENDBRANCH   8  26
TORSDOF 8
ENDMDL
MODEL 10
REMARK VINA RESULT:      -7.1     11.637     13.891
REMARK  8 active torsions:
REMARK  status: ('A' for Active; 'I' for Inactive)
REMARK    1  A    between atoms: C_2  and  C_3 
REMARK    2  A    between atoms: C_3  and  C_4 
REMARK    3  A    between atoms: C_4  and  O_5 
REMARK    4  A    between atoms: O_5  and  C_6 
REMARK    5  A    between atoms: C_9  and  C_10 
REMARK    6  A    between atoms: C_10  and  N_11 
REMARK    7  A    between atoms: N_11  and  C_12 
REMARK    8  A    between atoms: C_19  and  C_20 
REMARK       I    between atoms: C_20  and  N_21 
ROOT
HETATM    1  C   UNL     1      27.856  50.676  39.027  1.00  0.00     0.009 A 
HETATM    2  C   UNL     1      28.030  49.353  38.580  1.00  0.00     0.039 A 
HETATM    3  C   UNL     1      27.936  48.274  39.485  1.00  0.00     0.030 A 
HETATM    4  C   UNL     1      27.632  48.542  40.811  1.00  0.00     0.063 A 
HETATM    5  N   UNL     1      27.601  47.324  41.431  1.00  0.00    -0.277 N 
HETATM    6  H   UNL     1      27.403  47.138  42.407  1.00  0.00     0.189 HD
HETATM    7  N   UNL     1      27.865  46.283  40.624  1.00  0.00    -0.168 NA
HETATM    8  C   UNL     1      28.071  46.855  39.416  1.00  0.00     0.156 A 
HETATM    9  C   UNL     1      27.407  49.832  41.292  1.00  0.00     0.034 A 
HETATM   10  C   UNL     1      27.514  50.883  40.369  1.00  0.00     0.026 A 
ENDROOT
BRANCH   1  11
HETATM   11  N   UNL     1      27.893  51.708  38.077  1.00  0.00    -0.289 NA
HETATM   12  H   UNL     1      27.935  51.348  37.126  1.00  0.00     0.128 HD
BRANCH  11  13
HETATM   13  C   UNL     1      28.821  52.813  38.280  1.00  0.00     0.131 C 
BRANCH  13  14
HETATM   14  C   UNL     1      30.128  52.300  38.839  1.00  0.00    -0.045 A 
HETATM   15  C   UNL     1      30.969  51.500  38.051  1.00  0.00     0.011 A 
HETATM   16  C   UNL     1      32.215  51.083  38.532  1.00  0.00     0.037 A 
HETATM   17  C   UNL     1      32.635  51.471  39.804  1.00  0.00     0.068 A 
HETATM   18  C   UNL     1      31.780  52.218  40.614  1.00  0.00     0.037 A 
HETATM   19  C   UNL     1      30.536  52.637  40.135  1.00  0.00     0.011 A 
BRANCH  17  20
HETATM   20  O   UNL     1      33.847  51.158  40.356  1.00  0.00    -0.351 OA
BRANCH  20  21
HETATM   21  C   UNL     1      33.785  50.437  41.592  1.00  0.00     0.176 C 
BRANCH  21  22
HETATM   22  C   UNL     1      33.701  48.948  41.257  1.00  0.00     0.030 C 
BRANCH  22  23
HETATM   23  C   UNL     1      32.378  48.295  41.688  1.00  0.00    -0.021 C 
HETATM   24  C   UNL     1      31.476  47.974  40.496  1.00  0.00     0.009 C 
HETATM   25  C   UNL     1      31.639  49.208  42.668  1.00  0.00     0.009 C 
ENDBRANCH  22  23
ENDBRANCH  21  22
ENDBRANCH  20  21
ENDBRANCH  17  20
ENDBRANCH  13  14
ENDBRANCH  11  13
ENDBRANCH   1  11
BRANCH   8  26
HETATM   26  C   UNL     1      28.395  46.045  38.234  1.00  0.00     0.270 C 
HETATM   27  N   UNL     1      27.350  45.882  37.366  1.00  0.00    -0.365 N 
HETATM   28  H   UNL     1      26.461  46.312  37.593  1.00  0.00     0.159 HD
HETATM   29  H   UNL     1      27.474  45.338  36.527  1.00  0.00     0.159 HD
HETATM   30  O   UNL     1      29.492  45.542  38.012  1.00  0.00    -0.266 OA
ENDBRANCH   8  26
TORSDOF 8
ENDMDL
