MODEL 1
REMARK VINA RESULT:      -8.5      0.000      0.000
REMARK  9 active torsions:
REMARK  status: ('A' for Active; 'I' for Inactive)
REMARK    1  A    between atoms: C_2  and  N_3 
REMARK    2  A    between atoms: C_2  and  C_23 
REMARK       I    between atoms: N_3  and  C_4 
REMARK       I    between atoms: C_4  and  N_5 
REMARK    3  A    between atoms: N_5  and  C_6 
REMARK    4  A    between atoms: C_6  and  C_7 
REMARK    5  A    between atoms: C_7  and  N_8 
REMARK    6  A    between atoms: C_7  and  C_14 
REMARK    7  A    between atoms: C_16  and  O_17 
REMARK    8  A    between atoms: C_23  and  C_24 
REMARK    9  A    between atoms: C_27  and  O_28 
ROOT
HETATM    1  N   UNL     1      28.271  43.724  52.618  1.00  0.00    -0.339 N 
HETATM    2  C   UNL     1      27.087  44.395  52.679  1.00  0.00     0.316 C 
HETATM    3  N   UNL     1      26.926  45.264  51.629  1.00  0.00    -0.341 N 
HETATM    4  O   UNL     1      26.292  44.333  53.608  1.00  0.00    -0.248 OA
HETATM    5  H   UNL     1      28.729  43.637  51.723  1.00  0.00     0.164 HD
HETATM    6  H   UNL     1      27.447  45.012  50.799  1.00  0.00     0.164 HD
ENDROOT
BRANCH   3   7
HETATM    7  C   UNL     1      25.636  45.903  51.409  1.00  0.00     0.162 C 
BRANCH   7   8
HETATM    8  C   UNL     1      25.098  45.966  49.940  1.00  0.00     0.238 C 
BRANCH   8   9
HETATM    9  N   UNL     1      23.889  45.073  49.651  1.00  0.00    -0.061 N 
HETATM   10  H   UNL     1      23.098  45.728  49.654  1.00  0.00     0.280 HD
HETATM   11  C   UNL     1      23.526  43.991  50.637  1.00  0.00     0.236 C 
HETATM   12  C   UNL     1      23.608  42.702  49.844  1.00  0.00     0.029 C 
HETATM   13  C   UNL     1      23.172  43.121  48.457  1.00  0.00     0.029 C 
HETATM   14  C   UNL     1      23.871  44.452  48.264  1.00  0.00     0.236 C 
ENDBRANCH   8   9
BRANCH   8  15
HETATM   15  C   UNL     1      24.807  47.404  49.514  1.00  0.00    -0.023 A 
HETATM   16  C   UNL     1      23.471  47.858  49.492  1.00  0.00     0.046 A 
HETATM   17  C   UNL     1      23.165  49.166  49.106  1.00  0.00     0.068 A 
HETATM   18  C   UNL     1      24.198  50.037  48.762  1.00  0.00     0.037 A 
HETATM   19  C   UNL     1      25.523  49.608  48.778  1.00  0.00     0.003 A 
HETATM   20  C   UNL     1      25.827  48.299  49.152  1.00  0.00     0.009 A 
BRANCH  17  21
HETATM   21  O   UNL     1      21.915  49.711  49.043  1.00  0.00    -0.356 OA
HETATM   22  C   UNL     1      20.812  48.813  49.056  1.00  0.00     0.210 C 
ENDBRANCH  17  21
ENDBRANCH   8  15
ENDBRANCH   7   8
ENDBRANCH   3   7
BRANCH   1  23
HETATM   23  C   UNL     1      28.705  42.808  53.673  1.00  0.00     0.086 C 
HETATM   24  C   UNL     1      28.470  41.357  53.250  1.00  0.00     0.032 C 
BRANCH  23  25
HETATM   25  C   UNL     1      30.194  43.019  54.022  1.00  0.00     0.063 C 
BRANCH  25  26
HETATM   26  C   UNL     1      30.407  43.726  55.341  1.00  0.00    -0.056 A 
HETATM   27  C   UNL     1      31.259  43.179  56.312  1.00  0.00     0.010 A 
HETATM   28  C   UNL     1      31.465  43.835  57.528  1.00  0.00     0.037 A 
HETATM   29  C   UNL     1      30.806  45.033  57.777  1.00  0.00     0.065 A 
HETATM   30  C   UNL     1      29.951  45.587  56.832  1.00  0.00     0.037 A 
HETATM   31  C   UNL     1      29.757  44.939  55.613  1.00  0.00     0.010 A 
BRANCH  29  32
HETATM   32  O   UNL     1      30.978  45.708  58.948  1.00  0.00    -0.361 OA
HETATM   33  H   UNL     1      30.530  46.568  58.880  1.00  0.00     0.217 HD
ENDBRANCH  29  32
ENDBRANCH  25  26
ENDBRANCH  23  25
ENDBRANCH   1  23
TORSDOF 9
ENDMDL
MODEL 2
REMARK VINA RESULT:      -8.3      2.679     10.017
REMARK  9 active torsions:
REMARK  status: ('A' for Active; 'I' for Inactive)
REMARK    1  A    between atoms: C_2  and  N_3 
REMARK    2  A    between atoms: C_2  and  C_23 
REMARK       I    between atoms: N_3  and  C_4 
REMARK       I    between atoms: C_4  and  N_5 
REMARK    3  A    between atoms: N_5  and  C_6 
REMARK    4  A    between atoms: C_6  and  C_7 
REMARK    5  A    between atoms: C_7  and  N_8 
REMARK    6  A    between atoms: C_7  and  C_14 
REMARK    7  A    between atoms: C_16  and  O_17 
REMARK    8  A    between atoms: C_23  and  C_24 
REMARK    9  A    between atoms: C_27  and  O_28 
ROOT
HETATM    1  N   UNL     1      22.712  48.344  49.529  1.00  0.00    -0.339 N 
HETATM    2  C   UNL     1      24.024  48.132  49.831  1.00  0.00     0.316 C 
HETATM    3  N   UNL     1      24.191  47.115  50.738  1.00  0.00    -0.341 N 
HETATM    4  O   UNL     1      24.956  48.822  49.440  1.00  0.00    -0.248 OA
HETATM    5  H   UNL     1      22.056  47.593  49.680  1.00  0.00     0.164 HD
HETATM    6  H   UNL     1      23.442  46.436  50.741  1.00  0.00     0.164 HD
ENDROOT
BRANCH   3   7
HETATM    7  C   UNL     1      25.526  46.602  51.013  1.00  0.00     0.162 C 
BRANCH   7   8
HETATM    8  C   UNL     1      25.667  45.493  52.108  1.00  0.00     0.238 C 
BRANCH   8   9
HETATM    9  N   UNL     1      26.070  44.111  51.587  1.00  0.00    -0.061 N 
HETATM   10  H   UNL     1      26.619  43.713  52.360  1.00  0.00     0.280 HD
HETATM   11  C   UNL     1      26.955  44.018  50.369  1.00  0.00     0.236 C 
HETATM   12  C   UNL     1      26.142  43.233  49.359  1.00  0.00     0.029 C 
HETATM   13  C   UNL     1      25.351  42.275  50.223  1.00  0.00     0.029 C 
HETATM   14  C   UNL     1      24.918  43.141  51.390  1.00  0.00     0.236 C 
ENDBRANCH   8   9
BRANCH   8  15
HETATM   15  C   UNL     1      26.608  45.931  53.229  1.00  0.00    -0.023 A 
HETATM   16  C   UNL     1      27.543  45.007  53.743  1.00  0.00     0.046 A 
HETATM   17  C   UNL     1      28.418  45.371  54.770  1.00  0.00     0.068 A 
HETATM   18  C   UNL     1      28.381  46.670  55.273  1.00  0.00     0.037 A 
HETATM   19  C   UNL     1      27.467  47.597  54.778  1.00  0.00     0.003 A 
HETATM   20  C   UNL     1      26.585  47.231  53.761  1.00  0.00     0.009 A 
BRANCH  17  21
HETATM   21  O   UNL     1      29.356  44.563  55.346  1.00  0.00    -0.356 OA
HETATM   22  C   UNL     1      29.596  43.303  54.731  1.00  0.00     0.210 C 
ENDBRANCH  17  21
ENDBRANCH   8  15
ENDBRANCH   7   8
ENDBRANCH   3   7
BRANCH   1  23
HETATM   23  C   UNL     1      22.279  49.433  48.653  1.00  0.00     0.086 C 
HETATM   24  C   UNL     1      21.092  48.989  47.797  1.00  0.00     0.032 C 
BRANCH  23  25
HETATM   25  C   UNL     1      21.900  50.690  49.464  1.00  0.00     0.063 C 
BRANCH  25  26
HETATM   26  C   UNL     1      20.423  51.008  49.423  1.00  0.00    -0.056 A 
HETATM   27  C   UNL     1      19.938  52.024  48.586  1.00  0.00     0.010 A 
HETATM   28  C   UNL     1      18.572  52.314  48.540  1.00  0.00     0.037 A 
HETATM   29  C   UNL     1      17.693  51.596  49.343  1.00  0.00     0.065 A 
HETATM   30  C   UNL     1      18.156  50.593  50.186  1.00  0.00     0.037 A 
HETATM   31  C   UNL     1      19.518  50.294  50.222  1.00  0.00     0.010 A 
BRANCH  29  32
HETATM   32  O   UNL     1      16.354  51.844  49.329  1.00  0.00    -0.361 OA
HETATM   33  H   UNL     1      16.170  52.590  49.926  1.00  0.00     0.217 HD
ENDBRANCH  29  32
ENDBRANCH  25  26
ENDBRANCH  23  25
ENDBRANCH   1  23
TORSDOF 9
ENDMDL
MODEL 3
REMARK VINA RESULT:      -8.3      1.605      2.387
REMARK  9 active torsions:
REMARK  status: ('A' for Active; 'I' for Inactive)
REMARK    1  A    between atoms: C_2  and  N_3 
REMARK    2  A    between atoms: C_2  and  C_23 
REMARK       I    between atoms: N_3  and  C_4 
REMARK       I    between atoms: C_4  and  N_5 
REMARK    3  A    between atoms: N_5  and  C_6 
REMARK    4  A    between atoms: C_6  and  C_7 
REMARK    5  A    between atoms: C_7  and  N_8 
REMARK    6  A    between atoms: C_7  and  C_14 
REMARK    7  A    between atoms: C_16  and  O_17 
REMARK    8  A    between atoms: C_23  and  C_24 
REMARK    9  A    between atoms: C_27  and  O_28 
ROOT
HETATM    1  N   UNL     1      27.194  42.629  53.821  1.00  0.00    -0.339 N 
HETATM    2  C   UNL     1      26.794  43.583  52.935  1.00  0.00     0.316 C 
HETATM    3  N   UNL     1      25.431  43.748  52.927  1.00  0.00    -0.341 N 
HETATM    4  O   UNL     1      27.529  44.163  52.147  1.00  0.00    -0.248 OA
HETATM    5  H   UNL     1      26.582  42.398  54.589  1.00  0.00     0.164 HD
HETATM    6  H   UNL     1      24.977  43.482  53.790  1.00  0.00     0.164 HD
ENDROOT
BRANCH   3   7
HETATM    7  C   UNL     1      24.841  44.867  52.207  1.00  0.00     0.162 C 
BRANCH   7   8
HETATM    8  C   UNL     1      24.965  44.874  50.647  1.00  0.00     0.238 C 
BRANCH   8   9
HETATM    9  N   UNL     1      23.877  44.095  49.904  1.00  0.00    -0.061 N 
HETATM   10  H   UNL     1      23.015  44.604  50.135  1.00  0.00     0.280 HD
HETATM   11  C   UNL     1      23.617  42.659  50.283  1.00  0.00     0.236 C 
HETATM   12  C   UNL     1      23.870  41.871  49.014  1.00  0.00     0.029 C 
HETATM   13  C   UNL     1      23.425  42.821  47.923  1.00  0.00     0.029 C 
HETATM   14  C   UNL     1      23.968  44.158  48.388  1.00  0.00     0.236 C 
ENDBRANCH   8   9
BRANCH   8  15
HETATM   15  C   UNL     1      25.062  46.298  50.101  1.00  0.00    -0.023 A 
HETATM   16  C   UNL     1      26.333  46.896  49.961  1.00  0.00     0.046 A 
HETATM   17  C   UNL     1      26.462  48.197  49.468  1.00  0.00     0.068 A 
HETATM   18  C   UNL     1      25.320  48.901  49.086  1.00  0.00     0.037 A 
HETATM   19  C   UNL     1      24.058  48.327  49.215  1.00  0.00     0.003 A 
HETATM   20  C   UNL     1      23.928  47.033  49.719  1.00  0.00     0.009 A 
BRANCH  17  21
HETATM   21  O   UNL     1      27.634  48.876  49.295  1.00  0.00    -0.356 OA
HETATM   22  C   UNL     1      27.558  50.162  48.694  1.00  0.00     0.210 C 
ENDBRANCH  17  21
ENDBRANCH   8  15
ENDBRANCH   7   8
ENDBRANCH   3   7
BRANCH   1  23
HETATM   23  C   UNL     1      28.592  42.216  53.945  1.00  0.00     0.086 C 
HETATM   24  C   UNL     1      28.946  41.198  52.858  1.00  0.00     0.032 C 
BRANCH  23  25
HETATM   25  C   UNL     1      29.545  43.427  53.861  1.00  0.00     0.063 C 
BRANCH  25  26
HETATM   26  C   UNL     1      30.068  43.874  55.208  1.00  0.00    -0.056 A 
HETATM   27  C   UNL     1      29.637  45.084  55.771  1.00  0.00     0.010 A 
HETATM   28  C   UNL     1      30.113  45.495  57.020  1.00  0.00     0.037 A 
HETATM   29  C   UNL     1      31.030  44.700  57.697  1.00  0.00     0.065 A 
HETATM   30  C   UNL     1      31.476  43.503  57.150  1.00  0.00     0.037 A 
HETATM   31  C   UNL     1      30.991  43.086  55.911  1.00  0.00     0.010 A 
BRANCH  29  32
HETATM   32  O   UNL     1      31.519  45.061  58.916  1.00  0.00    -0.361 OA
HETATM   33  H   UNL     1      31.031  45.842  59.227  1.00  0.00     0.217 HD
ENDBRANCH  29  32
ENDBRANCH  25  26
ENDBRANCH  23  25
ENDBRANCH   1  23
TORSDOF 9
ENDMDL
MODEL 4
REMARK VINA RESULT:      -8.2      2.713      9.767
REMARK  9 active torsions:
REMARK  status: ('A' for Active; 'I' for Inactive)
REMARK    1  A    between atoms: C_2  and  N_3 
REMARK    2  A    between atoms: C_2  and  C_23 
REMARK       I    between atoms: N_3  and  C_4 
REMARK       I    between atoms: C_4  and  N_5 
REMARK    3  A    between atoms: N_5  and  C_6 
REMARK    4  A    between atoms: C_6  and  C_7 
REMARK    5  A    between atoms: C_7  and  N_8 
REMARK    6  A    between atoms: C_7  and  C_14 
REMARK    7  A    between atoms: C_16  and  O_17 
REMARK    8  A    between atoms: C_23  and  C_24 
REMARK    9  A    between atoms: C_27  and  O_28 
ROOT
HETATM    1  N   UNL     1      22.738  48.308  49.467  1.00  0.00    -0.339 N 
HETATM    2  C   UNL     1      24.038  48.072  49.798  1.00  0.00     0.316 C 
HETATM    3  N   UNL     1      24.165  47.083  50.742  1.00  0.00    -0.341 N 
HETATM    4  O   UNL     1      24.994  48.726  49.400  1.00  0.00    -0.248 OA
HETATM    5  H   UNL     1      22.060  47.580  49.632  1.00  0.00     0.164 HD
HETATM    6  H   UNL     1      23.398  46.424  50.755  1.00  0.00     0.164 HD
ENDROOT
BRANCH   3   7
HETATM    7  C   UNL     1      25.481  46.546  51.056  1.00  0.00     0.162 C 
BRANCH   7   8
HETATM    8  C   UNL     1      25.546  45.239  51.914  1.00  0.00     0.238 C 
BRANCH   8   9
HETATM    9  N   UNL     1      25.788  43.951  51.121  1.00  0.00    -0.061 N 
HETATM   10  H   UNL     1      26.577  43.512  51.611  1.00  0.00     0.280 HD
HETATM   11  C   UNL     1      26.209  44.050  49.677  1.00  0.00     0.236 C 
HETATM   12  C   UNL     1      25.124  43.324  48.907  1.00  0.00     0.029 C 
HETATM   13  C   UNL     1      24.700  42.226  49.860  1.00  0.00     0.029 C 
HETATM   14  C   UNL     1      24.665  42.931  51.202  1.00  0.00     0.236 C 
ENDBRANCH   8   9
BRANCH   8  15
HETATM   15  C   UNL     1      26.566  45.363  53.045  1.00  0.00    -0.023 A 
HETATM   16  C   UNL     1      26.469  46.448  53.942  1.00  0.00     0.046 A 
HETATM   17  C   UNL     1      27.385  46.597  54.987  1.00  0.00     0.068 A 
HETATM   18  C   UNL     1      28.390  45.646  55.157  1.00  0.00     0.037 A 
HETATM   19  C   UNL     1      28.501  44.567  54.283  1.00  0.00     0.003 A 
HETATM   20  C   UNL     1      27.595  44.425  53.232  1.00  0.00     0.009 A 
BRANCH  17  21
HETATM   21  O   UNL     1      27.392  47.604  55.909  1.00  0.00    -0.356 OA
HETATM   22  C   UNL     1      26.385  48.601  55.790  1.00  0.00     0.210 C 
ENDBRANCH  17  21
ENDBRANCH   8  15
ENDBRANCH   7   8
ENDBRANCH   3   7
BRANCH   1  23
HETATM   23  C   UNL     1      22.347  49.377  48.548  1.00  0.00     0.086 C 
HETATM   24  C   UNL     1      21.143  48.946  47.708  1.00  0.00     0.032 C 
BRANCH  23  25
HETATM   25  C   UNL     1      22.017  50.679  49.309  1.00  0.00     0.063 C 
BRANCH  25  26
HETATM   26  C   UNL     1      20.536  50.973  49.381  1.00  0.00    -0.056 A 
HETATM   27  C   UNL     1      19.972  51.983  48.589  1.00  0.00     0.010 A 
HETATM   28  C   UNL     1      18.602  52.250  48.648  1.00  0.00     0.037 A 
HETATM   29  C   UNL     1      17.799  51.515  49.512  1.00  0.00     0.065 A 
HETATM   30  C   UNL     1      18.341  50.516  50.312  1.00  0.00     0.037 A 
HETATM   31  C   UNL     1      19.706  50.240  50.243  1.00  0.00     0.010 A 
BRANCH  29  32
HETATM   32  O   UNL     1      16.458  51.740  49.601  1.00  0.00    -0.361 OA
HETATM   33  H   UNL     1      16.216  51.802  50.541  1.00  0.00     0.217 HD
ENDBRANCH  29  32
ENDBRANCH  25  26
ENDBRANCH  23  25
ENDBRANCH   1  23
TORSDOF 9
ENDMDL
MODEL 5
REMARK VINA RESULT:      -7.9      2.230      9.603
REMARK  9 active torsions:
REMARK  status: ('A' for Active; 'I' for Inactive)
REMARK    1  A    between atoms: C_2  and  N_3 
REMARK    2  A    between atoms: C_2  and  C_23 
REMARK       I    between atoms: N_3  and  C_4 
REMARK       I    between atoms: C_4  and  N_5 
REMARK    3  A    between atoms: N_5  and  C_6 
REMARK    4  A    between atoms: C_6  and  C_7 
REMARK    5  A    between atoms: C_7  and  N_8 
REMARK    6  A    between atoms: C_7  and  C_14 
REMARK    7  A    between atoms: C_16  and  O_17 
REMARK    8  A    between atoms: C_23  and  C_24 
REMARK    9  A    between atoms: C_27  and  O_28 
ROOT
HETATM    1  N   UNL     1      23.758  47.043  49.696  1.00  0.00    -0.339 N 
HETATM    2  C   UNL     1      24.909  46.899  50.410  1.00  0.00     0.316 C 
HETATM    3  N   UNL     1      25.236  45.581  50.611  1.00  0.00    -0.341 N 
HETATM    4  O   UNL     1      25.539  47.816  50.921  1.00  0.00    -0.248 OA
HETATM    5  H   UNL     1      23.456  46.280  49.110  1.00  0.00     0.164 HD
HETATM    6  H   UNL     1      24.863  44.951  49.913  1.00  0.00     0.164 HD
ENDROOT
BRANCH   3   7
HETATM    7  C   UNL     1      26.538  45.233  51.161  1.00  0.00     0.162 C 
BRANCH   7   8
HETATM    8  C   UNL     1      26.721  43.790  51.739  1.00  0.00     0.238 C 
BRANCH   8   9
HETATM    9  N   UNL     1      26.814  42.677  50.693  1.00  0.00    -0.061 N 
HETATM   10  H   UNL     1      27.778  42.335  50.790  1.00  0.00     0.280 HD
HETATM   11  C   UNL     1      26.650  43.026  49.235  1.00  0.00     0.236 C 
HETATM   12  C   UNL     1      25.460  42.209  48.773  1.00  0.00     0.029 C 
HETATM   13  C   UNL     1      25.568  40.945  49.599  1.00  0.00     0.029 C 
HETATM   14  C   UNL     1      25.944  41.463  50.973  1.00  0.00     0.236 C 
ENDBRANCH   8   9
BRANCH   8  15
HETATM   15  C   UNL     1      27.910  43.719  52.695  1.00  0.00    -0.023 A 
HETATM   16  C   UNL     1      27.916  44.533  53.848  1.00  0.00     0.046 A 
HETATM   17  C   UNL     1      28.987  44.497  54.745  1.00  0.00     0.068 A 
HETATM   18  C   UNL     1      30.050  43.626  54.508  1.00  0.00     0.037 A 
HETATM   19  C   UNL     1      30.062  42.814  53.376  1.00  0.00     0.003 A 
HETATM   20  C   UNL     1      28.998  42.859  52.475  1.00  0.00     0.009 A 
BRANCH  17  21
HETATM   21  O   UNL     1      29.103  45.239  55.885  1.00  0.00    -0.356 OA
HETATM   22  C   UNL     1      30.356  45.209  56.556  1.00  0.00     0.210 C 
ENDBRANCH  17  21
ENDBRANCH   8  15
ENDBRANCH   7   8
ENDBRANCH   3   7
BRANCH   1  23
HETATM   23  C   UNL     1      23.161  48.353  49.432  1.00  0.00     0.086 C 
HETATM   24  C   UNL     1      24.101  49.204  48.575  1.00  0.00     0.032 C 
BRANCH  23  25
HETATM   25  C   UNL     1      21.793  48.216  48.732  1.00  0.00     0.063 C 
BRANCH  25  26
HETATM   26  C   UNL     1      20.837  49.342  49.056  1.00  0.00    -0.056 A 
HETATM   27  C   UNL     1      19.808  49.154  49.990  1.00  0.00     0.010 A 
HETATM   28  C   UNL     1      18.929  50.196  50.298  1.00  0.00     0.037 A 
HETATM   29  C   UNL     1      19.073  51.422  49.660  1.00  0.00     0.065 A 
HETATM   30  C   UNL     1      20.080  51.624  48.724  1.00  0.00     0.037 A 
HETATM   31  C   UNL     1      20.966  50.589  48.427  1.00  0.00     0.010 A 
BRANCH  29  32
HETATM   32  O   UNL     1      18.240  52.465  49.930  1.00  0.00    -0.361 OA
HETATM   33  H   UNL     1      17.697  52.236  50.703  1.00  0.00     0.217 HD
ENDBRANCH  29  32
ENDBRANCH  25  26
ENDBRANCH  23  25
ENDBRANCH   1  23
TORSDOF 9
ENDMDL
MODEL 6
REMARK VINA RESULT:      -7.7      4.461      8.851
REMARK  9 active torsions:
REMARK  status: ('A' for Active; 'I' for Inactive)
REMARK    1  A    between atoms: C_2  and  N_3 
REMARK    2  A    between atoms: C_2  and  C_23 
REMARK       I    between atoms: N_3  and  C_4 
REMARK       I    between atoms: C_4  and  N_5 
REMARK    3  A    between atoms: N_5  and  C_6 
REMARK    4  A    between atoms: C_6  and  C_7 
REMARK    5  A    between atoms: C_7  and  N_8 
REMARK    6  A    between atoms: C_7  and  C_14 
REMARK    7  A    between atoms: C_16  and  O_17 
REMARK    8  A    between atoms: C_23  and  C_24 
REMARK    9  A    between atoms: C_27  and  O_28 
ROOT
HETATM    1  N   UNL     1      28.705  39.531  50.708  1.00  0.00    -0.339 N 
HETATM    2  C   UNL     1      28.025  40.680  50.977  1.00  0.00     0.316 C 
HETATM    3  N   UNL     1      27.667  40.777  52.298  1.00  0.00    -0.341 N 
HETATM    4  O   UNL     1      27.665  41.496  50.138  1.00  0.00    -0.248 OA
HETATM    5  H   UNL     1      29.174  39.060  51.467  1.00  0.00     0.164 HD
HETATM    6  H   UNL     1      28.260  40.253  52.927  1.00  0.00     0.164 HD
ENDROOT
BRANCH   3   7
HETATM    7  C   UNL     1      27.129  42.028  52.813  1.00  0.00     0.162 C 
BRANCH   7   8
HETATM    8  C   UNL     1      27.930  43.339  52.518  1.00  0.00     0.238 C 
BRANCH   8   9
HETATM    9  N   UNL     1      27.086  44.529  52.056  1.00  0.00    -0.061 N 
HETATM   10  H   UNL     1      27.483  45.322  52.574  1.00  0.00     0.280 HD
HETATM   11  C   UNL     1      25.609  44.541  52.363  1.00  0.00     0.236 C 
HETATM   12  C   UNL     1      24.934  44.612  51.007  1.00  0.00     0.029 C 
HETATM   13  C   UNL     1      25.896  45.443  50.185  1.00  0.00     0.029 C 
HETATM   14  C   UNL     1      27.252  44.901  50.592  1.00  0.00     0.236 C 
ENDBRANCH   8   9
BRANCH   8  15
HETATM   15  C   UNL     1      28.803  43.740  53.707  1.00  0.00    -0.023 A 
HETATM   16  C   UNL     1      28.448  44.873  54.470  1.00  0.00     0.046 A 
HETATM   17  C   UNL     1      29.222  45.271  55.563  1.00  0.00     0.068 A 
HETATM   18  C   UNL     1      30.343  44.523  55.917  1.00  0.00     0.037 A 
HETATM   19  C   UNL     1      30.709  43.401  55.177  1.00  0.00     0.003 A 
HETATM   20  C   UNL     1      29.944  43.010  54.079  1.00  0.00     0.009 A 
BRANCH  17  21
HETATM   21  O   UNL     1      28.979  46.348  56.366  1.00  0.00    -0.356 OA
HETATM   22  C   UNL     1      28.977  46.125  57.771  1.00  0.00     0.210 C 
ENDBRANCH  17  21
ENDBRANCH   8  15
ENDBRANCH   7   8
ENDBRANCH   3   7
BRANCH   1  23
HETATM   23  C   UNL     1      29.115  39.165  49.352  1.00  0.00     0.086 C 
HETATM   24  C   UNL     1      30.161  38.049  49.393  1.00  0.00     0.032 C 
BRANCH  23  25
HETATM   25  C   UNL     1      27.907  38.720  48.501  1.00  0.00     0.063 C 
BRANCH  25  26
HETATM   26  C   UNL     1      27.995  39.159  47.057  1.00  0.00    -0.056 A 
HETATM   27  C   UNL     1      27.945  40.520  46.723  1.00  0.00     0.010 A 
HETATM   28  C   UNL     1      28.035  40.927  45.389  1.00  0.00     0.037 A 
HETATM   29  C   UNL     1      28.161  39.971  44.390  1.00  0.00     0.065 A 
HETATM   30  C   UNL     1      28.203  38.617  44.700  1.00  0.00     0.037 A 
HETATM   31  C   UNL     1      28.127  38.211  46.032  1.00  0.00     0.010 A 
BRANCH  29  32
HETATM   32  O   UNL     1      28.253  40.323  43.077  1.00  0.00    -0.361 OA
HETATM   33  H   UNL     1      29.191  40.325  42.821  1.00  0.00     0.217 HD
ENDBRANCH  29  32
ENDBRANCH  25  26
ENDBRANCH  23  25
ENDBRANCH   1  23
TORSDOF 9
ENDMDL
MODEL 7
REMARK VINA RESULT:      -7.7      2.076      4.160
REMARK  9 active torsions:
REMARK  status: ('A' for Active; 'I' for Inactive)
REMARK    1  A    between atoms: C_2  and  N_3 
REMARK    2  A    between atoms: C_2  and  C_23 
REMARK       I    between atoms: N_3  and  C_4 
REMARK       I    between atoms: C_4  and  N_5 
REMARK    3  A    between atoms: N_5  and  C_6 
REMARK    4  A    between atoms: C_6  and  C_7 
REMARK    5  A    between atoms: C_7  and  N_8 
REMARK    6  A    between atoms: C_7  and  C_14 
REMARK    7  A    between atoms: C_16  and  O_17 
REMARK    8  A    between atoms: C_23  and  C_24 
REMARK    9  A    between atoms: C_27  and  O_28 
ROOT
HETATM    1  N   UNL     1      26.461  46.602  53.146  1.00  0.00    -0.339 N 
HETATM    2  C   UNL     1      25.908  46.283  51.942  1.00  0.00     0.316 C 
HETATM    3  N   UNL     1      25.602  47.395  51.199  1.00  0.00    -0.341 N 
HETATM    4  O   UNL     1      25.607  45.151  51.585  1.00  0.00    -0.248 OA
HETATM    5  H   UNL     1      26.902  47.503  53.250  1.00  0.00     0.164 HD
HETATM    6  H   UNL     1      26.158  48.209  51.423  1.00  0.00     0.164 HD
ENDROOT
BRANCH   3   7
HETATM    7  C   UNL     1      25.209  47.249  49.805  1.00  0.00     0.162 C 
BRANCH   7   8
HETATM    8  C   UNL     1      23.679  47.276  49.474  1.00  0.00     0.238 C 
BRANCH   8   9
HETATM    9  N   UNL     1      23.221  48.450  48.605  1.00  0.00    -0.061 N 
HETATM   10  H   UNL     1      22.949  48.003  47.721  1.00  0.00     0.280 HD
HETATM   11  C   UNL     1      24.220  49.517  48.231  1.00  0.00     0.236 C 
HETATM   12  C   UNL     1      23.643  50.800  48.794  1.00  0.00     0.029 C 
HETATM   13  C   UNL     1      22.149  50.594  48.663  1.00  0.00     0.029 C 
HETATM   14  C   UNL     1      21.963  49.151  49.089  1.00  0.00     0.236 C 
ENDBRANCH   8   9
BRANCH   8  15
HETATM   15  C   UNL     1      23.216  45.954  48.865  1.00  0.00    -0.023 A 
HETATM   16  C   UNL     1      21.844  45.767  48.588  1.00  0.00     0.046 A 
HETATM   17  C   UNL     1      21.382  44.571  48.033  1.00  0.00     0.068 A 
HETATM   18  C   UNL     1      22.294  43.562  47.727  1.00  0.00     0.037 A 
HETATM   19  C   UNL     1      23.651  43.728  47.990  1.00  0.00     0.003 A 
HETATM   20  C   UNL     1      24.111  44.917  48.556  1.00  0.00     0.009 A 
BRANCH  17  21
HETATM   21  O   UNL     1      20.084  44.278  47.730  1.00  0.00    -0.356 OA
HETATM   22  C   UNL     1      19.095  45.222  48.120  1.00  0.00     0.210 C 
ENDBRANCH  17  21
ENDBRANCH   8  15
ENDBRANCH   7   8
ENDBRANCH   3   7
BRANCH   1  23
HETATM   23  C   UNL     1      26.789  45.587  54.148  1.00  0.00     0.086 C 
HETATM   24  C   UNL     1      25.581  44.686  54.411  1.00  0.00     0.032 C 
BRANCH  23  25
HETATM   25  C   UNL     1      27.995  44.731  53.705  1.00  0.00     0.063 C 
BRANCH  25  26
HETATM   26  C   UNL     1      29.035  44.553  54.788  1.00  0.00    -0.056 A 
HETATM   27  C   UNL     1      29.196  45.526  55.786  1.00  0.00     0.010 A 
HETATM   28  C   UNL     1      30.151  45.358  56.792  1.00  0.00     0.037 A 
HETATM   29  C   UNL     1      30.953  44.224  56.792  1.00  0.00     0.065 A 
HETATM   30  C   UNL     1      30.814  43.254  55.807  1.00  0.00     0.037 A 
HETATM   31  C   UNL     1      29.852  43.413  54.810  1.00  0.00     0.010 A 
BRANCH  29  32
HETATM   32  O   UNL     1      31.895  44.019  57.755  1.00  0.00    -0.361 OA
HETATM   33  H   UNL     1      31.557  43.360  58.385  1.00  0.00     0.217 HD
ENDBRANCH  29  32
ENDBRANCH  25  26
ENDBRANCH  23  25
ENDBRANCH   1  23
TORSDOF 9
ENDMDL
MODEL 8
REMARK VINA RESULT:      -7.7      2.428      8.605
REMARK  9 active torsions:
REMARK  status: ('A' for Active; 'I' for Inactive)
REMARK    1  A    between atoms: C_2  and  N_3 
REMARK    2  A    between atoms: C_2  and  C_23 
REMARK       I    between atoms: N_3  and  C_4 
REMARK       I    between atoms: C_4  and  N_5 
REMARK    3  A    between atoms: N_5  and  C_6 
REMARK    4  A    between atoms: C_6  and  C_7 
REMARK    5  A    between atoms: C_7  and  N_8 
REMARK    6  A    between atoms: C_7  and  C_14 
REMARK    7  A    between atoms: C_16  and  O_17 
REMARK    8  A    between atoms: C_23  and  C_24 
REMARK    9  A    between atoms: C_27  and  O_28 
ROOT
HETATM    1  N   UNL     1      26.549  45.484  50.428  1.00  0.00    -0.339 N 
HETATM    2  C   UNL     1      26.037  44.224  50.515  1.00  0.00     0.316 C 
HETATM    3  N   UNL     1      26.912  43.273  50.054  1.00  0.00    -0.341 N 
HETATM    4  O   UNL     1      24.892  43.953  50.855  1.00  0.00    -0.248 OA
HETATM    5  H   UNL     1      27.551  45.594  50.389  1.00  0.00     0.164 HD
HETATM    6  H   UNL     1      27.885  43.545  50.106  1.00  0.00     0.164 HD
ENDROOT
BRANCH   3   7
HETATM    7  C   UNL     1      26.628  41.862  50.270  1.00  0.00     0.162 C 
BRANCH   7   8
HETATM    8  C   UNL     1      27.646  41.038  51.127  1.00  0.00     0.238 C 
BRANCH   8   9
HETATM    9  N   UNL     1      28.775  40.373  50.335  1.00  0.00    -0.061 N 
HETATM   10  H   UNL     1      29.607  40.913  50.602  1.00  0.00     0.280 HD
HETATM   11  C   UNL     1      28.731  40.409  48.828  1.00  0.00     0.236 C 
HETATM   12  C   UNL     1      28.713  38.953  48.406  1.00  0.00     0.029 C 
HETATM   13  C   UNL     1      29.552  38.276  49.469  1.00  0.00     0.029 C 
HETATM   14  C   UNL     1      29.091  38.945  50.749  1.00  0.00     0.236 C 
ENDBRANCH   8   9
BRANCH   8  15
HETATM   15  C   UNL     1      28.223  41.875  52.267  1.00  0.00    -0.023 A 
HETATM   16  C   UNL     1      27.342  42.578  53.118  1.00  0.00     0.046 A 
HETATM   17  C   UNL     1      27.832  43.356  54.170  1.00  0.00     0.068 A 
HETATM   18  C   UNL     1      29.207  43.417  54.395  1.00  0.00     0.037 A 
HETATM   19  C   UNL     1      30.092  42.730  53.567  1.00  0.00     0.003 A 
HETATM   20  C   UNL     1      29.604  41.963  52.509  1.00  0.00     0.009 A 
BRANCH  17  21
HETATM   21  O   UNL     1      27.079  44.079  55.050  1.00  0.00    -0.356 OA
HETATM   22  C   UNL     1      25.674  43.858  55.038  1.00  0.00     0.210 C 
ENDBRANCH  17  21
ENDBRANCH   8  15
ENDBRANCH   7   8
ENDBRANCH   3   7
BRANCH   1  23
HETATM   23  C   UNL     1      25.767  46.671  50.776  1.00  0.00     0.086 C 
HETATM   24  C   UNL     1      26.005  47.055  52.238  1.00  0.00     0.032 C 
BRANCH  23  25
HETATM   25  C   UNL     1      26.113  47.861  49.857  1.00  0.00     0.063 C 
BRANCH  25  26
HETATM   26  C   UNL     1      24.897  48.530  49.257  1.00  0.00    -0.056 A 
HETATM   27  C   UNL     1      23.615  48.007  49.480  1.00  0.00     0.010 A 
HETATM   28  C   UNL     1      22.490  48.629  48.934  1.00  0.00     0.037 A 
HETATM   29  C   UNL     1      22.650  49.767  48.153  1.00  0.00     0.065 A 
HETATM   30  C   UNL     1      23.912  50.295  47.912  1.00  0.00     0.037 A 
HETATM   31  C   UNL     1      25.035  49.682  48.469  1.00  0.00     0.010 A 
BRANCH  29  32
HETATM   32  O   UNL     1      21.580  50.406  47.601  1.00  0.00    -0.361 OA
HETATM   33  H   UNL     1      21.837  51.322  47.399  1.00  0.00     0.217 HD
ENDBRANCH  29  32
ENDBRANCH  25  26
ENDBRANCH  23  25
ENDBRANCH   1  23
TORSDOF 9
ENDMDL
MODEL 9
REMARK VINA RESULT:      -7.6      3.060      5.071
REMARK  9 active torsions:
REMARK  status: ('A' for Active; 'I' for Inactive)
REMARK    1  A    between atoms: C_2  and  N_3 
REMARK    2  A    between atoms: C_2  and  C_23 
REMARK       I    between atoms: N_3  and  C_4 
REMARK       I    between atoms: C_4  and  N_5 
REMARK    3  A    between atoms: N_5  and  C_6 
REMARK    4  A    between atoms: C_6  and  C_7 
REMARK    5  A    between atoms: C_7  and  N_8 
REMARK    6  A    between atoms: C_7  and  C_14 
REMARK    7  A    between atoms: C_16  and  O_17 
REMARK    8  A    between atoms: C_23  and  C_24 
REMARK    9  A    between atoms: C_27  and  O_28 
ROOT
HETATM    1  N   UNL     1      24.196  47.314  50.656  1.00  0.00    -0.339 N 
HETATM    2  C   UNL     1      23.718  46.653  49.565  1.00  0.00     0.316 C 
HETATM    3  N   UNL     1      22.471  47.092  49.195  1.00  0.00    -0.341 N 
HETATM    4  O   UNL     1      24.264  45.699  49.026  1.00  0.00    -0.248 OA
HETATM    5  H   UNL     1      23.820  48.225  50.870  1.00  0.00     0.164 HD
HETATM    6  H   UNL     1      22.267  48.042  49.476  1.00  0.00     0.164 HD
ENDROOT
BRANCH   3   7
HETATM    7  C   UNL     1      21.896  46.658  47.930  1.00  0.00     0.162 C 
BRANCH   7   8
HETATM    8  C   UNL     1      20.698  47.484  47.355  1.00  0.00     0.238 C 
BRANCH   8   9
HETATM    9  N   UNL     1      19.343  46.773  47.385  1.00  0.00    -0.061 N 
HETATM   10  H   UNL     1      18.780  47.352  48.021  1.00  0.00     0.280 HD
HETATM   11  C   UNL     1      19.265  45.371  47.934  1.00  0.00     0.236 C 
HETATM   12  C   UNL     1      18.732  44.535  46.787  1.00  0.00     0.029 C 
HETATM   13  C   UNL     1      17.805  45.490  46.065  1.00  0.00     0.029 C 
HETATM   14  C   UNL     1      18.582  46.792  46.069  1.00  0.00     0.236 C 
ENDBRANCH   8   9
BRANCH   8  15
HETATM   15  C   UNL     1      20.591  48.854  48.025  1.00  0.00    -0.023 A 
HETATM   16  C   UNL     1      19.504  49.115  48.887  1.00  0.00     0.046 A 
HETATM   17  C   UNL     1      19.371  50.355  49.516  1.00  0.00     0.068 A 
HETATM   18  C   UNL     1      20.340  51.336  49.307  1.00  0.00     0.037 A 
HETATM   19  C   UNL     1      21.420  51.097  48.461  1.00  0.00     0.003 A 
HETATM   20  C   UNL     1      21.546  49.863  47.824  1.00  0.00     0.009 A 
BRANCH  17  21
HETATM   21  O   UNL     1      18.364  50.721  50.362  1.00  0.00    -0.356 OA
HETATM   22  C   UNL     1      17.249  51.396  49.793  1.00  0.00     0.210 C 
ENDBRANCH  17  21
ENDBRANCH   8  15
ENDBRANCH   7   8
ENDBRANCH   3   7
BRANCH   1  23
HETATM   23  C   UNL     1      25.467  46.960  51.289  1.00  0.00     0.086 C 
HETATM   24  C   UNL     1      26.621  47.720  50.630  1.00  0.00     0.032 C 
BRANCH  23  25
HETATM   25  C   UNL     1      25.442  47.254  52.803  1.00  0.00     0.063 C 
BRANCH  25  26
HETATM   26  C   UNL     1      26.588  46.619  53.558  1.00  0.00    -0.056 A 
HETATM   27  C   UNL     1      26.901  45.265  53.368  1.00  0.00     0.010 A 
HETATM   28  C   UNL     1      27.966  44.679  54.058  1.00  0.00     0.037 A 
HETATM   29  C   UNL     1      28.708  45.446  54.947  1.00  0.00     0.065 A 
HETATM   30  C   UNL     1      28.408  46.787  55.156  1.00  0.00     0.037 A 
HETATM   31  C   UNL     1      27.354  47.375  54.457  1.00  0.00     0.010 A 
BRANCH  29  32
HETATM   32  O   UNL     1      29.755  44.917  55.640  1.00  0.00    -0.361 OA
HETATM   33  H   UNL     1      29.726  45.252  56.552  1.00  0.00     0.217 HD
ENDBRANCH  29  32
ENDBRANCH  25  26
ENDBRANCH  23  25
ENDBRANCH   1  23
TORSDOF 9
ENDMDL
MODEL 10
REMARK VINA RESULT:      -7.5      2.569      9.392
REMARK  9 active torsions:
REMARK  status: ('A' for Active; 'I' for Inactive)
REMARK    1  A    between atoms: C_2  and  N_3 
REMARK    2  A    between atoms: C_2  and  C_23 
REMARK       I    between atoms: N_3  and  C_4 
REMARK       I    between atoms: C_4  and  N_5 
REMARK    3  A    between atoms: N_5  and  C_6 
REMARK    4  A    between atoms: C_6  and  C_7 
REMARK    5  A    between atoms: C_7  and  N_8 
REMARK    6  A    between atoms: C_7  and  C_14 
REMARK    7  A    between atoms: C_16  and  O_17 
REMARK    8  A    between atoms: C_23  and  C_24 
REMARK    9  A    between atoms: C_27  and  O_28 
ROOT
HETATM    1  N   UNL     1      24.822  46.619  51.001  1.00  0.00    -0.339 N 
HETATM    2  C   UNL     1      25.499  46.660  52.182  1.00  0.00     0.316 C 
HETATM    3  N   UNL     1      25.475  45.454  52.838  1.00  0.00    -0.341 N 
HETATM    4  O   UNL     1      25.986  47.667  52.679  1.00  0.00    -0.248 OA
HETATM    5  H   UNL     1      24.684  45.724  50.556  1.00  0.00     0.164 HD
HETATM    6  H   UNL     1      25.346  44.655  52.232  1.00  0.00     0.164 HD
ENDROOT
BRANCH   3   7
HETATM    7  C   UNL     1      26.323  45.247  54.003  1.00  0.00     0.162 C 
BRANCH   7   8
HETATM    8  C   UNL     1      27.763  44.681  53.763  1.00  0.00     0.238 C 
BRANCH   8   9
HETATM    9  N   UNL     1      28.573  44.401  55.031  1.00  0.00    -0.061 N 
HETATM   10  H   UNL     1      28.049  43.647  55.490  1.00  0.00     0.280 HD
HETATM   11  C   UNL     1      28.712  45.490  56.065  1.00  0.00     0.236 C 
HETATM   12  C   UNL     1      30.204  45.731  56.175  1.00  0.00     0.029 C 
HETATM   13  C   UNL     1      30.794  44.358  55.933  1.00  0.00     0.029 C 
HETATM   14  C   UNL     1      29.957  43.821  54.790  1.00  0.00     0.236 C 
ENDBRANCH   8   9
BRANCH   8  15
HETATM   15  C   UNL     1      27.733  43.441  52.870  1.00  0.00    -0.023 A 
HETATM   16  C   UNL     1      27.635  43.603  51.471  1.00  0.00     0.046 A 
HETATM   17  C   UNL     1      27.603  42.493  50.623  1.00  0.00     0.068 A 
HETATM   18  C   UNL     1      27.695  41.213  51.166  1.00  0.00     0.037 A 
HETATM   19  C   UNL     1      27.793  41.033  52.544  1.00  0.00     0.003 A 
HETATM   20  C   UNL     1      27.813  42.140  53.392  1.00  0.00     0.009 A 
BRANCH  17  21
HETATM   21  O   UNL     1      27.506  42.528  49.261  1.00  0.00    -0.356 OA
HETATM   22  C   UNL     1      27.292  41.292  48.592  1.00  0.00     0.210 C 
ENDBRANCH  17  21
ENDBRANCH   8  15
ENDBRANCH   7   8
ENDBRANCH   3   7
BRANCH   1  23
HETATM   23  C   UNL     1      24.635  47.806  50.166  1.00  0.00     0.086 C 
HETATM   24  C   UNL     1      25.940  48.168  49.453  1.00  0.00     0.032 C 
BRANCH  23  25
HETATM   25  C   UNL     1      23.512  47.593  49.131  1.00  0.00     0.063 C 
BRANCH  25  26
HETATM   26  C   UNL     1      22.601  48.791  48.977  1.00  0.00    -0.056 A 
HETATM   27  C   UNL     1      23.137  50.063  48.729  1.00  0.00     0.010 A 
HETATM   28  C   UNL     1      22.296  51.169  48.578  1.00  0.00     0.037 A 
HETATM   29  C   UNL     1      20.921  51.003  48.688  1.00  0.00     0.065 A 
HETATM   30  C   UNL     1      20.372  49.752  48.942  1.00  0.00     0.037 A 
HETATM   31  C   UNL     1      21.210  48.645  49.079  1.00  0.00     0.010 A 
BRANCH  29  32
HETATM   32  O   UNL     1      20.065  52.053  48.546  1.00  0.00    -0.361 OA
HETATM   33  H   UNL     1      20.535  52.871  48.783  1.00  0.00     0.217 HD
ENDBRANCH  29  32
ENDBRANCH  25  26
ENDBRANCH  23  25
ENDBRANCH   1  23
TORSDOF 9
ENDMDL
