MODEL 1
REMARK VINA RESULT:     -10.2      0.000      0.000
REMARK  4 active torsions:
REMARK  status: ('A' for Active; 'I' for Inactive)
REMARK    1  A    between atoms: C_3  and  C_4 
REMARK    2  A    between atoms: C_5  and  C_6 
REMARK       I    between atoms: C_6  and  N_7 
REMARK    3  A    between atoms: N_7  and  C_8 
REMARK    4  A    between atoms: C_15  and  C_16 
REMARK       I    between atoms: C_16  and  N_17 
ROOT
HETATM    1  C   UNL     1      25.813  47.498  50.489  1.00  0.00     0.035 A 
HETATM    2  C   UNL     1      24.520  47.740  50.007  1.00  0.00     0.046 A 
HETATM    3  C   UNL     1      24.318  48.713  49.003  1.00  0.00     0.030 A 
HETATM    4  C   UNL     1      25.416  49.410  48.515  1.00  0.00     0.063 A 
HETATM    5  N   UNL     1      24.913  50.270  47.579  1.00  0.00    -0.277 N 
HETATM    6  H   UNL     1      25.429  50.938  47.020  1.00  0.00     0.189 HD
HETATM    7  N   UNL     1      23.583  50.191  47.409  1.00  0.00    -0.168 NA
HETATM    8  C   UNL     1      23.200  49.231  48.283  1.00  0.00     0.156 A 
HETATM    9  C   UNL     1      26.719  49.191  48.966  1.00  0.00     0.034 A 
HETATM   10  C   UNL     1      26.892  48.219  49.960  1.00  0.00     0.032 A 
ENDROOT
BRANCH   1  11
HETATM   11  N   UNL     1      26.111  46.560  51.503  1.00  0.00    -0.327 N 
HETATM   12  C   UNL     1      25.979  46.730  52.865  1.00  0.00     0.227 C 
HETATM   13  O   UNL     1      25.552  47.719  53.442  1.00  0.00    -0.273 OA
HETATM   14  H   UNL     1      26.507  45.686  51.190  1.00  0.00     0.169 HD
BRANCH  12  15
HETATM   15  C   UNL     1      26.443  45.594  53.716  1.00  0.00     0.087 A 
HETATM   16  C   UNL     1      27.677  44.796  53.305  1.00  0.00     0.034 A 
HETATM   17  C   UNL     1      26.320  44.135  53.388  1.00  0.00     0.025 A 
BRANCH  16  18
HETATM   18  C   UNL     1      28.760  44.557  54.340  1.00  0.00    -0.031 A 
HETATM   19  C   UNL     1      28.973  45.517  55.350  1.00  0.00     0.009 A 
HETATM   20  C   UNL     1      29.972  45.365  56.315  1.00  0.00     0.001 A 
HETATM   21  C   UNL     1      30.794  44.244  56.292  1.00  0.00     0.002 A 
HETATM   22  C   UNL     1      30.620  43.283  55.298  1.00  0.00     0.024 A 
HETATM   23  C   UNL     1      29.622  43.443  54.330  1.00  0.00     0.040 A 
HETATM   24 CL   UNL     1      29.505  42.232  53.099  1.00  0.00    -0.084 Cl
ENDBRANCH  16  18
ENDBRANCH  12  15
ENDBRANCH   1  11
BRANCH   8  25
HETATM   25  C   UNL     1      21.790  48.835  48.407  1.00  0.00     0.270 C 
HETATM   26  N   UNL     1      21.225  49.153  49.612  1.00  0.00    -0.365 N 
HETATM   27  H   UNL     1      21.792  49.626  50.305  1.00  0.00     0.159 HD
HETATM   28  H   UNL     1      20.259  48.925  49.784  1.00  0.00     0.159 HD
HETATM   29  O   UNL     1      21.142  48.270  47.533  1.00  0.00    -0.266 OA
ENDBRANCH   8  25
TORSDOF 4
ENDMDL
MODEL 2
REMARK VINA RESULT:     -10.1      1.771      2.452
REMARK  4 active torsions:
REMARK  status: ('A' for Active; 'I' for Inactive)
REMARK    1  A    between atoms: C_3  and  C_4 
REMARK    2  A    between atoms: C_5  and  C_6 
REMARK       I    between atoms: C_6  and  N_7 
REMARK    3  A    between atoms: N_7  and  C_8 
REMARK    4  A    between atoms: C_15  and  C_16 
REMARK       I    between atoms: C_16  and  N_17 
ROOT
HETATM    1  C   UNL     1      25.144  46.424  50.981  1.00  0.00     0.035 A 
HETATM    2  C   UNL     1      24.771  47.569  50.265  1.00  0.00     0.046 A 
HETATM    3  C   UNL     1      23.786  47.475  49.257  1.00  0.00     0.030 A 
HETATM    4  C   UNL     1      23.207  46.239  49.001  1.00  0.00     0.063 A 
HETATM    5  N   UNL     1      22.315  46.460  47.989  1.00  0.00    -0.277 N 
HETATM    6  H   UNL     1      21.712  45.779  47.542  1.00  0.00     0.189 HD
HETATM    7  N   UNL     1      22.256  47.734  47.566  1.00  0.00    -0.168 NA
HETATM    8  C   UNL     1      23.161  48.375  48.342  1.00  0.00     0.156 A 
HETATM    9  C   UNL     1      23.547  45.078  49.698  1.00  0.00     0.034 A 
HETATM   10  C   UNL     1      24.524  45.199  50.694  1.00  0.00     0.032 A 
ENDROOT
BRANCH   1  11
HETATM   11  N   UNL     1      26.130  46.415  51.992  1.00  0.00    -0.327 N 
HETATM   12  C   UNL     1      26.154  47.171  53.145  1.00  0.00     0.227 C 
HETATM   13  O   UNL     1      25.307  47.969  53.515  1.00  0.00    -0.273 OA
HETATM   14  H   UNL     1      26.927  45.819  51.823  1.00  0.00     0.169 HD
BRANCH  12  15
HETATM   15  C   UNL     1      27.364  47.016  54.006  1.00  0.00     0.087 A 
HETATM   16  C   UNL     1      27.383  45.951  55.099  1.00  0.00     0.034 A 
HETATM   17  C   UNL     1      27.482  47.419  55.447  1.00  0.00     0.025 A 
BRANCH  16  18
HETATM   18  C   UNL     1      28.576  45.018  55.177  1.00  0.00    -0.031 A 
HETATM   19  C   UNL     1      29.649  45.339  56.034  1.00  0.00     0.009 A 
HETATM   20  C   UNL     1      30.785  44.533  56.129  1.00  0.00     0.001 A 
HETATM   21  C   UNL     1      30.884  43.379  55.360  1.00  0.00     0.002 A 
HETATM   22  C   UNL     1      29.849  43.040  54.491  1.00  0.00     0.024 A 
HETATM   23  C   UNL     1      28.714  43.855  54.395  1.00  0.00     0.040 A 
HETATM   24 CL   UNL     1      27.498  43.393  53.255  1.00  0.00    -0.084 Cl
ENDBRANCH  16  18
ENDBRANCH  12  15
ENDBRANCH   1  11
BRANCH   8  25
HETATM   25  C   UNL     1      23.404  49.816  48.194  1.00  0.00     0.270 C 
HETATM   26  N   UNL     1      22.862  50.580  49.192  1.00  0.00    -0.365 N 
HETATM   27  H   UNL     1      22.356  50.117  49.936  1.00  0.00     0.159 HD
HETATM   28  H   UNL     1      22.984  51.580  49.175  1.00  0.00     0.159 HD
HETATM   29  O   UNL     1      24.033  50.329  47.274  1.00  0.00    -0.266 OA
ENDBRANCH   8  25
TORSDOF 4
ENDMDL
MODEL 3
REMARK VINA RESULT:     -10.0      2.701      3.962
REMARK  4 active torsions:
REMARK  status: ('A' for Active; 'I' for Inactive)
REMARK    1  A    between atoms: C_3  and  C_4 
REMARK    2  A    between atoms: C_5  and  C_6 
REMARK       I    between atoms: C_6  and  N_7 
REMARK    3  A    between atoms: N_7  and  C_8 
REMARK    4  A    between atoms: C_15  and  C_16 
REMARK       I    between atoms: C_16  and  N_17 
ROOT
HETATM    1  C   UNL     1      25.801  43.667  51.367  1.00  0.00     0.035 A 
HETATM    2  C   UNL     1      25.505  44.994  51.028  1.00  0.00     0.046 A 
HETATM    3  C   UNL     1      24.434  45.270  50.149  1.00  0.00     0.030 A 
HETATM    4  C   UNL     1      23.696  44.210  49.639  1.00  0.00     0.063 A 
HETATM    5  N   UNL     1      22.754  44.780  48.830  1.00  0.00    -0.277 N 
HETATM    6  H   UNL     1      22.041  44.304  48.288  1.00  0.00     0.189 HD
HETATM    7  N   UNL     1      22.808  46.120  48.771  1.00  0.00    -0.168 NA
HETATM    8  C   UNL     1      23.843  46.439  49.583  1.00  0.00     0.156 A 
HETATM    9  C   UNL     1      23.957  42.876  49.960  1.00  0.00     0.034 A 
HETATM   10  C   UNL     1      25.022  42.630  50.836  1.00  0.00     0.032 A 
ENDROOT
BRANCH   1  11
HETATM   11  N   UNL     1      26.862  43.293  52.221  1.00  0.00    -0.327 N 
HETATM   12  C   UNL     1      26.908  43.401  53.595  1.00  0.00     0.227 C 
HETATM   13  O   UNL     1      26.023  43.817  54.327  1.00  0.00    -0.273 OA
HETATM   14  H   UNL     1      27.694  42.949  51.764  1.00  0.00     0.169 HD
BRANCH  12  15
HETATM   15  C   UNL     1      28.191  42.996  54.242  1.00  0.00     0.087 A 
HETATM   16  C   UNL     1      29.371  43.964  54.252  1.00  0.00     0.034 A 
HETATM   17  C   UNL     1      29.465  42.637  53.534  1.00  0.00     0.025 A 
BRANCH  16  18
HETATM   18  C   UNL     1      30.079  44.226  55.567  1.00  0.00    -0.031 A 
HETATM   19  C   UNL     1      31.042  43.304  56.028  1.00  0.00     0.009 A 
HETATM   20  C   UNL     1      31.709  43.477  57.243  1.00  0.00     0.001 A 
HETATM   21  C   UNL     1      31.424  44.581  58.040  1.00  0.00     0.002 A 
HETATM   22  C   UNL     1      30.467  45.502  57.622  1.00  0.00     0.024 A 
HETATM   23  C   UNL     1      29.797  45.322  56.406  1.00  0.00     0.040 A 
HETATM   24 CL   UNL     1      28.586  46.483  55.984  1.00  0.00    -0.084 Cl
ENDBRANCH  16  18
ENDBRANCH  12  15
ENDBRANCH   1  11
BRANCH   8  25
HETATM   25  C   UNL     1      24.238  47.838  49.797  1.00  0.00     0.270 C 
HETATM   26  N   UNL     1      23.195  48.724  49.770  1.00  0.00    -0.365 N 
HETATM   27  H   UNL     1      22.260  48.368  49.616  1.00  0.00     0.159 HD
HETATM   28  H   UNL     1      23.371  49.705  49.914  1.00  0.00     0.159 HD
HETATM   29  O   UNL     1      25.388  48.220  49.988  1.00  0.00    -0.266 OA
ENDBRANCH   8  25
TORSDOF 4
ENDMDL
MODEL 4
REMARK VINA RESULT:      -9.6      2.874      3.785
REMARK  4 active torsions:
REMARK  status: ('A' for Active; 'I' for Inactive)
REMARK    1  A    between atoms: C_3  and  C_4 
REMARK    2  A    between atoms: C_5  and  C_6 
REMARK       I    between atoms: C_6  and  N_7 
REMARK    3  A    between atoms: N_7  and  C_8 
REMARK    4  A    between atoms: C_15  and  C_16 
REMARK       I    between atoms: C_16  and  N_17 
ROOT
HETATM    1  C   UNL     1      25.901  45.350  51.956  1.00  0.00     0.035 A 
HETATM    2  C   UNL     1      25.158  44.650  50.996  1.00  0.00     0.046 A 
HETATM    3  C   UNL     1      24.321  45.359  50.105  1.00  0.00     0.030 A 
HETATM    4  C   UNL     1      24.258  46.743  50.204  1.00  0.00     0.063 A 
HETATM    5  N   UNL     1      23.377  47.135  49.234  1.00  0.00    -0.277 N 
HETATM    6  H   UNL     1      23.084  48.081  49.018  1.00  0.00     0.189 HD
HETATM    7  N   UNL     1      22.865  46.129  48.507  1.00  0.00    -0.168 NA
HETATM    8  C   UNL     1      23.440  45.023  49.034  1.00  0.00     0.156 A 
HETATM    9  C   UNL     1      24.989  47.474  51.142  1.00  0.00     0.034 A 
HETATM   10  C   UNL     1      25.813  46.748  52.012  1.00  0.00     0.032 A 
ENDROOT
BRANCH   1  11
HETATM   11  N   UNL     1      26.748  44.729  52.900  1.00  0.00    -0.327 N 
HETATM   12  C   UNL     1      27.814  43.892  52.644  1.00  0.00     0.227 C 
HETATM   13  O   UNL     1      28.237  43.557  51.548  1.00  0.00    -0.273 OA
HETATM   14  H   UNL     1      26.514  44.884  53.869  1.00  0.00     0.169 HD
BRANCH  12  15
HETATM   15  C   UNL     1      28.494  43.311  53.841  1.00  0.00     0.087 A 
HETATM   16  C   UNL     1      29.960  43.639  54.111  1.00  0.00     0.034 A 
HETATM   17  C   UNL     1      29.523  42.219  53.831  1.00  0.00     0.025 A 
BRANCH  16  18
HETATM   18  C   UNL     1      30.351  44.107  55.500  1.00  0.00    -0.031 A 
HETATM   19  C   UNL     1      31.137  43.268  56.315  1.00  0.00     0.009 A 
HETATM   20  C   UNL     1      31.507  43.632  57.612  1.00  0.00     0.001 A 
HETATM   21  C   UNL     1      31.092  44.852  58.135  1.00  0.00     0.002 A 
HETATM   22  C   UNL     1      30.301  45.699  57.362  1.00  0.00     0.024 A 
HETATM   23  C   UNL     1      29.928  45.326  56.064  1.00  0.00     0.040 A 
HETATM   24 CL   UNL     1      28.901  46.410  55.189  1.00  0.00    -0.084 Cl
ENDBRANCH  16  18
ENDBRANCH  12  15
ENDBRANCH   1  11
BRANCH   8  25
HETATM   25  C   UNL     1      23.139  43.685  48.506  1.00  0.00     0.270 C 
HETATM   26  N   UNL     1      23.817  43.370  47.359  1.00  0.00    -0.365 N 
HETATM   27  H   UNL     1      24.458  44.052  46.972  1.00  0.00     0.159 HD
HETATM   28  H   UNL     1      23.677  42.470  46.929  1.00  0.00     0.159 HD
HETATM   29  O   UNL     1      22.357  42.890  49.017  1.00  0.00    -0.266 OA
ENDBRANCH   8  25
TORSDOF 4
ENDMDL
MODEL 5
REMARK VINA RESULT:      -9.2      2.262      3.114
REMARK  4 active torsions:
REMARK  status: ('A' for Active; 'I' for Inactive)
REMARK    1  A    between atoms: C_3  and  C_4 
REMARK    2  A    between atoms: C_5  and  C_6 
REMARK       I    between atoms: C_6  and  N_7 
REMARK    3  A    between atoms: N_7  and  C_8 
REMARK    4  A    between atoms: C_15  and  C_16 
REMARK       I    between atoms: C_16  and  N_17 
ROOT
HETATM    1  C   UNL     1      24.477  45.007  50.166  1.00  0.00     0.035 A 
HETATM    2  C   UNL     1      24.508  46.386  49.923  1.00  0.00     0.046 A 
HETATM    3  C   UNL     1      23.543  46.968  49.071  1.00  0.00     0.030 A 
HETATM    4  C   UNL     1      22.579  46.152  48.495  1.00  0.00     0.063 A 
HETATM    5  N   UNL     1      21.808  46.984  47.733  1.00  0.00    -0.277 N 
HETATM    6  H   UNL     1      21.009  46.730  47.164  1.00  0.00     0.189 HD
HETATM    7  N   UNL     1      22.180  48.274  47.766  1.00  0.00    -0.168 NA
HETATM    8  C   UNL     1      23.252  48.281  48.592  1.00  0.00     0.156 A 
HETATM    9  C   UNL     1      22.513  44.775  48.719  1.00  0.00     0.034 A 
HETATM   10  C   UNL     1      23.480  44.223  49.569  1.00  0.00     0.032 A 
ENDROOT
BRANCH   1  11
HETATM   11  N   UNL     1      25.409  44.332  50.985  1.00  0.00    -0.327 N 
HETATM   12  C   UNL     1      25.437  44.292  52.364  1.00  0.00     0.227 C 
HETATM   13  O   UNL     1      24.639  44.812  53.128  1.00  0.00    -0.273 OA
HETATM   14  H   UNL     1      26.163  43.867  50.502  1.00  0.00     0.169 HD
BRANCH  12  15
HETATM   15  C   UNL     1      26.587  43.562  52.976  1.00  0.00     0.087 A 
HETATM   16  C   UNL     1      28.008  44.077  52.766  1.00  0.00     0.034 A 
HETATM   17  C   UNL     1      27.592  42.721  52.244  1.00  0.00     0.025 A 
BRANCH  16  18
HETATM   18  C   UNL     1      28.904  44.239  53.979  1.00  0.00    -0.031 A 
HETATM   19  C   UNL     1      29.853  43.239  54.274  1.00  0.00     0.009 A 
HETATM   20  C   UNL     1      30.688  43.318  55.391  1.00  0.00     0.001 A 
HETATM   21  C   UNL     1      30.591  44.405  56.253  1.00  0.00     0.002 A 
HETATM   22  C   UNL     1      29.653  45.403  56.000  1.00  0.00     0.024 A 
HETATM   23  C   UNL     1      28.815  45.316  54.882  1.00  0.00     0.040 A 
HETATM   24 CL   UNL     1      27.641  46.569  54.667  1.00  0.00    -0.084 Cl
ENDBRANCH  16  18
ENDBRANCH  12  15
ENDBRANCH   1  11
BRANCH   8  25
HETATM   25  C   UNL     1      23.966  49.528  48.901  1.00  0.00     0.270 C 
HETATM   26  N   UNL     1      25.233  49.589  48.387  1.00  0.00    -0.365 N 
HETATM   27  H   UNL     1      25.575  48.804  47.846  1.00  0.00     0.159 HD
HETATM   28  H   UNL     1      25.795  50.410  48.543  1.00  0.00     0.159 HD
HETATM   29  O   UNL     1      23.504  50.456  49.556  1.00  0.00    -0.266 OA
ENDBRANCH   8  25
TORSDOF 4
ENDMDL
MODEL 6
REMARK VINA RESULT:      -8.9      4.292      5.262
REMARK  4 active torsions:
REMARK  status: ('A' for Active; 'I' for Inactive)
REMARK    1  A    between atoms: C_3  and  C_4 
REMARK    2  A    between atoms: C_5  and  C_6 
REMARK       I    between atoms: C_6  and  N_7 
REMARK    3  A    between atoms: N_7  and  C_8 
REMARK    4  A    between atoms: C_15  and  C_16 
REMARK       I    between atoms: C_16  and  N_17 
ROOT
HETATM    1  C   UNL     1      27.276  41.991  50.668  1.00  0.00     0.035 A 
HETATM    2  C   UNL     1      26.036  42.641  50.617  1.00  0.00     0.046 A 
HETATM    3  C   UNL     1      25.253  42.564  49.444  1.00  0.00     0.030 A 
HETATM    4  C   UNL     1      25.737  41.840  48.362  1.00  0.00     0.063 A 
HETATM    5  N   UNL     1      24.780  41.955  47.393  1.00  0.00    -0.277 N 
HETATM    6  H   UNL     1      24.798  41.554  46.462  1.00  0.00     0.189 HD
HETATM    7  N   UNL     1      23.711  42.685  47.748  1.00  0.00    -0.168 NA
HETATM    8  C   UNL     1      23.988  43.069  49.016  1.00  0.00     0.156 A 
HETATM    9  C   UNL     1      26.963  41.174  48.378  1.00  0.00     0.034 A 
HETATM   10  C   UNL     1      27.719  41.263  49.554  1.00  0.00     0.032 A 
ENDROOT
BRANCH   1  11
HETATM   11  N   UNL     1      28.137  42.026  51.787  1.00  0.00    -0.327 N 
HETATM   12  C   UNL     1      27.899  42.623  53.007  1.00  0.00     0.227 C 
HETATM   13  O   UNL     1      26.884  43.210  53.350  1.00  0.00    -0.273 OA
HETATM   14  H   UNL     1      29.044  41.603  51.657  1.00  0.00     0.169 HD
BRANCH  12  15
HETATM   15  C   UNL     1      29.020  42.573  53.992  1.00  0.00     0.087 A 
HETATM   16  C   UNL     1      29.946  43.776  54.146  1.00  0.00     0.034 A 
HETATM   17  C   UNL     1      30.479  42.445  53.666  1.00  0.00     0.025 A 
BRANCH  16  18
HETATM   18  C   UNL     1      30.220  44.303  55.542  1.00  0.00    -0.031 A 
HETATM   19  C   UNL     1      31.123  43.611  56.376  1.00  0.00     0.009 A 
HETATM   20  C   UNL     1      31.395  44.032  57.679  1.00  0.00     0.001 A 
HETATM   21  C   UNL     1      30.764  45.160  58.191  1.00  0.00     0.002 A 
HETATM   22  C   UNL     1      29.855  45.858  57.399  1.00  0.00     0.024 A 
HETATM   23  C   UNL     1      29.580  45.429  56.095  1.00  0.00     0.040 A 
HETATM   24 CL   UNL     1      28.400  46.319  55.195  1.00  0.00    -0.084 Cl
ENDBRANCH  16  18
ENDBRANCH  12  15
ENDBRANCH   1  11
BRANCH   8  25
HETATM   25  C   UNL     1      23.048  43.900  49.782  1.00  0.00     0.270 C 
HETATM   26  N   UNL     1      22.800  45.124  49.222  1.00  0.00    -0.365 N 
HETATM   27  H   UNL     1      23.259  45.361  48.351  1.00  0.00     0.159 HD
HETATM   28  H   UNL     1      22.163  45.759  49.675  1.00  0.00     0.159 HD
HETATM   29  O   UNL     1      22.511  43.564  50.832  1.00  0.00    -0.266 OA
ENDBRANCH   8  25
TORSDOF 4
ENDMDL
MODEL 7
REMARK VINA RESULT:      -8.8      2.326      2.903
REMARK  4 active torsions:
REMARK  status: ('A' for Active; 'I' for Inactive)
REMARK    1  A    between atoms: C_3  and  C_4 
REMARK    2  A    between atoms: C_5  and  C_6 
REMARK       I    between atoms: C_6  and  N_7 
REMARK    3  A    between atoms: N_7  and  C_8 
REMARK    4  A    between atoms: C_15  and  C_16 
REMARK       I    between atoms: C_16  and  N_17 
ROOT
HETATM    1  C   UNL     1      24.874  44.659  50.492  1.00  0.00     0.035 A 
HETATM    2  C   UNL     1      24.551  46.010  50.308  1.00  0.00     0.046 A 
HETATM    3  C   UNL     1      23.666  46.383  49.272  1.00  0.00     0.030 A 
HETATM    4  C   UNL     1      23.134  45.394  48.457  1.00  0.00     0.063 A 
HETATM    5  N   UNL     1      22.337  46.052  47.562  1.00  0.00    -0.277 N 
HETATM    6  H   UNL     1      21.791  45.644  46.811  1.00  0.00     0.189 HD
HETATM    7  N   UNL     1      22.297  47.384  47.725  1.00  0.00    -0.168 NA
HETATM    8  C   UNL     1      23.115  47.605  48.781  1.00  0.00     0.156 A 
HETATM    9  C   UNL     1      23.427  44.037  48.613  1.00  0.00     0.034 A 
HETATM   10  C   UNL     1      24.305  43.693  49.649  1.00  0.00     0.032 A 
ENDROOT
BRANCH   1  11
HETATM   11  N   UNL     1      25.762  44.191  51.485  1.00  0.00    -0.327 N 
HETATM   12  C   UNL     1      25.538  44.129  52.845  1.00  0.00     0.227 C 
HETATM   13  O   UNL     1      24.516  44.444  53.435  1.00  0.00    -0.273 OA
HETATM   14  H   UNL     1      26.677  43.914  51.162  1.00  0.00     0.169 HD
BRANCH  12  15
HETATM   15  C   UNL     1      26.686  43.659  53.678  1.00  0.00     0.087 A 
HETATM   16  C   UNL     1      28.029  44.378  53.588  1.00  0.00     0.034 A 
HETATM   17  C   UNL     1      27.899  42.928  53.181  1.00  0.00     0.025 A 
BRANCH  16  18
HETATM   18  C   UNL     1      28.709  44.800  54.877  1.00  0.00    -0.031 A 
HETATM   19  C   UNL     1      28.133  45.823  55.658  1.00  0.00     0.009 A 
HETATM   20  C   UNL     1      28.726  46.272  56.840  1.00  0.00     0.001 A 
HETATM   21  C   UNL     1      29.923  45.712  57.273  1.00  0.00     0.002 A 
HETATM   22  C   UNL     1      30.527  44.710  56.517  1.00  0.00     0.024 A 
HETATM   23  C   UNL     1      29.931  44.267  55.329  1.00  0.00     0.040 A 
HETATM   24 CL   UNL     1      30.771  43.057  54.421  1.00  0.00    -0.084 Cl
ENDBRANCH  16  18
ENDBRANCH  12  15
ENDBRANCH   1  11
BRANCH   8  25
HETATM   25  C   UNL     1      23.346  48.963  49.291  1.00  0.00     0.270 C 
HETATM   26  N   UNL     1      22.239  49.551  49.840  1.00  0.00    -0.365 N 
HETATM   27  H   UNL     1      21.372  49.029  49.860  1.00  0.00     0.159 HD
HETATM   28  H   UNL     1      22.306  50.481  50.221  1.00  0.00     0.159 HD
HETATM   29  O   UNL     1      24.421  49.553  49.250  1.00  0.00    -0.266 OA
ENDBRANCH   8  25
TORSDOF 4
ENDMDL
MODEL 8
REMARK VINA RESULT:      -8.8      3.676      8.833
REMARK  4 active torsions:
REMARK  status: ('A' for Active; 'I' for Inactive)
REMARK    1  A    between atoms: C_3  and  C_4 
REMARK    2  A    between atoms: C_5  and  C_6 
REMARK       I    between atoms: C_6  and  N_7 
REMARK    3  A    between atoms: N_7  and  C_8 
REMARK    4  A    between atoms: C_15  and  C_16 
REMARK       I    between atoms: C_16  and  N_17 
ROOT
HETATM    1  C   UNL     1      27.396  44.157  52.050  1.00  0.00     0.035 A 
HETATM    2  C   UNL     1      27.799  44.790  53.234  1.00  0.00     0.046 A 
HETATM    3  C   UNL     1      28.836  44.227  54.010  1.00  0.00     0.030 A 
HETATM    4  C   UNL     1      29.436  43.052  53.575  1.00  0.00     0.063 A 
HETATM    5  N   UNL     1      30.379  42.756  54.519  1.00  0.00    -0.277 N 
HETATM    6  H   UNL     1      31.008  41.962  54.530  1.00  0.00     0.189 HD
HETATM    7  N   UNL     1      30.452  43.638  55.530  1.00  0.00    -0.168 NA
HETATM    8  C   UNL     1      29.504  44.555  55.228  1.00  0.00     0.156 A 
HETATM    9  C   UNL     1      29.066  42.398  52.399  1.00  0.00     0.034 A 
HETATM   10  C   UNL     1      28.036  42.977  51.646  1.00  0.00     0.032 A 
ENDROOT
BRANCH   1  11
HETATM   11  N   UNL     1      26.357  44.632  51.220  1.00  0.00    -0.327 N 
HETATM   12  C   UNL     1      26.484  45.314  50.028  1.00  0.00     0.227 C 
HETATM   13  O   UNL     1      27.524  45.606  49.458  1.00  0.00    -0.273 OA
HETATM   14  H   UNL     1      25.419  44.493  51.566  1.00  0.00     0.169 HD
BRANCH  12  15
HETATM   15  C   UNL     1      25.211  45.768  49.392  1.00  0.00     0.087 A 
HETATM   16  C   UNL     1      24.364  46.837  50.076  1.00  0.00     0.034 A 
HETATM   17  C   UNL     1      23.823  45.442  49.860  1.00  0.00     0.025 A 
BRANCH  16  18
HETATM   18  C   UNL     1      23.897  48.023  49.254  1.00  0.00    -0.031 A 
HETATM   19  C   UNL     1      22.548  48.094  48.850  1.00  0.00     0.009 A 
HETATM   20  C   UNL     1      22.065  49.148  48.071  1.00  0.00     0.001 A 
HETATM   21  C   UNL     1      22.925  50.163  47.665  1.00  0.00     0.002 A 
HETATM   22  C   UNL     1      24.267  50.115  48.034  1.00  0.00     0.024 A 
HETATM   23  C   UNL     1      24.748  49.053  48.811  1.00  0.00     0.040 A 
HETATM   24 CL   UNL     1      26.438  49.040  49.181  1.00  0.00    -0.084 Cl
ENDBRANCH  16  18
ENDBRANCH  12  15
ENDBRANCH   1  11
BRANCH   8  25
HETATM   25  C   UNL     1      29.260  45.712  56.101  1.00  0.00     0.270 C 
HETATM   26  N   UNL     1      28.629  46.757  55.482  1.00  0.00    -0.365 N 
HETATM   27  H   UNL     1      28.378  46.662  54.506  1.00  0.00     0.159 HD
HETATM   28  H   UNL     1      28.416  47.590  56.006  1.00  0.00     0.159 HD
HETATM   29  O   UNL     1      29.578  45.776  57.284  1.00  0.00    -0.266 OA
ENDBRANCH   8  25
TORSDOF 4
ENDMDL
MODEL 9
REMARK VINA RESULT:      -8.5      3.706      9.208
REMARK  4 active torsions:
REMARK  status: ('A' for Active; 'I' for Inactive)
REMARK    1  A    between atoms: C_3  and  C_4 
REMARK    2  A    between atoms: C_5  and  C_6 
REMARK       I    between atoms: C_6  and  N_7 
REMARK    3  A    between atoms: N_7  and  C_8 
REMARK    4  A    between atoms: C_15  and  C_16 
REMARK       I    between atoms: C_16  and  N_17 
ROOT
HETATM    1  C   UNL     1      24.072  46.462  49.965  1.00  0.00     0.035 A 
HETATM    2  C   UNL     1      24.793  46.121  51.117  1.00  0.00     0.046 A 
HETATM    3  C   UNL     1      25.398  44.848  51.214  1.00  0.00     0.030 A 
HETATM    4  C   UNL     1      25.262  43.961  50.154  1.00  0.00     0.063 A 
HETATM    5  N   UNL     1      25.936  42.834  50.537  1.00  0.00    -0.277 N 
HETATM    6  H   UNL     1      26.044  41.975  50.011  1.00  0.00     0.189 HD
HETATM    7  N   UNL     1      26.504  42.910  51.752  1.00  0.00    -0.168 NA
HETATM    8  C   UNL     1      26.181  44.152  52.183  1.00  0.00     0.156 A 
HETATM    9  C   UNL     1      24.559  44.267  48.988  1.00  0.00     0.034 A 
HETATM   10  C   UNL     1      23.970  45.537  48.917  1.00  0.00     0.032 A 
ENDROOT
BRANCH   1  11
HETATM   11  N   UNL     1      23.418  47.700  49.785  1.00  0.00    -0.327 N 
HETATM   12  C   UNL     1      23.933  48.843  49.209  1.00  0.00     0.227 C 
HETATM   13  O   UNL     1      25.045  48.981  48.723  1.00  0.00    -0.273 OA
HETATM   14  H   UNL     1      22.484  47.763  50.163  1.00  0.00     0.169 HD
BRANCH  12  15
HETATM   15  C   UNL     1      23.041  50.041  49.217  1.00  0.00     0.087 A 
HETATM   16  C   UNL     1      21.940  50.171  48.170  1.00  0.00     0.034 A 
HETATM   17  C   UNL     1      23.070  51.172  48.232  1.00  0.00     0.025 A 
BRANCH  16  18
HETATM   18  C   UNL     1      20.535  50.504  48.636  1.00  0.00    -0.031 A 
HETATM   19  C   UNL     1      20.104  51.847  48.622  1.00  0.00     0.009 A 
HETATM   20  C   UNL     1      18.832  52.219  49.064  1.00  0.00     0.001 A 
HETATM   21  C   UNL     1      17.953  51.253  49.541  1.00  0.00     0.002 A 
HETATM   22  C   UNL     1      18.353  49.919  49.583  1.00  0.00     0.024 A 
HETATM   23  C   UNL     1      19.631  49.552  49.145  1.00  0.00     0.040 A 
HETATM   24 CL   UNL     1      20.069  47.884  49.279  1.00  0.00    -0.084 Cl
ENDBRANCH  16  18
ENDBRANCH  12  15
ENDBRANCH   1  11
BRANCH   8  25
HETATM   25  C   UNL     1      26.624  44.639  53.497  1.00  0.00     0.270 C 
HETATM   26  N   UNL     1      25.629  44.701  54.434  1.00  0.00    -0.365 N 
HETATM   27  H   UNL     1      24.695  44.413  54.170  1.00  0.00     0.159 HD
HETATM   28  H   UNL     1      25.842  45.018  55.366  1.00  0.00     0.159 HD
HETATM   29  O   UNL     1      27.773  44.970  53.770  1.00  0.00    -0.266 OA
ENDBRANCH   8  25
TORSDOF 4
ENDMDL
MODEL 10
REMARK VINA RESULT:      -8.5      4.303      8.834
REMARK  4 active torsions:
REMARK  status: ('A' for Active; 'I' for Inactive)
REMARK    1  A    between atoms: C_3  and  C_4 
REMARK    2  A    between atoms: C_5  and  C_6 
REMARK       I    between atoms: C_6  and  N_7 
REMARK    3  A    between atoms: N_7  and  C_8 
REMARK    4  A    between atoms: C_15  and  C_16 
REMARK       I    between atoms: C_16  and  N_17 
ROOT
HETATM    1  C   UNL     1      27.990  43.481  52.712  1.00  0.00     0.035 A 
HETATM    2  C   UNL     1      27.951  44.367  53.797  1.00  0.00     0.046 A 
HETATM    3  C   UNL     1      29.039  44.420  54.696  1.00  0.00     0.030 A 
HETATM    4  C   UNL     1      30.128  43.586  54.480  1.00  0.00     0.063 A 
HETATM    5  N   UNL     1      30.999  43.855  55.499  1.00  0.00    -0.277 N 
HETATM    6  H   UNL     1      31.903  43.427  55.663  1.00  0.00     0.189 HD
HETATM    7  N   UNL     1      30.577  44.796  56.359  1.00  0.00    -0.168 NA
HETATM    8  C   UNL     1      29.365  45.156  55.875  1.00  0.00     0.156 A 
HETATM    9  C   UNL     1      30.205  42.695  53.407  1.00  0.00     0.034 A 
HETATM   10  C   UNL     1      29.114  42.664  52.528  1.00  0.00     0.032 A 
ENDROOT
BRANCH   1  11
HETATM   11  N   UNL     1      26.944  43.343  51.773  1.00  0.00    -0.327 N 
HETATM   12  C   UNL     1      26.820  43.986  50.559  1.00  0.00     0.227 C 
HETATM   13  O   UNL     1      27.610  44.773  50.063  1.00  0.00    -0.273 OA
HETATM   14  H   UNL     1      26.184  42.739  52.047  1.00  0.00     0.169 HD
BRANCH  12  15
HETATM   15  C   UNL     1      25.567  43.709  49.796  1.00  0.00     0.087 A 
HETATM   16  C   UNL     1      24.232  44.231  50.319  1.00  0.00     0.034 A 
HETATM   17  C   UNL     1      24.485  42.746  50.189  1.00  0.00     0.025 A 
BRANCH  16  18
HETATM   18  C   UNL     1      23.327  44.985  49.363  1.00  0.00    -0.031 A 
HETATM   19  C   UNL     1      22.398  44.268  48.581  1.00  0.00     0.009 A 
HETATM   20  C   UNL     1      21.556  44.903  47.665  1.00  0.00     0.001 A 
HETATM   21  C   UNL     1      21.625  46.282  47.500  1.00  0.00     0.002 A 
HETATM   22  C   UNL     1      22.543  47.019  48.245  1.00  0.00     0.024 A 
HETATM   23  C   UNL     1      23.389  46.377  49.158  1.00  0.00     0.040 A 
HETATM   24 CL   UNL     1      24.536  47.356  50.005  1.00  0.00    -0.084 Cl
ENDBRANCH  16  18
ENDBRANCH  12  15
ENDBRANCH   1  11
BRANCH   8  25
HETATM   25  C   UNL     1      28.556  46.185  56.542  1.00  0.00     0.270 C 
HETATM   26  N   UNL     1      28.728  46.239  57.899  1.00  0.00    -0.365 N 
HETATM   27  H   UNL     1      29.379  45.596  58.331  1.00  0.00     0.159 HD
HETATM   28  H   UNL     1      28.217  46.919  58.439  1.00  0.00     0.159 HD
HETATM   29  O   UNL     1      27.784  46.949  55.971  1.00  0.00    -0.266 OA
ENDBRANCH   8  25
TORSDOF 4
ENDMDL
