MODEL 1
REMARK VINA RESULT:      -8.4      0.000      0.000
REMARK  2 active torsions:
REMARK  status: ('A' for Active; 'I' for Inactive)
REMARK    1  A    between atoms: C_3  and  C_4 
REMARK    2  A    between atoms: C_19  and  O_20 
ROOT
HETATM    1  C   UNL     1      27.364  43.795  51.346  1.00  0.00     0.137 C 
HETATM    2  N   UNL     1      27.601  42.986  52.568  1.00  0.00    -0.278 NA
HETATM    3  C   UNL     1      28.453  43.517  53.556  1.00  0.00     0.036 A 
HETATM    4  C   UNL     1      28.129  44.676  54.299  1.00  0.00     0.053 A 
HETATM    5  N   UNL     1      26.971  45.456  54.052  1.00  0.00    -0.356 N 
HETATM    6  C   UNL     1      26.553  45.786  52.781  1.00  0.00     0.041 A 
HETATM    7  C   UNL     1      26.759  45.122  51.632  1.00  0.00     0.056 A 
HETATM    8  C   UNL     1      26.313  46.018  50.551  1.00  0.00     0.251 A 
HETATM    9  O   UNL     1      26.485  45.861  49.358  1.00  0.00    -0.268 OA
HETATM   10  N   UNL     1      25.727  47.112  51.132  1.00  0.00    -0.351 N 
HETATM   11  C   UNL     1      25.822  47.081  52.551  1.00  0.00     0.180 A 
HETATM   12  C   UNL     1      29.631  42.815  53.871  1.00  0.00     0.026 A 
HETATM   13  C   UNL     1      30.486  43.252  54.884  1.00  0.00     0.002 A 
HETATM   14  C   UNL     1      30.165  44.387  55.616  1.00  0.00     0.002 A 
HETATM   15  C   UNL     1      28.994  45.089  55.330  1.00  0.00     0.031 A 
HETATM   16  H   UNL     1      27.946  42.072  52.273  1.00  0.00     0.128 HD
HETATM   17  H   UNL     1      26.833  46.190  54.739  1.00  0.00     0.166 HD
HETATM   18  H   UNL     1      25.384  47.881  50.573  1.00  0.00     0.163 HD
ENDROOT
BRANCH   1  19
HETATM   19  C   UNL     1      26.454  42.930  50.473  1.00  0.00    -0.002 A 
HETATM   20  C   UNL     1      26.932  42.422  49.252  1.00  0.00     0.012 A 
HETATM   21  C   UNL     1      26.103  41.667  48.419  1.00  0.00     0.001 A 
HETATM   22  C   UNL     1      24.783  41.412  48.788  1.00  0.00     0.003 A 
HETATM   23  C   UNL     1      24.293  41.902  49.996  1.00  0.00     0.037 A 
HETATM   24  C   UNL     1      25.125  42.644  50.830  1.00  0.00     0.073 A 
BRANCH  24  25
HETATM   25  O   UNL     1      24.592  43.058  52.023  1.00  0.00    -0.360 OA
HETATM   26  H   UNL     1      23.782  42.523  52.183  1.00  0.00     0.217 HD
ENDBRANCH  24  25
ENDBRANCH   1  19
TORSDOF 2
ENDMDL
MODEL 2
REMARK VINA RESULT:      -8.3      3.243      5.384
REMARK  2 active torsions:
REMARK  status: ('A' for Active; 'I' for Inactive)
REMARK    1  A    between atoms: C_3  and  C_4 
REMARK    2  A    between atoms: C_19  and  O_20 
ROOT
HETATM    1  C   UNL     1      24.520  47.233  50.514  1.00  0.00     0.137 C 
HETATM    2  N   UNL     1      25.668  47.658  51.355  1.00  0.00    -0.278 NA
HETATM    3  C   UNL     1      26.050  46.821  52.422  1.00  0.00     0.036 A 
HETATM    4  C   UNL     1      26.582  45.527  52.222  1.00  0.00     0.053 A 
HETATM    5  N   UNL     1      26.690  44.922  50.944  1.00  0.00    -0.356 N 
HETATM    6  C   UNL     1      25.684  44.982  50.005  1.00  0.00     0.041 A 
HETATM    7  C   UNL     1      24.736  45.921  49.850  1.00  0.00     0.056 A 
HETATM    8  C   UNL     1      23.783  45.387  48.862  1.00  0.00     0.251 A 
HETATM    9  O   UNL     1      22.699  45.855  48.570  1.00  0.00    -0.268 OA
HETATM   10  N   UNL     1      24.300  44.217  48.373  1.00  0.00    -0.351 N 
HETATM   11  C   UNL     1      25.509  43.850  49.028  1.00  0.00     0.180 A 
HETATM   12  C   UNL     1      25.975  47.330  53.731  1.00  0.00     0.026 A 
HETATM   13  C   UNL     1      26.398  46.578  54.827  1.00  0.00     0.002 A 
HETATM   14  C   UNL     1      26.925  45.308  54.630  1.00  0.00     0.002 A 
HETATM   15  C   UNL     1      27.022  44.790  53.338  1.00  0.00     0.031 A 
HETATM   16  H   UNL     1      25.464  48.593  51.708  1.00  0.00     0.128 HD
HETATM   17  H   UNL     1      27.189  44.038  50.964  1.00  0.00     0.166 HD
HETATM   18  H   UNL     1      23.788  43.656  47.707  1.00  0.00     0.163 HD
ENDROOT
BRANCH   1  19
HETATM   19  C   UNL     1      24.339  48.362  49.499  1.00  0.00    -0.002 A 
HETATM   20  C   UNL     1      25.464  48.938  48.884  1.00  0.00     0.012 A 
HETATM   21  C   UNL     1      25.323  50.001  47.988  1.00  0.00     0.001 A 
HETATM   22  C   UNL     1      24.058  50.508  47.696  1.00  0.00     0.003 A 
HETATM   23  C   UNL     1      22.931  49.948  48.292  1.00  0.00     0.037 A 
HETATM   24  C   UNL     1      23.073  48.881  49.175  1.00  0.00     0.073 A 
BRANCH  24  25
HETATM   25  O   UNL     1      21.920  48.350  49.690  1.00  0.00    -0.360 OA
HETATM   26  H   UNL     1      21.991  47.372  49.619  1.00  0.00     0.217 HD
ENDBRANCH  24  25
ENDBRANCH   1  19
TORSDOF 2
ENDMDL
MODEL 3
REMARK VINA RESULT:      -8.3      1.679      1.864
REMARK  2 active torsions:
REMARK  status: ('A' for Active; 'I' for Inactive)
REMARK    1  A    between atoms: C_3  and  C_4 
REMARK    2  A    between atoms: C_19  and  O_20 
ROOT
HETATM    1  C   UNL     1      26.862  44.844  51.678  1.00  0.00     0.137 C 
HETATM    2  N   UNL     1      27.300  43.533  52.219  1.00  0.00    -0.278 NA
HETATM    3  C   UNL     1      28.428  43.511  53.062  1.00  0.00     0.036 A 
HETATM    4  C   UNL     1      28.439  44.122  54.337  1.00  0.00     0.053 A 
HETATM    5  N   UNL     1      27.356  44.888  54.838  1.00  0.00    -0.356 N 
HETATM    6  C   UNL     1      26.675  45.807  54.069  1.00  0.00     0.041 A 
HETATM    7  C   UNL     1      26.507  45.825  52.737  1.00  0.00     0.056 A 
HETATM    8  C   UNL     1      25.914  47.134  52.413  1.00  0.00     0.251 A 
HETATM    9  O   UNL     1      25.763  47.609  51.304  1.00  0.00    -0.268 OA
HETATM   10  N   UNL     1      25.625  47.764  53.594  1.00  0.00    -0.351 N 
HETATM   11  C   UNL     1      26.068  47.019  54.722  1.00  0.00     0.180 A 
HETATM   12  C   UNL     1      29.556  42.778  52.650  1.00  0.00     0.026 A 
HETATM   13  C   UNL     1      30.683  42.662  53.466  1.00  0.00     0.002 A 
HETATM   14  C   UNL     1      30.691  43.259  54.720  1.00  0.00     0.002 A 
HETATM   15  C   UNL     1      29.576  43.977  55.154  1.00  0.00     0.031 A 
HETATM   16  H   UNL     1      27.450  42.906  51.429  1.00  0.00     0.128 HD
HETATM   17  H   UNL     1      27.481  45.166  55.806  1.00  0.00     0.166 HD
HETATM   18  H   UNL     1      25.246  48.701  53.608  1.00  0.00     0.163 HD
ENDROOT
BRANCH   1  19
HETATM   19  C   UNL     1      25.667  44.518  50.780  1.00  0.00    -0.002 A 
HETATM   20  C   UNL     1      25.638  44.989  49.455  1.00  0.00     0.012 A 
HETATM   21  C   UNL     1      24.536  44.741  48.633  1.00  0.00     0.001 A 
HETATM   22  C   UNL     1      23.445  44.025  49.121  1.00  0.00     0.003 A 
HETATM   23  C   UNL     1      23.457  43.546  50.429  1.00  0.00     0.037 A 
HETATM   24  C   UNL     1      24.561  43.784  51.242  1.00  0.00     0.073 A 
BRANCH  24  25
HETATM   25  O   UNL     1      24.526  43.247  52.503  1.00  0.00    -0.360 OA
HETATM   26  H   UNL     1      23.622  42.883  52.641  1.00  0.00     0.217 HD
ENDBRANCH  24  25
ENDBRANCH   1  19
TORSDOF 2
ENDMDL
MODEL 4
REMARK VINA RESULT:      -8.3      6.152      9.391
REMARK  2 active torsions:
REMARK  status: ('A' for Active; 'I' for Inactive)
REMARK    1  A    between atoms: C_3  and  C_4 
REMARK    2  A    between atoms: C_19  and  O_20 
ROOT
HETATM    1  C   UNL     1      21.988  48.891  48.617  1.00  0.00     0.137 C 
HETATM    2  N   UNL     1      21.518  49.757  49.726  1.00  0.00    -0.278 NA
HETATM    3  C   UNL     1      20.173  50.179  49.711  1.00  0.00     0.036 A 
HETATM    4  C   UNL     1      19.092  49.281  49.857  1.00  0.00     0.053 A 
HETATM    5  N   UNL     1      19.257  47.876  49.937  1.00  0.00    -0.356 N 
HETATM    6  C   UNL     1      20.117  47.179  49.116  1.00  0.00     0.041 A 
HETATM    7  C   UNL     1      21.237  47.612  48.515  1.00  0.00     0.056 A 
HETATM    8  C   UNL     1      21.638  46.552  47.575  1.00  0.00     0.251 A 
HETATM    9  O   UNL     1      22.502  46.624  46.722  1.00  0.00    -0.268 OA
HETATM   10  N   UNL     1      20.811  45.479  47.779  1.00  0.00    -0.351 N 
HETATM   11  C   UNL     1      19.795  45.759  48.736  1.00  0.00     0.180 A 
HETATM   12  C   UNL     1      19.907  51.558  49.631  1.00  0.00     0.026 A 
HETATM   13  C   UNL     1      18.600  52.048  49.675  1.00  0.00     0.002 A 
HETATM   14  C   UNL     1      17.538  51.166  49.823  1.00  0.00     0.002 A 
HETATM   15  C   UNL     1      17.782  49.795  49.920  1.00  0.00     0.031 A 
HETATM   16  H   UNL     1      22.132  50.571  49.767  1.00  0.00     0.128 HD
HETATM   17  H   UNL     1      18.392  47.386  50.146  1.00  0.00     0.166 HD
HETATM   18  H   UNL     1      20.882  44.647  47.209  1.00  0.00     0.163 HD
ENDROOT
BRANCH   1  19
HETATM   19  C   UNL     1      23.472  48.659  48.902  1.00  0.00    -0.002 A 
HETATM   20  C   UNL     1      23.860  47.686  49.841  1.00  0.00     0.012 A 
HETATM   21  C   UNL     1      25.209  47.489  50.150  1.00  0.00     0.001 A 
HETATM   22  C   UNL     1      26.189  48.263  49.531  1.00  0.00     0.003 A 
HETATM   23  C   UNL     1      25.825  49.227  48.595  1.00  0.00     0.037 A 
HETATM   24  C   UNL     1      24.482  49.413  48.280  1.00  0.00     0.073 A 
BRANCH  24  25
HETATM   25  O   UNL     1      24.197  50.348  47.319  1.00  0.00    -0.360 OA
HETATM   26  H   UNL     1      24.720  50.115  46.520  1.00  0.00     0.217 HD
ENDBRANCH  24  25
ENDBRANCH   1  19
TORSDOF 2
ENDMDL
MODEL 5
REMARK VINA RESULT:      -8.1      2.905      3.728
REMARK  2 active torsions:
REMARK  status: ('A' for Active; 'I' for Inactive)
REMARK    1  A    between atoms: C_3  and  C_4 
REMARK    2  A    between atoms: C_19  and  O_20 
ROOT
HETATM    1  C   UNL     1      28.185  41.004  50.402  1.00  0.00     0.137 C 
HETATM    2  N   UNL     1      28.265  40.739  51.861  1.00  0.00    -0.278 NA
HETATM    3  C   UNL     1      28.399  41.843  52.726  1.00  0.00     0.036 A 
HETATM    4  C   UNL     1      27.384  42.814  52.884  1.00  0.00     0.053 A 
HETATM    5  N   UNL     1      26.189  42.817  52.122  1.00  0.00    -0.356 N 
HETATM    6  C   UNL     1      26.171  42.582  50.765  1.00  0.00     0.041 A 
HETATM    7  C   UNL     1      27.034  41.866  50.027  1.00  0.00     0.056 A 
HETATM    8  C   UNL     1      26.693  42.130  48.618  1.00  0.00     0.251 A 
HETATM    9  O   UNL     1      27.338  41.807  47.640  1.00  0.00    -0.268 OA
HETATM   10  N   UNL     1      25.545  42.878  48.601  1.00  0.00    -0.351 N 
HETATM   11  C   UNL     1      25.116  43.233  49.911  1.00  0.00     0.180 A 
HETATM   12  C   UNL     1      29.555  41.930  53.523  1.00  0.00     0.026 A 
HETATM   13  C   UNL     1      29.721  42.963  54.448  1.00  0.00     0.002 A 
HETATM   14  C   UNL     1      28.722  43.915  54.606  1.00  0.00     0.002 A 
HETATM   15  C   UNL     1      27.562  43.837  53.836  1.00  0.00     0.031 A 
HETATM   16  H   UNL     1      29.033  40.086  52.016  1.00  0.00     0.128 HD
HETATM   17  H   UNL     1      25.522  43.518  52.432  1.00  0.00     0.166 HD
HETATM   18  H   UNL     1      25.150  43.211  47.733  1.00  0.00     0.163 HD
ENDROOT
BRANCH   1  19
HETATM   19  C   UNL     1      28.096  39.621  49.757  1.00  0.00    -0.002 A 
HETATM   20  C   UNL     1      29.117  39.184  48.894  1.00  0.00     0.012 A 
HETATM   21  C   UNL     1      29.032  37.942  48.258  1.00  0.00     0.001 A 
HETATM   22  C   UNL     1      27.927  37.120  48.470  1.00  0.00     0.003 A 
HETATM   23  C   UNL     1      26.908  37.533  49.325  1.00  0.00     0.037 A 
HETATM   24  C   UNL     1      27.000  38.765  49.967  1.00  0.00     0.073 A 
BRANCH  24  25
HETATM   25  O   UNL     1      25.984  39.090  50.827  1.00  0.00    -0.360 OA
HETATM   26  H   UNL     1      25.796  40.048  50.710  1.00  0.00     0.217 HD
ENDBRANCH  24  25
ENDBRANCH   1  19
TORSDOF 2
ENDMDL
MODEL 6
REMARK VINA RESULT:      -7.8      2.723      4.465
REMARK  2 active torsions:
REMARK  status: ('A' for Active; 'I' for Inactive)
REMARK    1  A    between atoms: C_3  and  C_4 
REMARK    2  A    between atoms: C_19  and  O_20 
ROOT
HETATM    1  C   UNL     1      27.643  44.751  54.261  1.00  0.00     0.137 C 
HETATM    2  N   UNL     1      28.638  45.701  54.819  1.00  0.00    -0.278 NA
HETATM    3  C   UNL     1      29.465  45.250  55.867  1.00  0.00     0.036 A 
HETATM    4  C   UNL     1      30.428  44.230  55.692  1.00  0.00     0.053 A 
HETATM    5  N   UNL     1      30.583  43.509  54.481  1.00  0.00    -0.356 N 
HETATM    6  C   UNL     1      29.511  43.039  53.753  1.00  0.00     0.041 A 
HETATM    7  C   UNL     1      28.260  43.523  53.696  1.00  0.00     0.056 A 
HETATM    8  C   UNL     1      27.463  42.521  52.967  1.00  0.00     0.251 A 
HETATM    9  O   UNL     1      26.253  42.501  52.847  1.00  0.00    -0.268 OA
HETATM   10  N   UNL     1      28.323  41.562  52.501  1.00  0.00    -0.351 N 
HETATM   11  C   UNL     1      29.659  41.780  52.941  1.00  0.00     0.180 A 
HETATM   12  C   UNL     1      29.383  45.902  57.111  1.00  0.00     0.026 A 
HETATM   13  C   UNL     1      30.219  45.548  58.171  1.00  0.00     0.002 A 
HETATM   14  C   UNL     1      31.168  44.549  57.998  1.00  0.00     0.002 A 
HETATM   15  C   UNL     1      31.276  43.901  56.767  1.00  0.00     0.031 A 
HETATM   16  H   UNL     1      28.136  46.538  55.114  1.00  0.00     0.128 HD
HETATM   17  H   UNL     1      31.386  42.888  54.488  1.00  0.00     0.166 HD
HETATM   18  H   UNL     1      27.983  40.751  52.003  1.00  0.00     0.163 HD
ENDROOT
BRANCH   1  19
HETATM   19  C   UNL     1      26.890  45.551  53.198  1.00  0.00    -0.002 A 
HETATM   20  C   UNL     1      27.055  45.236  51.837  1.00  0.00     0.012 A 
HETATM   21  C   UNL     1      26.412  45.984  50.847  1.00  0.00     0.001 A 
HETATM   22  C   UNL     1      25.599  47.060  51.199  1.00  0.00     0.003 A 
HETATM   23  C   UNL     1      25.420  47.385  52.542  1.00  0.00     0.037 A 
HETATM   24  C   UNL     1      26.052  46.631  53.526  1.00  0.00     0.073 A 
BRANCH  24  25
HETATM   25  O   UNL     1      25.797  46.978  54.827  1.00  0.00    -0.360 OA
HETATM   26  H   UNL     1      25.689  47.956  54.854  1.00  0.00     0.217 HD
ENDBRANCH  24  25
ENDBRANCH   1  19
TORSDOF 2
ENDMDL
MODEL 7
REMARK VINA RESULT:      -7.7      2.951      6.406
REMARK  2 active torsions:
REMARK  status: ('A' for Active; 'I' for Inactive)
REMARK    1  A    between atoms: C_3  and  C_4 
REMARK    2  A    between atoms: C_19  and  O_20 
ROOT
HETATM    1  C   UNL     1      28.829  44.527  53.879  1.00  0.00     0.137 C 
HETATM    2  N   UNL     1      27.552  45.190  54.244  1.00  0.00    -0.278 NA
HETATM    3  C   UNL     1      26.612  45.421  53.220  1.00  0.00     0.036 A 
HETATM    4  C   UNL     1      25.956  44.371  52.538  1.00  0.00     0.053 A 
HETATM    5  N   UNL     1      26.252  43.002  52.754  1.00  0.00    -0.356 N 
HETATM    6  C   UNL     1      27.540  42.528  52.868  1.00  0.00     0.041 A 
HETATM    7  C   UNL     1      28.638  43.176  53.289  1.00  0.00     0.056 A 
HETATM    8  C   UNL     1      29.780  42.293  52.991  1.00  0.00     0.251 A 
HETATM    9  O   UNL     1      30.959  42.580  53.063  1.00  0.00    -0.268 OA
HETATM   10  N   UNL     1      29.278  41.100  52.542  1.00  0.00    -0.351 N 
HETATM   11  C   UNL     1      27.860  41.128  52.415  1.00  0.00     0.180 A 
HETATM   12  C   UNL     1      26.254  46.750  52.928  1.00  0.00     0.026 A 
HETATM   13  C   UNL     1      25.283  47.046  51.971  1.00  0.00     0.002 A 
HETATM   14  C   UNL     1      24.635  46.014  51.304  1.00  0.00     0.002 A 
HETATM   15  C   UNL     1      24.964  44.689  51.590  1.00  0.00     0.031 A 
HETATM   16  H   UNL     1      27.781  46.071  54.705  1.00  0.00     0.128 HD
HETATM   17  H   UNL     1      25.619  42.377  52.264  1.00  0.00     0.166 HD
HETATM   18  H   UNL     1      29.890  40.356  52.239  1.00  0.00     0.163 HD
ENDROOT
BRANCH   1  19
HETATM   19  C   UNL     1      29.628  44.471  55.181  1.00  0.00    -0.002 A 
HETATM   20  C   UNL     1      30.327  43.300  55.524  1.00  0.00     0.012 A 
HETATM   21  C   UNL     1      31.027  43.213  56.731  1.00  0.00     0.001 A 
HETATM   22  C   UNL     1      31.035  44.291  57.615  1.00  0.00     0.003 A 
HETATM   23  C   UNL     1      30.352  45.461  57.291  1.00  0.00     0.037 A 
HETATM   24  C   UNL     1      29.667  45.549  56.083  1.00  0.00     0.073 A 
BRANCH  24  25
HETATM   25  O   UNL     1      29.054  46.744  55.808  1.00  0.00    -0.360 OA
HETATM   26  H   UNL     1      29.105  47.293  56.623  1.00  0.00     0.217 HD
ENDBRANCH  24  25
ENDBRANCH   1  19
TORSDOF 2
ENDMDL
MODEL 8
REMARK VINA RESULT:      -7.6      2.563      5.583
REMARK  2 active torsions:
REMARK  status: ('A' for Active; 'I' for Inactive)
REMARK    1  A    between atoms: C_3  and  C_4 
REMARK    2  A    between atoms: C_19  and  O_20 
ROOT
HETATM    1  C   UNL     1      26.437  45.377  50.482  1.00  0.00     0.137 C 
HETATM    2  N   UNL     1      26.509  46.805  50.881  1.00  0.00    -0.278 NA
HETATM    3  C   UNL     1      26.141  47.776  49.928  1.00  0.00     0.036 A 
HETATM    4  C   UNL     1      24.820  47.902  49.441  1.00  0.00     0.053 A 
HETATM    5  N   UNL     1      23.775  47.011  49.794  1.00  0.00    -0.356 N 
HETATM    6  C   UNL     1      23.947  45.645  49.844  1.00  0.00     0.041 A 
HETATM    7  C   UNL     1      25.071  44.950  50.080  1.00  0.00     0.056 A 
HETATM    8  C   UNL     1      24.756  43.541  49.787  1.00  0.00     0.251 A 
HETATM    9  O   UNL     1      25.545  42.619  49.715  1.00  0.00    -0.268 OA
HETATM   10  N   UNL     1      23.412  43.459  49.534  1.00  0.00    -0.351 N 
HETATM   11  C   UNL     1      22.787  44.738  49.537  1.00  0.00     0.180 A 
HETATM   12  C   UNL     1      27.111  48.705  49.511  1.00  0.00     0.026 A 
HETATM   13  C   UNL     1      26.796  49.731  48.619  1.00  0.00     0.002 A 
HETATM   14  C   UNL     1      25.498  49.859  48.144  1.00  0.00     0.002 A 
HETATM   15  C   UNL     1      24.517  48.956  48.557  1.00  0.00     0.031 A 
HETATM   16  H   UNL     1      27.457  46.988  51.209  1.00  0.00     0.128 HD
HETATM   17  H   UNL     1      22.869  47.304  49.443  1.00  0.00     0.166 HD
HETATM   18  H   UNL     1      22.982  42.584  49.268  1.00  0.00     0.163 HD
ENDROOT
BRANCH   1  19
HETATM   19  C   UNL     1      26.939  44.604  51.702  1.00  0.00    -0.002 A 
HETATM   20  C   UNL     1      28.067  43.772  51.588  1.00  0.00     0.012 A 
HETATM   21  C   UNL     1      28.515  43.022  52.679  1.00  0.00     0.001 A 
HETATM   22  C   UNL     1      27.843  43.087  53.898  1.00  0.00     0.003 A 
HETATM   23  C   UNL     1      26.726  43.909  54.032  1.00  0.00     0.037 A 
HETATM   24  C   UNL     1      26.289  44.665  52.947  1.00  0.00     0.073 A 
BRANCH  24  25
HETATM   25  O   UNL     1      25.212  45.485  53.161  1.00  0.00    -0.360 OA
HETATM   26  H   UNL     1      24.651  45.058  53.847  1.00  0.00     0.217 HD
ENDBRANCH  24  25
ENDBRANCH   1  19
TORSDOF 2
ENDMDL
MODEL 9
REMARK VINA RESULT:      -7.5     12.408     14.768
REMARK  2 active torsions:
REMARK  status: ('A' for Active; 'I' for Inactive)
REMARK    1  A    between atoms: C_3  and  C_4 
REMARK    2  A    between atoms: C_19  and  O_20 
ROOT
HETATM    1  C   UNL     1      26.980  49.992  38.967  1.00  0.00     0.137 C 
HETATM    2  N   UNL     1      25.602  50.180  39.484  1.00  0.00    -0.278 NA
HETATM    3  C   UNL     1      24.630  49.221  39.138  1.00  0.00     0.036 A 
HETATM    4  C   UNL     1      24.691  47.880  39.583  1.00  0.00     0.053 A 
HETATM    5  N   UNL     1      25.777  47.361  40.333  1.00  0.00    -0.356 N 
HETATM    6  C   UNL     1      27.092  47.637  40.027  1.00  0.00     0.041 A 
HETATM    7  C   UNL     1      27.600  48.714  39.407  1.00  0.00     0.056 A 
HETATM    8  C   UNL     1      29.011  48.400  39.123  1.00  0.00     0.251 A 
HETATM    9  O   UNL     1      29.773  49.043  38.427  1.00  0.00    -0.268 OA
HETATM   10  N   UNL     1      29.302  47.205  39.726  1.00  0.00    -0.351 N 
HETATM   11  C   UNL     1      28.156  46.617  40.332  1.00  0.00     0.180 A 
HETATM   12  C   UNL     1      23.514  49.639  38.391  1.00  0.00     0.026 A 
HETATM   13  C   UNL     1      22.483  48.754  38.070  1.00  0.00     0.002 A 
HETATM   14  C   UNL     1      22.541  47.438  38.511  1.00  0.00     0.002 A 
HETATM   15  C   UNL     1      23.633  47.007  39.266  1.00  0.00     0.031 A 
HETATM   16  H   UNL     1      25.287  51.107  39.197  1.00  0.00     0.128 HD
HETATM   17  H   UNL     1      25.615  46.414  40.661  1.00  0.00     0.166 HD
HETATM   18  H   UNL     1      30.211  46.776  39.626  1.00  0.00     0.163 HD
ENDROOT
BRANCH   1  19
HETATM   19  C   UNL     1      27.759  51.206  39.474  1.00  0.00    -0.002 A 
HETATM   20  C   UNL     1      28.372  52.077  38.556  1.00  0.00     0.012 A 
HETATM   21  C   UNL     1      29.125  53.168  39.000  1.00  0.00     0.001 A 
HETATM   22  C   UNL     1      29.283  53.402  40.364  1.00  0.00     0.003 A 
HETATM   23  C   UNL     1      28.679  52.553  41.289  1.00  0.00     0.037 A 
HETATM   24  C   UNL     1      27.919  51.475  40.845  1.00  0.00     0.073 A 
BRANCH  24  25
HETATM   25  O   UNL     1      27.318  50.707  41.807  1.00  0.00    -0.360 OA
HETATM   26  H   UNL     1      27.880  49.911  41.940  1.00  0.00     0.217 HD
ENDBRANCH  24  25
ENDBRANCH   1  19
TORSDOF 2
ENDMDL
MODEL 10
REMARK VINA RESULT:      -7.5     13.477     15.304
REMARK  2 active torsions:
REMARK  status: ('A' for Active; 'I' for Inactive)
REMARK    1  A    between atoms: C_3  and  C_4 
REMARK    2  A    between atoms: C_19  and  O_20 
ROOT
HETATM    1  C   UNL     1      31.844  50.418  40.645  1.00  0.00     0.137 C 
HETATM    2  N   UNL     1      31.902  49.262  39.716  1.00  0.00    -0.278 NA
HETATM    3  C   UNL     1      30.717  48.531  39.497  1.00  0.00     0.036 A 
HETATM    4  C   UNL     1      29.589  49.086  38.852  1.00  0.00     0.053 A 
HETATM    5  N   UNL     1      29.512  50.445  38.456  1.00  0.00    -0.356 N 
HETATM    6  C   UNL     1      29.939  51.480  39.260  1.00  0.00     0.041 A 
HETATM    7  C   UNL     1      30.879  51.465  40.217  1.00  0.00     0.056 A 
HETATM    8  C   UNL     1      30.774  52.755  40.921  1.00  0.00     0.251 A 
HETATM    9  O   UNL     1      31.333  53.067  41.955  1.00  0.00    -0.268 OA
HETATM   10  N   UNL     1      29.869  53.527  40.242  1.00  0.00    -0.351 N 
HETATM   11  C   UNL     1      29.264  52.822  39.164  1.00  0.00     0.180 A 
HETATM   12  C   UNL     1      30.693  47.172  39.861  1.00  0.00     0.026 A 
HETATM   13  C   UNL     1      29.575  46.375  39.612  1.00  0.00     0.002 A 
HETATM   14  C   UNL     1      28.467  46.919  38.975  1.00  0.00     0.002 A 
HETATM   15  C   UNL     1      28.477  48.261  38.593  1.00  0.00     0.031 A 
HETATM   16  H   UNL     1      32.636  48.635  40.046  1.00  0.00     0.128 HD
HETATM   17  H   UNL     1      28.680  50.654  37.914  1.00  0.00     0.166 HD
HETATM   18  H   UNL     1      29.610  54.445  40.576  1.00  0.00     0.163 HD
ENDROOT
BRANCH   1  19
HETATM   19  C   UNL     1      33.276  50.951  40.698  1.00  0.00    -0.002 A 
HETATM   20  C   UNL     1      33.953  51.019  41.929  1.00  0.00     0.012 A 
HETATM   21  C   UNL     1      35.246  51.544  42.005  1.00  0.00     0.001 A 
HETATM   22  C   UNL     1      35.880  52.014  40.857  1.00  0.00     0.003 A 
HETATM   23  C   UNL     1      35.228  51.951  39.628  1.00  0.00     0.037 A 
HETATM   24  C   UNL     1      33.946  51.415  39.552  1.00  0.00     0.073 A 
BRANCH  24  25
HETATM   25  O   UNL     1      33.380  51.343  38.306  1.00  0.00    -0.360 OA
HETATM   26  H   UNL     1      33.302  50.390  38.075  1.00  0.00     0.217 HD
ENDBRANCH  24  25
ENDBRANCH   1  19
TORSDOF 2
ENDMDL
