MODEL 1
REMARK VINA RESULT:      -8.9      0.000      0.000
REMARK  5 active torsions:
REMARK  status: ('A' for Active; 'I' for Inactive)
REMARK    1  A    between atoms: C_3  and  N_4 
REMARK       I    between atoms: N_4  and  C_5 
REMARK       I    between atoms: C_5  and  N_6 
REMARK    2  A    between atoms: N_6  and  C_7 
REMARK    3  A    between atoms: C_7  and  C_8 
REMARK    4  A    between atoms: C_10  and  N_11 
REMARK       I    between atoms: N_11  and  C_12 
REMARK    5  A    between atoms: C_12  and  C_13 
ROOT
HETATM    1  C   UNL     1      27.358  42.286  51.152  1.00  0.00    -0.038 A 
HETATM    2  C   UNL     1      27.541  43.609  50.710  1.00  0.00     0.038 A 
HETATM    3  C   UNL     1      26.468  44.360  50.224  1.00  0.00     0.035 A 
HETATM    4  C   UNL     1      25.201  43.769  50.163  1.00  0.00     0.029 A 
HETATM    5  C   UNL     1      25.012  42.447  50.573  1.00  0.00     0.003 A 
HETATM    6  C   UNL     1      26.086  41.707  51.066  1.00  0.00     0.009 A 
ENDROOT
BRANCH   1   7
HETATM    7  C   UNL     1      28.513  41.515  51.736  1.00  0.00     0.163 C 
BRANCH   7   8
HETATM    8  N   UNL     1      29.455  42.377  52.412  1.00  0.00    -0.339 N 
HETATM    9  C   UNL     1      29.371  42.611  53.765  1.00  0.00     0.321 C 
HETATM   10  N   UNL     1      30.289  43.569  54.146  1.00  0.00    -0.307 N 
HETATM   11  O   UNL     1      28.532  42.085  54.484  1.00  0.00    -0.247 OA
HETATM   12  H   UNL     1      30.460  44.233  53.404  1.00  0.00     0.170 HD
HETATM   13  H   UNL     1      30.365  42.480  51.985  1.00  0.00     0.164 HD
BRANCH  10  14
HETATM   14  C   UNL     1      30.431  44.067  55.464  1.00  0.00     0.059 A 
HETATM   15  C   UNL     1      29.792  45.204  55.976  1.00  0.00    -0.032 A 
HETATM   16  C   UNL     1      28.782  46.021  55.222  1.00  0.00     0.050 C 
HETATM   17  C   UNL     1      30.092  45.597  57.291  1.00  0.00     0.028 A 
HETATM   18  C   UNL     1      30.951  44.825  58.058  1.00  0.00     0.117 A 
HETATM   19  N   UNL     1      31.524  43.690  57.618  1.00  0.00    -0.271 NA
HETATM   20  C   UNL     1      31.247  43.342  56.339  1.00  0.00     0.146 A 
ENDBRANCH  10  14
ENDBRANCH   7   8
ENDBRANCH   1   7
BRANCH   3  21
HETATM   21  N   UNL     1      26.574  45.705  49.824  1.00  0.00    -0.321 N 
HETATM   22  C   UNL     1      26.081  46.831  50.462  1.00  0.00     0.279 C 
HETATM   23  O   UNL     1      25.546  46.845  51.566  1.00  0.00    -0.265 OA
HETATM   24  H   UNL     1      27.057  45.891  48.952  1.00  0.00     0.169 HD
BRANCH  22  25
HETATM   25  C   UNL     1      26.269  48.043  49.684  1.00  0.00     0.142 A 
HETATM   26  O   UNL     1      25.178  48.795  49.326  1.00  0.00    -0.317 OA
HETATM   27  C   UNL     1      25.643  49.873  48.642  1.00  0.00     0.143 A 
HETATM   28  C   UNL     1      27.013  49.826  48.540  1.00  0.00     0.027 A 
HETATM   29  C   UNL     1      27.419  48.647  49.208  1.00  0.00     0.045 A 
ENDBRANCH  22  25
ENDBRANCH   3  21
TORSDOF 5
ENDMDL
MODEL 2
REMARK VINA RESULT:      -8.7      2.603      8.337
REMARK  5 active torsions:
REMARK  status: ('A' for Active; 'I' for Inactive)
REMARK    1  A    between atoms: C_3  and  N_4 
REMARK       I    between atoms: N_4  and  C_5 
REMARK       I    between atoms: C_5  and  N_6 
REMARK    2  A    between atoms: N_6  and  C_7 
REMARK    3  A    between atoms: C_7  and  C_8 
REMARK    4  A    between atoms: C_10  and  N_11 
REMARK       I    between atoms: N_11  and  C_12 
REMARK    5  A    between atoms: C_12  and  C_13 
ROOT
HETATM    1  C   UNL     1      27.746  44.374  53.669  1.00  0.00    -0.038 A 
HETATM    2  C   UNL     1      27.926  43.379  52.691  1.00  0.00     0.038 A 
HETATM    3  C   UNL     1      28.987  42.474  52.773  1.00  0.00     0.035 A 
HETATM    4  C   UNL     1      29.889  42.583  53.838  1.00  0.00     0.029 A 
HETATM    5  C   UNL     1      29.737  43.585  54.799  1.00  0.00     0.003 A 
HETATM    6  C   UNL     1      28.670  44.478  54.716  1.00  0.00     0.009 A 
ENDROOT
BRANCH   1   7
HETATM    7  C   UNL     1      26.558  45.298  53.602  1.00  0.00     0.163 C 
BRANCH   7   8
HETATM    8  N   UNL     1      26.126  45.529  52.242  1.00  0.00    -0.339 N 
HETATM    9  C   UNL     1      25.992  46.804  51.740  1.00  0.00     0.321 C 
HETATM   10  N   UNL     1      25.437  46.767  50.476  1.00  0.00    -0.307 N 
HETATM   11  O   UNL     1      26.262  47.808  52.384  1.00  0.00    -0.247 OA
HETATM   12  H   UNL     1      24.810  45.981  50.370  1.00  0.00     0.170 HD
HETATM   13  H   UNL     1      26.301  44.791  51.576  1.00  0.00     0.164 HD
BRANCH  10  14
HETATM   14  C   UNL     1      25.129  47.910  49.700  1.00  0.00     0.059 A 
HETATM   15  C   UNL     1      26.065  48.748  49.080  1.00  0.00    -0.032 A 
HETATM   16  C   UNL     1      27.548  48.504  49.073  1.00  0.00     0.050 C 
HETATM   17  C   UNL     1      25.591  49.879  48.395  1.00  0.00     0.028 A 
HETATM   18  C   UNL     1      24.226  50.099  48.298  1.00  0.00     0.117 A 
HETATM   19  N   UNL     1      23.301  49.275  48.822  1.00  0.00    -0.271 NA
HETATM   20  C   UNL     1      23.776  48.206  49.504  1.00  0.00     0.146 A 
ENDBRANCH  10  14
ENDBRANCH   7   8
ENDBRANCH   1   7
BRANCH   3  21
HETATM   21  N   UNL     1      29.187  41.420  51.862  1.00  0.00    -0.321 N 
HETATM   22  C   UNL     1      28.233  40.631  51.241  1.00  0.00     0.279 C 
HETATM   23  O   UNL     1      27.019  40.797  51.310  1.00  0.00    -0.265 OA
HETATM   24  H   UNL     1      30.146  41.186  51.630  1.00  0.00     0.169 HD
BRANCH  22  25
HETATM   25  C   UNL     1      28.819  39.553  50.464  1.00  0.00     0.142 A 
HETATM   26  O   UNL     1      29.569  38.592  51.094  1.00  0.00    -0.317 OA
HETATM   27  C   UNL     1      29.959  37.703  50.143  1.00  0.00     0.143 A 
HETATM   28  C   UNL     1      29.486  38.076  48.909  1.00  0.00     0.027 A 
HETATM   29  C   UNL     1      28.752  39.270  49.111  1.00  0.00     0.045 A 
ENDBRANCH  22  25
ENDBRANCH   3  21
TORSDOF 5
ENDMDL
MODEL 3
REMARK VINA RESULT:      -8.4      4.331      9.729
REMARK  5 active torsions:
REMARK  status: ('A' for Active; 'I' for Inactive)
REMARK    1  A    between atoms: C_3  and  N_4 
REMARK       I    between atoms: N_4  and  C_5 
REMARK       I    between atoms: C_5  and  N_6 
REMARK    2  A    between atoms: N_6  and  C_7 
REMARK    3  A    between atoms: C_7  and  C_8 
REMARK    4  A    between atoms: C_10  and  N_11 
REMARK       I    between atoms: N_11  and  C_12 
REMARK    5  A    between atoms: C_12  and  C_13 
ROOT
HETATM    1  C   UNL     1      24.778  46.207  50.529  1.00  0.00    -0.038 A 
HETATM    2  C   UNL     1      25.831  45.996  51.437  1.00  0.00     0.038 A 
HETATM    3  C   UNL     1      26.108  44.719  51.933  1.00  0.00     0.035 A 
HETATM    4  C   UNL     1      25.306  43.647  51.527  1.00  0.00     0.029 A 
HETATM    5  C   UNL     1      24.240  43.849  50.647  1.00  0.00     0.003 A 
HETATM    6  C   UNL     1      23.976  45.124  50.150  1.00  0.00     0.009 A 
ENDROOT
BRANCH   1   7
HETATM    7  C   UNL     1      24.537  47.577  49.952  1.00  0.00     0.163 C 
BRANCH   7   8
HETATM    8  N   UNL     1      23.157  47.769  49.566  1.00  0.00    -0.339 N 
HETATM    9  C   UNL     1      22.564  49.010  49.619  1.00  0.00     0.321 C 
HETATM   10  N   UNL     1      21.217  48.912  49.337  1.00  0.00    -0.307 N 
HETATM   11  O   UNL     1      23.163  50.024  49.953  1.00  0.00    -0.247 OA
HETATM   12  H   UNL     1      20.840  48.022  49.636  1.00  0.00     0.170 HD
HETATM   13  H   UNL     1      22.771  47.105  48.912  1.00  0.00     0.164 HD
BRANCH  10  14
HETATM   14  C   UNL     1      20.311  50.000  49.350  1.00  0.00     0.059 A 
HETATM   15  C   UNL     1      19.159  50.089  50.142  1.00  0.00    -0.032 A 
HETATM   16  C   UNL     1      18.756  49.070  51.170  1.00  0.00     0.050 C 
HETATM   17  C   UNL     1      18.333  51.215  49.986  1.00  0.00     0.028 A 
HETATM   18  C   UNL     1      18.708  52.225  49.114  1.00  0.00     0.117 A 
HETATM   19  N   UNL     1      19.844  52.200  48.393  1.00  0.00    -0.271 NA
HETATM   20  C   UNL     1      20.613  51.095  48.533  1.00  0.00     0.146 A 
ENDBRANCH  10  14
ENDBRANCH   7   8
ENDBRANCH   1   7
BRANCH   3  21
HETATM   21  N   UNL     1      27.182  44.433  52.796  1.00  0.00    -0.321 N 
HETATM   22  C   UNL     1      27.375  44.864  54.097  1.00  0.00     0.279 C 
HETATM   23  O   UNL     1      26.564  45.500  54.763  1.00  0.00    -0.265 OA
HETATM   24  H   UNL     1      27.926  43.849  52.429  1.00  0.00     0.169 HD
BRANCH  22  25
HETATM   25  C   UNL     1      28.668  44.472  54.632  1.00  0.00     0.142 A 
HETATM   26  O   UNL     1      29.280  45.261  55.573  1.00  0.00    -0.317 OA
HETATM   27  C   UNL     1      30.443  44.647  55.914  1.00  0.00     0.143 A 
HETATM   28  C   UNL     1      30.602  43.483  55.201  1.00  0.00     0.027 A 
HETATM   29  C   UNL     1      29.460  43.369  54.372  1.00  0.00     0.045 A 
ENDBRANCH  22  25
ENDBRANCH   3  21
TORSDOF 5
ENDMDL
MODEL 4
REMARK VINA RESULT:      -8.4      2.494      3.256
REMARK  5 active torsions:
REMARK  status: ('A' for Active; 'I' for Inactive)
REMARK    1  A    between atoms: C_3  and  N_4 
REMARK       I    between atoms: N_4  and  C_5 
REMARK       I    between atoms: C_5  and  N_6 
REMARK    2  A    between atoms: N_6  and  C_7 
REMARK    3  A    between atoms: C_7  and  C_8 
REMARK    4  A    between atoms: C_10  and  N_11 
REMARK       I    between atoms: N_11  and  C_12 
REMARK    5  A    between atoms: C_12  and  C_13 
ROOT
HETATM    1  C   UNL     1      24.885  44.227  51.181  1.00  0.00    -0.038 A 
HETATM    2  C   UNL     1      24.301  45.478  50.916  1.00  0.00     0.038 A 
HETATM    3  C   UNL     1      23.834  45.799  49.639  1.00  0.00     0.035 A 
HETATM    4  C   UNL     1      23.975  44.858  48.611  1.00  0.00     0.029 A 
HETATM    5  C   UNL     1      24.578  43.623  48.856  1.00  0.00     0.003 A 
HETATM    6  C   UNL     1      25.032  43.307  50.135  1.00  0.00     0.009 A 
ENDROOT
BRANCH   1   7
HETATM    7  C   UNL     1      25.320  43.873  52.579  1.00  0.00     0.163 C 
BRANCH   7   8
HETATM    8  N   UNL     1      26.532  44.560  52.961  1.00  0.00    -0.339 N 
HETATM    9  C   UNL     1      27.289  44.137  54.030  1.00  0.00     0.321 C 
HETATM   10  N   UNL     1      28.312  45.029  54.278  1.00  0.00    -0.307 N 
HETATM   11  O   UNL     1      27.015  43.146  54.693  1.00  0.00    -0.247 OA
HETATM   12  H   UNL     1      28.048  45.973  54.030  1.00  0.00     0.170 HD
HETATM   13  H   UNL     1      27.010  45.077  52.237  1.00  0.00     0.164 HD
BRANCH  10  14
HETATM   14  C   UNL     1      29.246  44.909  55.335  1.00  0.00     0.059 A 
HETATM   15  C   UNL     1      30.264  43.949  55.415  1.00  0.00    -0.032 A 
HETATM   16  C   UNL     1      30.576  42.952  54.336  1.00  0.00     0.050 C 
HETATM   17  C   UNL     1      31.068  43.930  56.567  1.00  0.00     0.028 A 
HETATM   18  C   UNL     1      30.877  44.887  57.552  1.00  0.00     0.117 A 
HETATM   19  N   UNL     1      29.955  45.863  57.471  1.00  0.00    -0.271 NA
HETATM   20  C   UNL     1      29.170  45.849  56.368  1.00  0.00     0.146 A 
ENDBRANCH  10  14
ENDBRANCH   7   8
ENDBRANCH   1   7
BRANCH   3  21
HETATM   21  N   UNL     1      23.187  47.008  49.324  1.00  0.00    -0.321 N 
HETATM   22  C   UNL     1      23.682  48.297  49.427  1.00  0.00     0.279 C 
HETATM   23  O   UNL     1      24.836  48.594  49.721  1.00  0.00    -0.265 OA
HETATM   24  H   UNL     1      22.231  46.948  48.991  1.00  0.00     0.169 HD
BRANCH  22  25
HETATM   25  C   UNL     1      22.680  49.307  49.135  1.00  0.00     0.142 A 
HETATM   26  O   UNL     1      21.382  48.927  48.897  1.00  0.00    -0.317 OA
HETATM   27  C   UNL     1      20.665  50.061  48.688  1.00  0.00     0.143 A 
HETATM   28  C   UNL     1      21.476  51.168  48.773  1.00  0.00     0.027 A 
HETATM   29  C   UNL     1      22.775  50.685  49.058  1.00  0.00     0.045 A 
ENDBRANCH  22  25
ENDBRANCH   3  21
TORSDOF 5
ENDMDL
MODEL 5
REMARK VINA RESULT:      -8.4      3.752      9.698
REMARK  5 active torsions:
REMARK  status: ('A' for Active; 'I' for Inactive)
REMARK    1  A    between atoms: C_3  and  N_4 
REMARK       I    between atoms: N_4  and  C_5 
REMARK       I    between atoms: C_5  and  N_6 
REMARK    2  A    between atoms: N_6  and  C_7 
REMARK    3  A    between atoms: C_7  and  C_8 
REMARK    4  A    between atoms: C_10  and  N_11 
REMARK       I    between atoms: N_11  and  C_12 
REMARK    5  A    between atoms: C_12  and  C_13 
ROOT
HETATM    1  C   UNL     1      25.382  46.094  51.276  1.00  0.00    -0.038 A 
HETATM    2  C   UNL     1      26.415  46.086  52.230  1.00  0.00     0.038 A 
HETATM    3  C   UNL     1      26.734  44.923  52.935  1.00  0.00     0.035 A 
HETATM    4  C   UNL     1      25.994  43.761  52.692  1.00  0.00     0.029 A 
HETATM    5  C   UNL     1      24.947  43.764  51.768  1.00  0.00     0.003 A 
HETATM    6  C   UNL     1      24.641  44.926  51.061  1.00  0.00     0.009 A 
ENDROOT
BRANCH   1   7
HETATM    7  C   UNL     1      25.097  47.339  50.476  1.00  0.00     0.163 C 
BRANCH   7   8
HETATM    8  N   UNL     1      23.701  47.448  50.119  1.00  0.00    -0.339 N 
HETATM    9  C   UNL     1      23.201  48.580  49.516  1.00  0.00     0.321 C 
HETATM   10  N   UNL     1      21.828  48.498  49.403  1.00  0.00    -0.307 N 
HETATM   11  O   UNL     1      23.898  49.537  49.209  1.00  0.00    -0.247 OA
HETATM   12  H   UNL     1      21.426  47.960  50.158  1.00  0.00     0.170 HD
HETATM   13  H   UNL     1      23.204  46.584  49.955  1.00  0.00     0.164 HD
BRANCH  10  14
HETATM   14  C   UNL     1      21.004  49.516  48.865  1.00  0.00     0.059 A 
HETATM   15  C   UNL     1      20.710  50.737  49.486  1.00  0.00    -0.032 A 
HETATM   16  C   UNL     1      21.304  51.189  50.791  1.00  0.00     0.050 C 
HETATM   17  C   UNL     1      19.822  51.613  48.840  1.00  0.00     0.028 A 
HETATM   18  C   UNL     1      19.317  51.280  47.593  1.00  0.00     0.117 A 
HETATM   19  N   UNL     1      19.636  50.148  46.940  1.00  0.00    -0.271 NA
HETATM   20  C   UNL     1      20.470  49.302  47.590  1.00  0.00     0.146 A 
ENDBRANCH  10  14
ENDBRANCH   7   8
ENDBRANCH   1   7
BRANCH   3  21
HETATM   21  N   UNL     1      27.793  44.835  53.857  1.00  0.00    -0.321 N 
HETATM   22  C   UNL     1      28.960  44.097  53.753  1.00  0.00     0.279 C 
HETATM   23  O   UNL     1      29.315  43.464  52.764  1.00  0.00    -0.265 OA
HETATM   24  H   UNL     1      27.700  45.360  54.719  1.00  0.00     0.169 HD
BRANCH  22  25
HETATM   25  C   UNL     1      29.764  44.148  54.962  1.00  0.00     0.142 A 
HETATM   26  O   UNL     1      29.637  45.214  55.817  1.00  0.00    -0.317 OA
HETATM   27  C   UNL     1      30.471  44.988  56.865  1.00  0.00     0.143 A 
HETATM   28  C   UNL     1      31.145  43.802  56.699  1.00  0.00     0.027 A 
HETATM   29  C   UNL     1      30.693  43.260  55.473  1.00  0.00     0.045 A 
ENDBRANCH  22  25
ENDBRANCH   3  21
TORSDOF 5
ENDMDL
MODEL 6
REMARK VINA RESULT:      -8.1      3.378      5.123
REMARK  5 active torsions:
REMARK  status: ('A' for Active; 'I' for Inactive)
REMARK    1  A    between atoms: C_3  and  N_4 
REMARK       I    between atoms: N_4  and  C_5 
REMARK       I    between atoms: C_5  and  N_6 
REMARK    2  A    between atoms: N_6  and  C_7 
REMARK    3  A    between atoms: C_7  and  C_8 
REMARK    4  A    between atoms: C_10  and  N_11 
REMARK       I    between atoms: N_11  and  C_12 
REMARK    5  A    between atoms: C_12  and  C_13 
ROOT
HETATM    1  C   UNL     1      25.113  46.738  50.036  1.00  0.00    -0.038 A 
HETATM    2  C   UNL     1      23.927  47.440  49.756  1.00  0.00     0.038 A 
HETATM    3  C   UNL     1      23.962  48.709  49.173  1.00  0.00     0.035 A 
HETATM    4  C   UNL     1      25.204  49.287  48.886  1.00  0.00     0.029 A 
HETATM    5  C   UNL     1      26.390  48.611  49.185  1.00  0.00     0.003 A 
HETATM    6  C   UNL     1      26.346  47.341  49.758  1.00  0.00     0.009 A 
ENDROOT
BRANCH   1   7
HETATM    7  C   UNL     1      25.054  45.343  50.602  1.00  0.00     0.163 C 
BRANCH   7   8
HETATM    8  N   UNL     1      25.520  45.291  51.969  1.00  0.00    -0.339 N 
HETATM    9  C   UNL     1      26.811  44.926  52.273  1.00  0.00     0.321 C 
HETATM   10  N   UNL     1      26.972  44.818  53.639  1.00  0.00    -0.307 N 
HETATM   11  O   UNL     1      27.650  44.663  51.422  1.00  0.00    -0.247 OA
HETATM   12  H   UNL     1      26.115  44.529  54.091  1.00  0.00     0.170 HD
HETATM   13  H   UNL     1      25.041  45.880  52.636  1.00  0.00     0.164 HD
BRANCH  10  14
HETATM   14  C   UNL     1      28.170  44.419  54.279  1.00  0.00     0.059 A 
HETATM   15  C   UNL     1      28.715  43.128  54.253  1.00  0.00    -0.032 A 
HETATM   16  C   UNL     1      28.148  41.985  53.460  1.00  0.00     0.050 C 
HETATM   17  C   UNL     1      29.883  42.887  54.995  1.00  0.00     0.028 A 
HETATM   18  C   UNL     1      30.494  43.931  55.672  1.00  0.00     0.117 A 
HETATM   19  N   UNL     1      30.034  45.195  55.658  1.00  0.00    -0.271 NA
HETATM   20  C   UNL     1      28.891  45.405  54.962  1.00  0.00     0.146 A 
ENDBRANCH  10  14
ENDBRANCH   7   8
ENDBRANCH   1   7
BRANCH   3  21
HETATM   21  N   UNL     1      22.813  49.436  48.814  1.00  0.00    -0.321 N 
HETATM   22  C   UNL     1      22.173  50.436  49.527  1.00  0.00     0.279 C 
HETATM   23  O   UNL     1      22.580  50.934  50.571  1.00  0.00    -0.265 OA
HETATM   24  H   UNL     1      22.375  49.201  47.929  1.00  0.00     0.169 HD
BRANCH  22  25
HETATM   25  C   UNL     1      20.936  50.867  48.900  1.00  0.00     0.142 A 
HETATM   26  O   UNL     1      20.081  51.695  49.584  1.00  0.00    -0.317 OA
HETATM   27  C   UNL     1      19.035  51.960  48.759  1.00  0.00     0.143 A 
HETATM   28  C   UNL     1      19.190  51.310  47.558  1.00  0.00     0.027 A 
HETATM   29  C   UNL     1      20.413  50.603  47.647  1.00  0.00     0.045 A 
ENDBRANCH  22  25
ENDBRANCH   3  21
TORSDOF 5
ENDMDL
MODEL 7
REMARK VINA RESULT:      -8.1      4.494      9.600
REMARK  5 active torsions:
REMARK  status: ('A' for Active; 'I' for Inactive)
REMARK    1  A    between atoms: C_3  and  N_4 
REMARK       I    between atoms: N_4  and  C_5 
REMARK       I    between atoms: C_5  and  N_6 
REMARK    2  A    between atoms: N_6  and  C_7 
REMARK    3  A    between atoms: C_7  and  C_8 
REMARK    4  A    between atoms: C_10  and  N_11 
REMARK       I    between atoms: N_11  and  C_12 
REMARK    5  A    between atoms: C_12  and  C_13 
ROOT
HETATM    1  C   UNL     1      23.258  44.689  49.004  1.00  0.00    -0.038 A 
HETATM    2  C   UNL     1      24.237  44.853  50.000  1.00  0.00     0.038 A 
HETATM    3  C   UNL     1      24.802  43.748  50.642  1.00  0.00     0.035 A 
HETATM    4  C   UNL     1      24.362  42.465  50.293  1.00  0.00     0.029 A 
HETATM    5  C   UNL     1      23.370  42.292  49.325  1.00  0.00     0.003 A 
HETATM    6  C   UNL     1      22.819  43.399  48.682  1.00  0.00     0.009 A 
ENDROOT
BRANCH   1   7
HETATM    7  C   UNL     1      22.711  45.889  48.274  1.00  0.00     0.163 C 
BRANCH   7   8
HETATM    8  N   UNL     1      22.184  46.882  49.181  1.00  0.00    -0.339 N 
HETATM    9  C   UNL     1      21.253  47.808  48.768  1.00  0.00     0.321 C 
HETATM   10  N   UNL     1      21.012  48.728  49.768  1.00  0.00    -0.307 N 
HETATM   11  O   UNL     1      20.787  47.829  47.637  1.00  0.00    -0.247 OA
HETATM   12  H   UNL     1      21.832  48.874  50.342  1.00  0.00     0.170 HD
HETATM   13  H   UNL     1      22.197  46.654  50.164  1.00  0.00     0.164 HD
BRANCH  10  14
HETATM   14  C   UNL     1      20.138  49.835  49.649  1.00  0.00     0.059 A 
HETATM   15  C   UNL     1      20.433  51.036  48.991  1.00  0.00    -0.032 A 
HETATM   16  C   UNL     1      21.702  51.297  48.229  1.00  0.00     0.050 C 
HETATM   17  C   UNL     1      19.472  52.061  49.019  1.00  0.00     0.028 A 
HETATM   18  C   UNL     1      18.249  51.837  49.633  1.00  0.00     0.117 A 
HETATM   19  N   UNL     1      17.911  50.670  50.211  1.00  0.00    -0.271 NA
HETATM   20  C   UNL     1      18.859  49.705  50.201  1.00  0.00     0.146 A 
ENDBRANCH  10  14
ENDBRANCH   7   8
ENDBRANCH   1   7
BRANCH   3  21
HETATM   21  N   UNL     1      25.826  43.841  51.602  1.00  0.00    -0.321 N 
HETATM   22  C   UNL     1      25.711  44.115  52.954  1.00  0.00     0.279 C 
HETATM   23  O   UNL     1      24.655  44.222  53.570  1.00  0.00    -0.265 OA
HETATM   24  H   UNL     1      26.778  43.707  51.277  1.00  0.00     0.169 HD
BRANCH  22  25
HETATM   25  C   UNL     1      27.000  44.260  53.608  1.00  0.00     0.142 A 
HETATM   26  O   UNL     1      27.193  45.277  54.509  1.00  0.00    -0.317 OA
HETATM   27  C   UNL     1      28.460  45.157  54.983  1.00  0.00     0.143 A 
HETATM   28  C   UNL     1      29.096  44.089  54.396  1.00  0.00     0.027 A 
HETATM   29  C   UNL     1      28.158  43.510  53.508  1.00  0.00     0.045 A 
ENDBRANCH  22  25
ENDBRANCH   3  21
TORSDOF 5
ENDMDL
MODEL 8
REMARK VINA RESULT:      -8.0      2.430      5.789
REMARK  5 active torsions:
REMARK  status: ('A' for Active; 'I' for Inactive)
REMARK    1  A    between atoms: C_3  and  N_4 
REMARK       I    between atoms: N_4  and  C_5 
REMARK       I    between atoms: C_5  and  N_6 
REMARK    2  A    between atoms: N_6  and  C_7 
REMARK    3  A    between atoms: C_7  and  C_8 
REMARK    4  A    between atoms: C_10  and  N_11 
REMARK       I    between atoms: N_11  and  C_12 
REMARK    5  A    between atoms: C_12  and  C_13 
ROOT
HETATM    1  C   UNL     1      28.821  44.158  54.520  1.00  0.00    -0.038 A 
HETATM    2  C   UNL     1      27.889  44.528  53.534  1.00  0.00     0.038 A 
HETATM    3  C   UNL     1      27.248  45.768  53.581  1.00  0.00     0.035 A 
HETATM    4  C   UNL     1      27.531  46.637  54.641  1.00  0.00     0.029 A 
HETATM    5  C   UNL     1      28.433  46.268  55.641  1.00  0.00     0.003 A 
HETATM    6  C   UNL     1      29.077  45.033  55.582  1.00  0.00     0.009 A 
ENDROOT
BRANCH   1   7
HETATM    7  C   UNL     1      29.554  42.845  54.416  1.00  0.00     0.163 C 
BRANCH   7   8
HETATM    8  N   UNL     1      29.574  42.340  53.062  1.00  0.00    -0.339 N 
HETATM    9  C   UNL     1      28.765  41.297  52.674  1.00  0.00     0.321 C 
HETATM   10  N   UNL     1      29.065  40.909  51.384  1.00  0.00    -0.307 N 
HETATM   11  O   UNL     1      27.960  40.761  53.424  1.00  0.00    -0.247 OA
HETATM   12  H   UNL     1      30.041  41.059  51.170  1.00  0.00     0.170 HD
HETATM   13  H   UNL     1      29.871  42.981  52.341  1.00  0.00     0.164 HD
BRANCH  10  14
HETATM   14  C   UNL     1      28.443  39.836  50.702  1.00  0.00     0.059 A 
HETATM   15  C   UNL     1      27.168  39.871  50.121  1.00  0.00    -0.032 A 
HETATM   16  C   UNL     1      26.299  41.095  50.058  1.00  0.00     0.050 C 
HETATM   17  C   UNL     1      26.674  38.694  49.534  1.00  0.00     0.028 A 
HETATM   18  C   UNL     1      27.474  37.563  49.489  1.00  0.00     0.117 A 
HETATM   19  N   UNL     1      28.728  37.519  49.975  1.00  0.00    -0.271 NA
HETATM   20  C   UNL     1      29.177  38.653  50.563  1.00  0.00     0.146 A 
ENDBRANCH  10  14
ENDBRANCH   7   8
ENDBRANCH   1   7
BRANCH   3  21
HETATM   21  N   UNL     1      26.352  46.222  52.595  1.00  0.00    -0.321 N 
HETATM   22  C   UNL     1      25.213  45.596  52.118  1.00  0.00     0.279 C 
HETATM   23  O   UNL     1      24.732  44.559  52.565  1.00  0.00    -0.265 OA
HETATM   24  H   UNL     1      26.559  47.114  52.158  1.00  0.00     0.169 HD
BRANCH  22  25
HETATM   25  C   UNL     1      24.609  46.305  51.003  1.00  0.00     0.142 A 
HETATM   26  O   UNL     1      24.735  47.670  50.920  1.00  0.00    -0.317 OA
HETATM   27  C   UNL     1      24.110  48.059  49.778  1.00  0.00     0.143 A 
HETATM   28  C   UNL     1      23.571  46.975  49.128  1.00  0.00     0.027 A 
HETATM   29  C   UNL     1      23.890  45.844  49.916  1.00  0.00     0.045 A 
ENDBRANCH  22  25
ENDBRANCH   3  21
TORSDOF 5
ENDMDL
MODEL 9
REMARK VINA RESULT:      -7.9      2.985      5.430
REMARK  5 active torsions:
REMARK  status: ('A' for Active; 'I' for Inactive)
REMARK    1  A    between atoms: C_3  and  N_4 
REMARK       I    between atoms: N_4  and  C_5 
REMARK       I    between atoms: C_5  and  N_6 
REMARK    2  A    between atoms: N_6  and  C_7 
REMARK    3  A    between atoms: C_7  and  C_8 
REMARK    4  A    between atoms: C_10  and  N_11 
REMARK       I    between atoms: N_11  and  C_12 
REMARK    5  A    between atoms: C_12  and  C_13 
ROOT
HETATM    1  C   UNL     1      25.404  44.863  51.841  1.00  0.00    -0.038 A 
HETATM    2  C   UNL     1      26.050  43.647  51.556  1.00  0.00     0.038 A 
HETATM    3  C   UNL     1      26.028  43.105  50.269  1.00  0.00     0.035 A 
HETATM    4  C   UNL     1      25.330  43.782  49.262  1.00  0.00     0.029 A 
HETATM    5  C   UNL     1      24.660  44.976  49.540  1.00  0.00     0.003 A 
HETATM    6  C   UNL     1      24.696  45.515  50.824  1.00  0.00     0.009 A 
ENDROOT
BRANCH   1   7
HETATM    7  C   UNL     1      25.497  45.467  53.218  1.00  0.00     0.163 C 
BRANCH   7   8
HETATM    8  N   UNL     1      26.862  45.759  53.592  1.00  0.00    -0.339 N 
HETATM    9  C   UNL     1      27.538  44.979  54.503  1.00  0.00     0.321 C 
HETATM   10  N   UNL     1      28.766  45.536  54.796  1.00  0.00    -0.307 N 
HETATM   11  O   UNL     1      27.053  43.981  55.019  1.00  0.00    -0.247 OA
HETATM   12  H   UNL     1      28.739  46.545  54.731  1.00  0.00     0.170 HD
HETATM   13  H   UNL     1      27.420  46.266  52.921  1.00  0.00     0.164 HD
BRANCH  10  14
HETATM   14  C   UNL     1      29.689  45.004  55.728  1.00  0.00     0.059 A 
HETATM   15  C   UNL     1      30.445  43.838  55.548  1.00  0.00    -0.032 A 
HETATM   16  C   UNL     1      30.455  43.020  54.287  1.00  0.00     0.050 C 
HETATM   17  C   UNL     1      31.271  43.414  56.602  1.00  0.00     0.028 A 
HETATM   18  C   UNL     1      31.364  44.183  57.752  1.00  0.00     0.117 A 
HETATM   19  N   UNL     1      30.705  45.343  57.925  1.00  0.00    -0.271 NA
HETATM   20  C   UNL     1      29.891  45.721  56.912  1.00  0.00     0.146 A 
ENDBRANCH  10  14
ENDBRANCH   7   8
ENDBRANCH   1   7
BRANCH   3  21
HETATM   21  N   UNL     1      26.704  41.925  49.906  1.00  0.00    -0.321 N 
HETATM   22  C   UNL     1      27.483  41.104  50.702  1.00  0.00     0.279 C 
HETATM   23  O   UNL     1      27.630  41.222  51.915  1.00  0.00    -0.265 OA
HETATM   24  H   UNL     1      26.633  41.632  48.937  1.00  0.00     0.169 HD
BRANCH  22  25
HETATM   25  C   UNL     1      28.130  40.044  49.949  1.00  0.00     0.142 A 
HETATM   26  O   UNL     1      28.949  39.153  50.598  1.00  0.00    -0.317 OA
HETATM   27  C   UNL     1      29.386  38.263  49.670  1.00  0.00     0.143 A 
HETATM   28  C   UNL     1      28.878  38.568  48.430  1.00  0.00     0.027 A 
HETATM   29  C   UNL     1      28.070  39.717  48.607  1.00  0.00     0.045 A 
ENDBRANCH  22  25
ENDBRANCH   3  21
TORSDOF 5
ENDMDL
MODEL 10
REMARK VINA RESULT:      -7.8      5.089     10.586
REMARK  5 active torsions:
REMARK  status: ('A' for Active; 'I' for Inactive)
REMARK    1  A    between atoms: C_3  and  N_4 
REMARK       I    between atoms: N_4  and  C_5 
REMARK       I    between atoms: C_5  and  N_6 
REMARK    2  A    between atoms: N_6  and  C_7 
REMARK    3  A    between atoms: C_7  and  C_8 
REMARK    4  A    between atoms: C_10  and  N_11 
REMARK       I    between atoms: N_11  and  C_12 
REMARK    5  A    between atoms: C_12  and  C_13 
ROOT
HETATM    1  C   UNL     1      24.860  49.372  48.579  1.00  0.00    -0.038 A 
HETATM    2  C   UNL     1      24.925  48.288  49.474  1.00  0.00     0.038 A 
HETATM    3  C   UNL     1      26.147  47.861  49.998  1.00  0.00     0.035 A 
HETATM    4  C   UNL     1      27.319  48.517  49.604  1.00  0.00     0.029 A 
HETATM    5  C   UNL     1      27.269  49.576  48.694  1.00  0.00     0.003 A 
HETATM    6  C   UNL     1      26.045  50.003  48.183  1.00  0.00     0.009 A 
ENDROOT
BRANCH   1   7
HETATM    7  C   UNL     1      23.526  49.862  48.078  1.00  0.00     0.163 C 
BRANCH   7   8
HETATM    8  N   UNL     1      22.544  48.804  48.022  1.00  0.00    -0.339 N 
HETATM    9  C   UNL     1      21.204  49.077  47.865  1.00  0.00     0.321 C 
HETATM   10  N   UNL     1      20.461  47.920  47.981  1.00  0.00    -0.307 N 
HETATM   11  O   UNL     1      20.765  50.210  47.724  1.00  0.00    -0.247 OA
HETATM   12  H   UNL     1      20.898  47.261  48.611  1.00  0.00     0.170 HD
HETATM   13  H   UNL     1      22.866  47.899  47.711  1.00  0.00     0.164 HD
BRANCH  10  14
HETATM   14  C   UNL     1      19.048  47.862  47.911  1.00  0.00     0.059 A 
HETATM   15  C   UNL     1      18.173  48.027  48.994  1.00  0.00    -0.032 A 
HETATM   16  C   UNL     1      18.607  48.382  50.388  1.00  0.00     0.050 C 
HETATM   17  C   UNL     1      16.796  47.877  48.762  1.00  0.00     0.028 A 
HETATM   18  C   UNL     1      16.340  47.637  47.475  1.00  0.00     0.117 A 
HETATM   19  N   UNL     1      17.150  47.544  46.405  1.00  0.00    -0.271 NA
HETATM   20  C   UNL     1      18.475  47.661  46.651  1.00  0.00     0.146 A 
ENDBRANCH  10  14
ENDBRANCH   7   8
ENDBRANCH   1   7
BRANCH   3  21
HETATM   21  N   UNL     1      26.273  46.824  50.941  1.00  0.00    -0.321 N 
HETATM   22  C   UNL     1      25.913  46.833  52.278  1.00  0.00     0.279 C 
HETATM   23  O   UNL     1      25.312  47.739  52.846  1.00  0.00    -0.265 OA
HETATM   24  H   UNL     1      26.692  45.957  50.622  1.00  0.00     0.169 HD
BRANCH  22  25
HETATM   25  C   UNL     1      26.314  45.623  52.974  1.00  0.00     0.142 A 
HETATM   26  O   UNL     1      26.614  44.493  52.254  1.00  0.00    -0.317 OA
HETATM   27  C   UNL     1      26.984  43.537  53.145  1.00  0.00     0.143 A 
HETATM   28  C   UNL     1      26.917  44.022  54.429  1.00  0.00     0.027 A 
HETATM   29  C   UNL     1      26.484  45.365  54.322  1.00  0.00     0.045 A 
ENDBRANCH  22  25
ENDBRANCH   3  21
TORSDOF 5
ENDMDL
