MODEL 1
REMARK VINA RESULT:     -10.2      0.000      0.000
REMARK  3 active torsions:
REMARK  status: ('A' for Active; 'I' for Inactive)
REMARK    1  A    between atoms: N_9  and  C_10 
REMARK    2  A    between atoms: C_10  and  C_11 
REMARK    3  A    between atoms: C_11  and  C_12 
REMARK       I    between atoms: C_12  and  N_13 
ROOT
HETATM    1  C   UNL     1      24.778  47.613  49.536  1.00  0.00     0.221 C 
HETATM    2  N   UNL     1      25.287  46.457  50.136  1.00  0.00    -0.352 N 
HETATM    3  C   UNL     1      24.494  45.589  51.007  1.00  0.00     0.129 C 
HETATM    4  C   UNL     1      24.979  44.146  50.977  1.00  0.00     0.068 C 
HETATM    5  C   UNL     1      26.489  44.023  51.231  1.00  0.00     0.094 C 
HETATM    6  N   UNL     1      26.877  42.643  51.025  1.00  0.00    -0.334 N 
HETATM    7  C   UNL     1      28.053  42.121  51.494  1.00  0.00     0.255 C 
HETATM    8  O   UNL     1      28.542  41.112  51.003  1.00  0.00    -0.268 OA
HETATM    9  C   UNL     1      28.669  42.826  52.632  1.00  0.00     0.053 A 
HETATM   10  C   UNL     1      27.996  43.936  53.153  1.00  0.00     0.026 A 
HETATM   11  N   UNL     1      26.763  44.353  52.630  1.00  0.00    -0.265 NA
HETATM   12  C   UNL     1      29.870  42.371  53.186  1.00  0.00     0.019 A 
HETATM   13  C   UNL     1      30.398  43.018  54.302  1.00  0.00     0.001 A 
HETATM   14  C   UNL     1      29.716  44.097  54.863  1.00  0.00     0.002 A 
HETATM   15  C   UNL     1      28.515  44.542  54.301  1.00  0.00     0.024 A 
HETATM   16  C   UNL     1      27.252  44.944  50.266  1.00  0.00     0.068 C 
HETATM   17  C   UNL     1      26.737  46.375  50.296  1.00  0.00     0.129 C 
HETATM   18  O   UNL     1      25.508  48.449  49.005  1.00  0.00    -0.273 OA
HETATM   19  H   UNL     1      26.542  42.166  50.200  1.00  0.00     0.164 HD
HETATM   20  H   UNL     1      26.548  45.312  52.888  1.00  0.00     0.130 HD
ENDROOT
BRANCH   1  21
HETATM   21  C   UNL     1      23.274  47.797  49.560  1.00  0.00     0.123 C 
BRANCH  21  22
HETATM   22  C   UNL     1      22.744  48.198  48.188  1.00  0.00     0.138 C 
BRANCH  22  23
HETATM   23  N   UNL     1      21.545  49.020  48.304  1.00  0.00    -0.349 N 
HETATM   24  C   UNL     1      20.262  48.506  48.365  1.00  0.00     0.045 A 
HETATM   25  C   UNL     1      19.391  49.594  48.451  1.00  0.00    -0.001 A 
HETATM   26  C   UNL     1      19.794  47.180  48.350  1.00  0.00     0.030 A 
HETATM   27  C   UNL     1      20.184  50.784  48.442  1.00  0.00    -0.027 A 
HETATM   28  C   UNL     1      18.003  49.344  48.526  1.00  0.00     0.014 A 
HETATM   29  C   UNL     1      19.679  52.183  48.524  1.00  0.00     0.051 C 
HETATM   30  C   UNL     1      21.513  50.398  48.346  1.00  0.00     0.015 A 
HETATM   31  C   UNL     1      22.739  51.246  48.309  1.00  0.00     0.069 C 
HETATM   32  C   UNL     1      17.530  48.028  48.516  1.00  0.00     0.001 A 
HETATM   33  C   UNL     1      18.416  46.961  48.429  1.00  0.00     0.002 A 
ENDBRANCH  22  23
ENDBRANCH  21  22
ENDBRANCH   1  21
TORSDOF 3
ENDMDL
MODEL 2
REMARK VINA RESULT:     -10.2      5.374      8.422
REMARK  3 active torsions:
REMARK  status: ('A' for Active; 'I' for Inactive)
REMARK    1  A    between atoms: N_9  and  C_10 
REMARK    2  A    between atoms: C_10  and  C_11 
REMARK    3  A    between atoms: C_11  and  C_12 
REMARK       I    between atoms: C_12  and  N_13 
ROOT
HETATM    1  C   UNL     1      24.689  43.158  51.164  1.00  0.00     0.221 C 
HETATM    2  N   UNL     1      25.741  42.367  50.692  1.00  0.00    -0.352 N 
HETATM    3  C   UNL     1      27.089  42.885  50.453  1.00  0.00     0.129 C 
HETATM    4  C   UNL     1      28.154  41.808  50.614  1.00  0.00     0.068 C 
HETATM    5  C   UNL     1      27.849  40.545  49.794  1.00  0.00     0.094 C 
HETATM    6  N   UNL     1      28.826  39.532  50.135  1.00  0.00    -0.334 N 
HETATM    7  C   UNL     1      29.058  38.429  49.358  1.00  0.00     0.255 C 
HETATM    8  O   UNL     1      29.572  37.419  49.822  1.00  0.00    -0.268 OA
HETATM    9  C   UNL     1      28.680  38.543  47.938  1.00  0.00     0.053 A 
HETATM   10  C   UNL     1      28.153  39.762  47.500  1.00  0.00     0.026 A 
HETATM   11  N   UNL     1      28.009  40.851  48.372  1.00  0.00    -0.265 NA
HETATM   12  C   UNL     1      28.880  37.473  47.060  1.00  0.00     0.019 A 
HETATM   13  C   UNL     1      28.574  37.629  45.709  1.00  0.00     0.001 A 
HETATM   14  C   UNL     1      28.091  38.853  45.246  1.00  0.00     0.002 A 
HETATM   15  C   UNL     1      27.897  39.917  46.134  1.00  0.00     0.024 A 
HETATM   16  C   UNL     1      26.430  40.051  50.118  1.00  0.00     0.068 C 
HETATM   17  C   UNL     1      25.384  41.147  49.972  1.00  0.00     0.129 C 
HETATM   18  O   UNL     1      23.520  42.773  51.137  1.00  0.00    -0.273 OA
HETATM   19  H   UNL     1      29.032  39.369  51.112  1.00  0.00     0.164 HD
HETATM   20  H   UNL     1      27.356  41.540  48.013  1.00  0.00     0.130 HD
ENDROOT
BRANCH   1  21
HETATM   21  C   UNL     1      25.046  44.521  51.720  1.00  0.00     0.123 C 
BRANCH  21  22
HETATM   22  C   UNL     1      25.058  44.510  53.245  1.00  0.00     0.138 C 
BRANCH  22  23
HETATM   23  N   UNL     1      26.346  44.949  53.768  1.00  0.00    -0.349 N 
HETATM   24  C   UNL     1      27.397  44.093  54.047  1.00  0.00     0.045 A 
HETATM   25  C   UNL     1      28.440  44.877  54.543  1.00  0.00    -0.001 A 
HETATM   26  C   UNL     1      27.517  42.700  53.906  1.00  0.00     0.030 A 
HETATM   27  C   UNL     1      27.992  46.235  54.555  1.00  0.00    -0.027 A 
HETATM   28  C   UNL     1      29.646  44.241  54.910  1.00  0.00     0.014 A 
HETATM   29  C   UNL     1      28.777  47.420  55.000  1.00  0.00     0.051 C 
HETATM   30  C   UNL     1      26.691  46.249  54.074  1.00  0.00     0.015 A 
HETATM   31  C   UNL     1      25.774  47.407  53.874  1.00  0.00     0.069 C 
HETATM   32  C   UNL     1      29.776  42.856  54.771  1.00  0.00     0.001 A 
HETATM   33  C   UNL     1      28.723  42.096  54.275  1.00  0.00     0.002 A 
ENDBRANCH  22  23
ENDBRANCH  21  22
ENDBRANCH   1  21
TORSDOF 3
ENDMDL
MODEL 3
REMARK VINA RESULT:     -10.2      0.670      2.177
REMARK  3 active torsions:
REMARK  status: ('A' for Active; 'I' for Inactive)
REMARK    1  A    between atoms: N_9  and  C_10 
REMARK    2  A    between atoms: C_10  and  C_11 
REMARK    3  A    between atoms: C_11  and  C_12 
REMARK       I    between atoms: C_12  and  N_13 
ROOT
HETATM    1  C   UNL     1      24.816  48.107  49.474  1.00  0.00     0.221 C 
HETATM    2  N   UNL     1      25.239  46.889  50.016  1.00  0.00    -0.352 N 
HETATM    3  C   UNL     1      24.403  46.067  50.891  1.00  0.00     0.129 C 
HETATM    4  C   UNL     1      24.751  44.588  50.795  1.00  0.00     0.068 C 
HETATM    5  C   UNL     1      26.252  44.319  50.983  1.00  0.00     0.094 C 
HETATM    6  N   UNL     1      26.502  42.917  50.718  1.00  0.00    -0.334 N 
HETATM    7  C   UNL     1      27.641  42.274  51.121  1.00  0.00     0.255 C 
HETATM    8  O   UNL     1      28.017  41.243  50.578  1.00  0.00    -0.268 OA
HETATM    9  C   UNL     1      28.364  42.879  52.254  1.00  0.00     0.053 A 
HETATM   10  C   UNL     1      27.817  44.027  52.837  1.00  0.00     0.026 A 
HETATM   11  N   UNL     1      26.609  44.573  52.379  1.00  0.00    -0.265 NA
HETATM   12  C   UNL     1      29.538  42.297  52.743  1.00  0.00     0.019 A 
HETATM   13  C   UNL     1      30.165  42.853  53.856  1.00  0.00     0.001 A 
HETATM   14  C   UNL     1      29.608  43.969  54.479  1.00  0.00     0.002 A 
HETATM   15  C   UNL     1      28.433  44.542  53.982  1.00  0.00     0.024 A 
HETATM   16  C   UNL     1      27.059  45.200  50.017  1.00  0.00     0.068 C 
HETATM   17  C   UNL     1      26.680  46.670  50.113  1.00  0.00     0.129 C 
HETATM   18  O   UNL     1      25.600  48.892  48.941  1.00  0.00    -0.273 OA
HETATM   19  H   UNL     1      26.093  42.502  49.892  1.00  0.00     0.164 HD
HETATM   20  H   UNL     1      26.493  45.537  52.676  1.00  0.00     0.130 HD
ENDROOT
BRANCH   1  21
HETATM   21  C   UNL     1      23.338  48.427  49.567  1.00  0.00     0.123 C 
BRANCH  21  22
HETATM   22  C   UNL     1      22.679  48.396  48.192  1.00  0.00     0.138 C 
BRANCH  22  23
HETATM   23  N   UNL     1      21.227  48.473  48.299  1.00  0.00    -0.349 N 
HETATM   24  C   UNL     1      20.522  49.660  48.387  1.00  0.00     0.045 A 
HETATM   25  C   UNL     1      19.171  49.325  48.494  1.00  0.00    -0.001 A 
HETATM   26  C   UNL     1      20.958  50.997  48.383  1.00  0.00     0.030 A 
HETATM   27  C   UNL     1      19.076  47.898  48.466  1.00  0.00    -0.027 A 
HETATM   28  C   UNL     1      18.224  50.367  48.599  1.00  0.00     0.014 A 
HETATM   29  C   UNL     1      17.825  47.095  48.545  1.00  0.00     0.051 C 
HETATM   30  C   UNL     1      20.365  47.397  48.350  1.00  0.00     0.015 A 
HETATM   31  C   UNL     1      20.820  45.980  48.267  1.00  0.00     0.069 C 
HETATM   32  C   UNL     1      18.648  51.700  48.592  1.00  0.00     0.001 A 
HETATM   33  C   UNL     1      19.998  52.008  48.485  1.00  0.00     0.002 A 
ENDBRANCH  22  23
ENDBRANCH  21  22
ENDBRANCH   1  21
TORSDOF 3
ENDMDL
MODEL 4
REMARK VINA RESULT:      -9.7      1.817      9.701
REMARK  3 active torsions:
REMARK  status: ('A' for Active; 'I' for Inactive)
REMARK    1  A    between atoms: N_9  and  C_10 
REMARK    2  A    between atoms: C_10  and  C_11 
REMARK    3  A    between atoms: C_11  and  C_12 
REMARK       I    between atoms: C_12  and  N_13 
ROOT
HETATM    1  C   UNL     1      24.887  43.889  50.541  1.00  0.00     0.221 C 
HETATM    2  N   UNL     1      24.518  45.200  50.223  1.00  0.00    -0.352 N 
HETATM    3  C   UNL     1      24.639  46.317  51.162  1.00  0.00     0.129 C 
HETATM    4  C   UNL     1      24.840  47.648  50.448  1.00  0.00     0.068 C 
HETATM    5  C   UNL     1      23.789  47.900  49.356  1.00  0.00     0.094 C 
HETATM    6  N   UNL     1      24.157  49.102  48.637  1.00  0.00    -0.334 N 
HETATM    7  C   UNL     1      23.280  49.795  47.847  1.00  0.00     0.255 C 
HETATM    8  O   UNL     1      23.674  50.547  46.965  1.00  0.00    -0.268 OA
HETATM    9  C   UNL     1      21.848  49.604  48.142  1.00  0.00     0.053 A 
HETATM   10  C   UNL     1      21.509  48.765  49.209  1.00  0.00     0.026 A 
HETATM   11  N   UNL     1      22.494  48.146  49.992  1.00  0.00    -0.265 NA
HETATM   12  C   UNL     1      20.872  50.270  47.394  1.00  0.00     0.019 A 
HETATM   13  C   UNL     1      19.529  50.121  47.735  1.00  0.00     0.001 A 
HETATM   14  C   UNL     1      19.176  49.328  48.825  1.00  0.00     0.002 A 
HETATM   15  C   UNL     1      20.161  48.667  49.566  1.00  0.00     0.024 A 
HETATM   16  C   UNL     1      23.739  46.697  48.401  1.00  0.00     0.068 C 
HETATM   17  C   UNL     1      23.559  45.376  49.135  1.00  0.00     0.129 C 
HETATM   18  O   UNL     1      24.565  42.932  49.837  1.00  0.00    -0.273 OA
HETATM   19  H   UNL     1      25.117  49.212  48.340  1.00  0.00     0.164 HD
HETATM   20  H   UNL     1      22.123  47.357  50.512  1.00  0.00     0.130 HD
ENDROOT
BRANCH   1  21
HETATM   21  C   UNL     1      25.709  43.689  51.797  1.00  0.00     0.123 C 
BRANCH  21  22
HETATM   22  C   UNL     1      27.176  44.031  51.557  1.00  0.00     0.138 C 
BRANCH  22  23
HETATM   23  N   UNL     1      27.901  44.162  52.815  1.00  0.00    -0.349 N 
HETATM   24  C   UNL     1      27.717  45.203  53.707  1.00  0.00     0.045 A 
HETATM   25  C   UNL     1      28.596  44.990  54.770  1.00  0.00    -0.001 A 
HETATM   26  C   UNL     1      26.854  46.313  53.668  1.00  0.00     0.030 A 
HETATM   27  C   UNL     1      29.319  43.787  54.499  1.00  0.00    -0.027 A 
HETATM   28  C   UNL     1      28.610  45.921  55.832  1.00  0.00     0.014 A 
HETATM   29  C   UNL     1      30.361  43.167  55.365  1.00  0.00     0.051 C 
HETATM   30  C   UNL     1      28.871  43.298  53.280  1.00  0.00     0.015 A 
HETATM   31  C   UNL     1      29.290  42.069  52.548  1.00  0.00     0.069 C 
HETATM   32  C   UNL     1      27.753  47.026  55.802  1.00  0.00     0.001 A 
HETATM   33  C   UNL     1      26.886  47.217  54.733  1.00  0.00     0.002 A 
ENDBRANCH  22  23
ENDBRANCH  21  22
ENDBRANCH   1  21
TORSDOF 3
ENDMDL
MODEL 5
REMARK VINA RESULT:      -9.7      5.574      8.672
REMARK  3 active torsions:
REMARK  status: ('A' for Active; 'I' for Inactive)
REMARK    1  A    between atoms: N_9  and  C_10 
REMARK    2  A    between atoms: C_10  and  C_11 
REMARK    3  A    between atoms: C_11  and  C_12 
REMARK       I    between atoms: C_12  and  N_13 
ROOT
HETATM    1  C   UNL     1      24.593  43.128  50.914  1.00  0.00     0.221 C 
HETATM    2  N   UNL     1      25.547  42.395  50.202  1.00  0.00    -0.352 N 
HETATM    3  C   UNL     1      26.948  42.804  50.083  1.00  0.00     0.129 C 
HETATM    4  C   UNL     1      27.879  41.613  49.893  1.00  0.00     0.068 C 
HETATM    5  C   UNL     1      27.432  40.687  48.752  1.00  0.00     0.094 C 
HETATM    6  N   UNL     1      28.282  39.515  48.755  1.00  0.00    -0.334 N 
HETATM    7  C   UNL     1      28.387  38.668  47.684  1.00  0.00     0.255 C 
HETATM    8  O   UNL     1      28.776  37.515  47.819  1.00  0.00    -0.268 OA
HETATM    9  C   UNL     1      28.032  39.234  46.370  1.00  0.00     0.053 A 
HETATM   10  C   UNL     1      27.653  40.579  46.321  1.00  0.00     0.026 A 
HETATM   11  N   UNL     1      27.634  41.375  47.475  1.00  0.00    -0.265 NA
HETATM   12  C   UNL     1      28.109  38.451  45.213  1.00  0.00     0.019 A 
HETATM   13  C   UNL     1      27.830  39.029  43.976  1.00  0.00     0.001 A 
HETATM   14  C   UNL     1      27.497  40.381  43.903  1.00  0.00     0.002 A 
HETATM   15  C   UNL     1      27.425  41.154  45.067  1.00  0.00     0.024 A 
HETATM   16  C   UNL     1      25.963  40.286  48.959  1.00  0.00     0.068 C 
HETATM   17  C   UNL     1      25.053  41.487  49.169  1.00  0.00     0.129 C 
HETATM   18  O   UNL     1      23.387  42.904  50.810  1.00  0.00    -0.273 OA
HETATM   19  H   UNL     1      28.462  39.052  49.635  1.00  0.00     0.164 HD
HETATM   20  H   UNL     1      27.068  42.209  47.351  1.00  0.00     0.130 HD
ENDROOT
BRANCH   1  21
HETATM   21  C   UNL     1      25.105  44.220  51.831  1.00  0.00     0.123 C 
BRANCH  21  22
HETATM   22  C   UNL     1      25.293  43.703  53.253  1.00  0.00     0.138 C 
BRANCH  22  23
HETATM   23  N   UNL     1      26.552  44.167  53.823  1.00  0.00    -0.349 N 
HETATM   24  C   UNL     1      26.779  45.466  54.239  1.00  0.00     0.045 A 
HETATM   25  C   UNL     1      28.094  45.523  54.703  1.00  0.00    -0.001 A 
HETATM   26  C   UNL     1      25.940  46.595  54.246  1.00  0.00     0.030 A 
HETATM   27  C   UNL     1      28.660  44.217  54.558  1.00  0.00    -0.027 A 
HETATM   28  C   UNL     1      28.586  46.753  55.191  1.00  0.00     0.014 A 
HETATM   29  C   UNL     1      30.043  43.807  54.930  1.00  0.00     0.051 C 
HETATM   30  C   UNL     1      27.684  43.399  54.006  1.00  0.00     0.015 A 
HETATM   31  C   UNL     1      27.754  41.950  53.663  1.00  0.00     0.069 C 
HETATM   32  C   UNL     1      27.758  47.880  55.205  1.00  0.00     0.001 A 
HETATM   33  C   UNL     1      26.451  47.799  54.738  1.00  0.00     0.002 A 
ENDBRANCH  22  23
ENDBRANCH  21  22
ENDBRANCH   1  21
TORSDOF 3
ENDMDL
MODEL 6
REMARK VINA RESULT:      -9.6      3.323      9.486
REMARK  3 active torsions:
REMARK  status: ('A' for Active; 'I' for Inactive)
REMARK    1  A    between atoms: N_9  and  C_10 
REMARK    2  A    between atoms: C_10  and  C_11 
REMARK    3  A    between atoms: C_11  and  C_12 
REMARK       I    between atoms: C_12  and  N_13 
ROOT
HETATM    1  C   UNL     1      26.883  44.216  50.402  1.00  0.00     0.221 C 
HETATM    2  N   UNL     1      25.535  44.156  50.037  1.00  0.00    -0.352 N 
HETATM    3  C   UNL     1      24.670  43.015  50.342  1.00  0.00     0.129 C 
HETATM    4  C   UNL     1      23.209  43.422  50.478  1.00  0.00     0.068 C 
HETATM    5  C   UNL     1      22.708  44.242  49.280  1.00  0.00     0.094 C 
HETATM    6  N   UNL     1      21.370  44.711  49.574  1.00  0.00    -0.334 N 
HETATM    7  C   UNL     1      20.511  45.167  48.609  1.00  0.00     0.255 C 
HETATM    8  O   UNL     1      19.572  45.901  48.888  1.00  0.00    -0.268 OA
HETATM    9  C   UNL     1      20.769  44.700  47.236  1.00  0.00     0.053 A 
HETATM   10  C   UNL     1      21.836  43.817  47.037  1.00  0.00     0.026 A 
HETATM   11  N   UNL     1      22.621  43.368  48.109  1.00  0.00    -0.265 NA
HETATM   12  C   UNL     1      19.947  45.105  46.179  1.00  0.00     0.019 A 
HETATM   13  C   UNL     1      20.174  44.597  44.902  1.00  0.00     0.001 A 
HETATM   14  C   UNL     1      21.203  43.680  44.694  1.00  0.00     0.002 A 
HETATM   15  C   UNL     1      22.018  43.280  45.759  1.00  0.00     0.024 A 
HETATM   16  C   UNL     1      23.652  45.430  49.037  1.00  0.00     0.068 C 
HETATM   17  C   UNL     1      25.109  45.005  48.927  1.00  0.00     0.129 C 
HETATM   18  O   UNL     1      27.648  45.061  49.940  1.00  0.00    -0.273 OA
HETATM   19  H   UNL     1      21.192  45.125  50.479  1.00  0.00     0.164 HD
HETATM   20  H   UNL     1      23.511  42.992  47.796  1.00  0.00     0.130 HD
ENDROOT
BRANCH   1  21
HETATM   21  C   UNL     1      27.372  43.189  51.403  1.00  0.00     0.123 C 
BRANCH  21  22
HETATM   22  C   UNL     1      26.673  43.352  52.748  1.00  0.00     0.138 C 
BRANCH  22  23
HETATM   23  N   UNL     1      27.314  44.384  53.556  1.00  0.00    -0.349 N 
HETATM   24  C   UNL     1      28.470  44.182  54.288  1.00  0.00     0.045 A 
HETATM   25  C   UNL     1      28.757  45.385  54.935  1.00  0.00    -0.001 A 
HETATM   26  C   UNL     1      29.285  43.046  54.437  1.00  0.00     0.030 A 
HETATM   27  C   UNL     1      27.742  46.325  54.572  1.00  0.00    -0.027 A 
HETATM   28  C   UNL     1      29.902  45.452  55.759  1.00  0.00     0.014 A 
HETATM   29  C   UNL     1      27.647  47.742  55.023  1.00  0.00     0.051 C 
HETATM   30  C   UNL     1      26.859  45.676  53.721  1.00  0.00     0.015 A 
HETATM   31  C   UNL     1      25.637  46.205  53.052  1.00  0.00     0.069 C 
HETATM   32  C   UNL     1      30.720  44.328  55.910  1.00  0.00     0.001 A 
HETATM   33  C   UNL     1      30.414  43.141  55.256  1.00  0.00     0.002 A 
ENDBRANCH  22  23
ENDBRANCH  21  22
ENDBRANCH   1  21
TORSDOF 3
ENDMDL
MODEL 7
REMARK VINA RESULT:      -9.5      2.867      9.077
REMARK  3 active torsions:
REMARK  status: ('A' for Active; 'I' for Inactive)
REMARK    1  A    between atoms: N_9  and  C_10 
REMARK    2  A    between atoms: C_10  and  C_11 
REMARK    3  A    between atoms: C_11  and  C_12 
REMARK       I    between atoms: C_12  and  N_13 
ROOT
HETATM    1  C   UNL     1      27.234  42.909  53.678  1.00  0.00     0.221 C 
HETATM    2  N   UNL     1      26.703  43.301  52.445  1.00  0.00    -0.352 N 
HETATM    3  C   UNL     1      27.530  43.730  51.316  1.00  0.00     0.129 C 
HETATM    4  C   UNL     1      26.862  43.450  49.976  1.00  0.00     0.068 C 
HETATM    5  C   UNL     1      25.428  43.997  49.903  1.00  0.00     0.094 C 
HETATM    6  N   UNL     1      24.830  43.546  48.664  1.00  0.00    -0.334 N 
HETATM    7  C   UNL     1      23.710  44.120  48.125  1.00  0.00     0.255 C 
HETATM    8  O   UNL     1      23.005  43.516  47.327  1.00  0.00    -0.268 OA
HETATM    9  C   UNL     1      23.425  45.506  48.540  1.00  0.00     0.053 A 
HETATM   10  C   UNL     1      24.327  46.122  49.413  1.00  0.00     0.026 A 
HETATM   11  N   UNL     1      25.479  45.459  49.862  1.00  0.00    -0.265 NA
HETATM   12  C   UNL     1      22.306  46.183  48.044  1.00  0.00     0.019 A 
HETATM   13  C   UNL     1      22.097  47.513  48.402  1.00  0.00     0.001 A 
HETATM   14  C   UNL     1      23.011  48.158  49.234  1.00  0.00     0.002 A 
HETATM   15  C   UNL     1      24.127  47.471  49.723  1.00  0.00     0.024 A 
HETATM   16  C   UNL     1      24.620  43.485  51.106  1.00  0.00     0.068 C 
HETATM   17  C   UNL     1      25.315  43.755  52.433  1.00  0.00     0.129 C 
HETATM   18  O   UNL     1      26.531  42.780  54.679  1.00  0.00    -0.273 OA
HETATM   19  H   UNL     1      24.931  42.574  48.404  1.00  0.00     0.164 HD
HETATM   20  H   UNL     1      25.865  45.891  50.696  1.00  0.00     0.130 HD
ENDROOT
BRANCH   1  21
HETATM   21  C   UNL     1      28.724  42.642  53.734  1.00  0.00     0.123 C 
BRANCH  21  22
HETATM   22  C   UNL     1      29.521  43.939  53.635  1.00  0.00     0.138 C 
BRANCH  22  23
HETATM   23  N   UNL     1      29.329  44.770  54.817  1.00  0.00    -0.349 N 
HETATM   24  C   UNL     1      28.405  45.796  54.897  1.00  0.00     0.045 A 
HETATM   25  C   UNL     1      28.534  46.363  56.166  1.00  0.00    -0.001 A 
HETATM   26  C   UNL     1      27.470  46.273  53.962  1.00  0.00     0.030 A 
HETATM   27  C   UNL     1      29.563  45.649  56.856  1.00  0.00    -0.027 A 
HETATM   28  C   UNL     1      27.695  47.445  56.510  1.00  0.00     0.014 A 
HETATM   29  C   UNL     1      30.036  45.903  58.245  1.00  0.00     0.051 C 
HETATM   30  C   UNL     1      30.041  44.671  55.995  1.00  0.00     0.015 A 
HETATM   31  C   UNL     1      31.104  43.653  56.226  1.00  0.00     0.069 C 
HETATM   32  C   UNL     1      26.759  47.924  55.587  1.00  0.00     0.001 A 
HETATM   33  C   UNL     1      26.650  47.344  54.330  1.00  0.00     0.002 A 
ENDBRANCH  22  23
ENDBRANCH  21  22
ENDBRANCH   1  21
TORSDOF 3
ENDMDL
MODEL 8
REMARK VINA RESULT:      -9.5      2.099      3.504
REMARK  3 active torsions:
REMARK  status: ('A' for Active; 'I' for Inactive)
REMARK    1  A    between atoms: N_9  and  C_10 
REMARK    2  A    between atoms: C_10  and  C_11 
REMARK    3  A    between atoms: C_11  and  C_12 
REMARK       I    between atoms: C_12  and  N_13 
ROOT
HETATM    1  C   UNL     1      22.923  45.046  49.520  1.00  0.00     0.221 C 
HETATM    2  N   UNL     1      24.025  45.284  50.347  1.00  0.00    -0.352 N 
HETATM    3  C   UNL     1      25.107  46.204  49.996  1.00  0.00     0.129 C 
HETATM    4  C   UNL     1      25.775  46.802  51.228  1.00  0.00     0.068 C 
HETATM    5  C   UNL     1      26.208  45.734  52.244  1.00  0.00     0.094 C 
HETATM    6  N   UNL     1      26.682  46.404  53.437  1.00  0.00    -0.334 N 
HETATM    7  C   UNL     1      27.451  45.783  54.385  1.00  0.00     0.255 C 
HETATM    8  O   UNL     1      27.515  46.208  55.531  1.00  0.00    -0.268 OA
HETATM    9  C   UNL     1      28.208  44.602  53.936  1.00  0.00     0.053 A 
HETATM   10  C   UNL     1      28.107  44.235  52.590  1.00  0.00     0.026 A 
HETATM   11  N   UNL     1      27.331  44.978  51.688  1.00  0.00    -0.265 NA
HETATM   12  C   UNL     1      29.026  43.899  54.827  1.00  0.00     0.019 A 
HETATM   13  C   UNL     1      29.781  42.824  54.361  1.00  0.00     0.001 A 
HETATM   14  C   UNL     1      29.729  42.475  53.012  1.00  0.00     0.002 A 
HETATM   15  C   UNL     1      28.909  43.186  52.130  1.00  0.00     0.024 A 
HETATM   16  C   UNL     1      25.015  44.824  52.577  1.00  0.00     0.068 C 
HETATM   17  C   UNL     1      24.350  44.256  51.333  1.00  0.00     0.129 C 
HETATM   18  O   UNL     1      22.151  44.107  49.714  1.00  0.00    -0.273 OA
HETATM   19  H   UNL     1      26.128  47.158  53.820  1.00  0.00     0.164 HD
HETATM   20  H   UNL     1      27.109  44.446  50.852  1.00  0.00     0.130 HD
ENDROOT
BRANCH   1  21
HETATM   21  C   UNL     1      22.710  46.000  48.363  1.00  0.00     0.123 C 
BRANCH  21  22
HETATM   22  C   UNL     1      21.233  46.336  48.187  1.00  0.00     0.138 C 
BRANCH  22  23
HETATM   23  N   UNL     1      20.946  47.700  48.616  1.00  0.00    -0.349 N 
HETATM   24  C   UNL     1      21.856  48.739  48.541  1.00  0.00     0.045 A 
HETATM   25  C   UNL     1      21.224  49.872  49.058  1.00  0.00    -0.001 A 
HETATM   26  C   UNL     1      23.178  48.779  48.066  1.00  0.00     0.030 A 
HETATM   27  C   UNL     1      19.902  49.490  49.446  1.00  0.00    -0.027 A 
HETATM   28  C   UNL     1      21.943  51.087  49.098  1.00  0.00     0.014 A 
HETATM   29  C   UNL     1      18.865  50.377  50.042  1.00  0.00     0.051 C 
HETATM   30  C   UNL     1      19.759  48.138  49.165  1.00  0.00     0.015 A 
HETATM   31  C   UNL     1      18.576  47.255  49.368  1.00  0.00     0.069 C 
HETATM   32  C   UNL     1      23.258  51.136  48.624  1.00  0.00     0.001 A 
HETATM   33  C   UNL     1      23.866  49.995  48.115  1.00  0.00     0.002 A 
ENDBRANCH  22  23
ENDBRANCH  21  22
ENDBRANCH   1  21
TORSDOF 3
ENDMDL
MODEL 9
REMARK VINA RESULT:      -9.5      1.869      9.934
REMARK  3 active torsions:
REMARK  status: ('A' for Active; 'I' for Inactive)
REMARK    1  A    between atoms: N_9  and  C_10 
REMARK    2  A    between atoms: C_10  and  C_11 
REMARK    3  A    between atoms: C_11  and  C_12 
REMARK       I    between atoms: C_12  and  N_13 
ROOT
HETATM    1  C   UNL     1      24.961  45.019  49.451  1.00  0.00     0.221 C 
HETATM    2  N   UNL     1      24.087  46.097  49.284  1.00  0.00    -0.352 N 
HETATM    3  C   UNL     1      24.035  47.238  50.199  1.00  0.00     0.129 C 
HETATM    4  C   UNL     1      23.569  48.511  49.505  1.00  0.00     0.068 C 
HETATM    5  C   UNL     1      22.260  48.315  48.725  1.00  0.00     0.094 C 
HETATM    6  N   UNL     1      21.987  49.526  47.979  1.00  0.00    -0.334 N 
HETATM    7  C   UNL     1      20.754  49.821  47.462  1.00  0.00     0.255 C 
HETATM    8  O   UNL     1      20.624  50.611  46.536  1.00  0.00    -0.268 OA
HETATM    9  C   UNL     1      19.605  49.158  48.103  1.00  0.00     0.053 A 
HETATM   10  C   UNL     1      19.861  48.318  49.191  1.00  0.00     0.026 A 
HETATM   11  N   UNL     1      21.163  48.128  49.677  1.00  0.00    -0.265 NA
HETATM   12  C   UNL     1      18.302  49.396  47.652  1.00  0.00     0.019 A 
HETATM   13  C   UNL     1      17.229  48.806  48.317  1.00  0.00     0.001 A 
HETATM   14  C   UNL     1      17.463  48.004  49.433  1.00  0.00     0.002 A 
HETATM   15  C   UNL     1      18.770  47.774  49.876  1.00  0.00     0.024 A 
HETATM   16  C   UNL     1      22.401  47.118  47.773  1.00  0.00     0.068 C 
HETATM   17  C   UNL     1      22.888  45.863  48.481  1.00  0.00     0.129 C 
HETATM   18  O   UNL     1      24.833  43.971  48.819  1.00  0.00    -0.273 OA
HETATM   19  H   UNL     1      22.740  49.948  47.452  1.00  0.00     0.164 HD
HETATM   20  H   UNL     1      21.237  47.291  50.247  1.00  0.00     0.130 HD
ENDROOT
BRANCH   1  21
HETATM   21  C   UNL     1      26.087  45.193  50.450  1.00  0.00     0.123 C 
BRANCH  21  22
HETATM   22  C   UNL     1      25.772  44.489  51.765  1.00  0.00     0.138 C 
BRANCH  22  23
HETATM   23  N   UNL     1      26.761  44.809  52.787  1.00  0.00    -0.349 N 
HETATM   24  C   UNL     1      27.863  44.020  53.068  1.00  0.00     0.045 A 
HETATM   25  C   UNL     1      28.555  44.642  54.109  1.00  0.00    -0.001 A 
HETATM   26  C   UNL     1      28.307  42.815  52.498  1.00  0.00     0.030 A 
HETATM   27  C   UNL     1      27.842  45.834  54.451  1.00  0.00    -0.027 A 
HETATM   28  C   UNL     1      29.733  44.034  54.594  1.00  0.00     0.014 A 
HETATM   29  C   UNL     1      28.218  46.817  55.504  1.00  0.00     0.051 C 
HETATM   30  C   UNL     1      26.734  45.909  53.619  1.00  0.00     0.015 A 
HETATM   31  C   UNL     1      25.674  46.956  53.556  1.00  0.00     0.069 C 
HETATM   32  C   UNL     1      30.184  42.837  54.030  1.00  0.00     0.001 A 
HETATM   33  C   UNL     1      29.478  42.236  52.995  1.00  0.00     0.002 A 
ENDBRANCH  22  23
ENDBRANCH  21  22
ENDBRANCH   1  21
TORSDOF 3
ENDMDL
MODEL 10
REMARK VINA RESULT:      -9.4      5.620      9.352
REMARK  3 active torsions:
REMARK  status: ('A' for Active; 'I' for Inactive)
REMARK    1  A    between atoms: N_9  and  C_10 
REMARK    2  A    between atoms: C_10  and  C_11 
REMARK    3  A    between atoms: C_11  and  C_12 
REMARK       I    between atoms: C_12  and  N_13 
ROOT
HETATM    1  C   UNL     1      26.851  43.315  50.064  1.00  0.00     0.221 C 
HETATM    2  N   UNL     1      26.933  41.990  49.623  1.00  0.00    -0.352 N 
HETATM    3  C   UNL     1      28.022  41.086  49.997  1.00  0.00     0.129 C 
HETATM    4  C   UNL     1      27.583  39.628  49.995  1.00  0.00     0.068 C 
HETATM    5  C   UNL     1      26.894  39.218  48.685  1.00  0.00     0.094 C 
HETATM    6  N   UNL     1      26.377  37.874  48.841  1.00  0.00    -0.334 N 
HETATM    7  C   UNL     1      26.020  37.085  47.780  1.00  0.00     0.255 C 
HETATM    8  O   UNL     1      25.247  36.146  47.917  1.00  0.00    -0.268 OA
HETATM    9  C   UNL     1      26.640  37.417  46.485  1.00  0.00     0.053 A 
HETATM   10  C   UNL     1      27.553  38.476  46.452  1.00  0.00     0.026 A 
HETATM   11  N   UNL     1      27.891  39.185  47.614  1.00  0.00    -0.265 NA
HETATM   12  C   UNL     1      26.343  36.669  45.341  1.00  0.00     0.019 A 
HETATM   13  C   UNL     1      26.992  36.964  44.143  1.00  0.00     0.001 A 
HETATM   14  C   UNL     1      27.941  37.985  44.103  1.00  0.00     0.002 A 
HETATM   15  C   UNL     1      28.230  38.725  45.254  1.00  0.00     0.024 A 
HETATM   16  C   UNL     1      25.753  40.199  48.374  1.00  0.00     0.068 C 
HETATM   17  C   UNL     1      26.207  41.651  48.402  1.00  0.00     0.129 C 
HETATM   18  O   UNL     1      26.072  44.123  49.561  1.00  0.00    -0.273 OA
HETATM   19  H   UNL     1      25.864  37.649  49.682  1.00  0.00     0.164 HD
HETATM   20  H   UNL     1      28.311  40.084  47.400  1.00  0.00     0.130 HD
ENDROOT
BRANCH   1  21
HETATM   21  C   UNL     1      27.768  43.721  51.201  1.00  0.00     0.123 C 
BRANCH  21  22
HETATM   22  C   UNL     1      27.084  43.542  52.552  1.00  0.00     0.138 C 
BRANCH  22  23
HETATM   23  N   UNL     1      27.564  44.520  53.521  1.00  0.00    -0.349 N 
HETATM   24  C   UNL     1      28.670  44.327  54.329  1.00  0.00     0.045 A 
HETATM   25  C   UNL     1      28.796  45.466  55.127  1.00  0.00    -0.001 A 
HETATM   26  C   UNL     1      29.566  43.249  54.427  1.00  0.00     0.030 A 
HETATM   27  C   UNL     1      27.735  46.358  54.777  1.00  0.00    -0.027 A 
HETATM   28  C   UNL     1      29.859  45.526  56.054  1.00  0.00     0.014 A 
HETATM   29  C   UNL     1      27.479  47.702  55.367  1.00  0.00     0.051 C 
HETATM   30  C   UNL     1      26.985  45.745  53.783  1.00  0.00     0.015 A 
HETATM   31  C   UNL     1      25.780  46.250  53.067  1.00  0.00     0.069 C 
HETATM   32  C   UNL     1      30.758  44.460  56.156  1.00  0.00     0.001 A 
HETATM   33  C   UNL     1      30.612  43.336  55.352  1.00  0.00     0.002 A 
ENDBRANCH  22  23
ENDBRANCH  21  22
ENDBRANCH   1  21
TORSDOF 3
ENDMDL
