MODEL 1
REMARK VINA RESULT:      -9.1      0.000      0.000
REMARK  7 active torsions:
REMARK  status: ('A' for Active; 'I' for Inactive)
REMARK    1  A    between atoms: C_2  and  O_3 
REMARK    2  A    between atoms: O_3  and  C_4 
REMARK    3  A    between atoms: C_5  and  N_6 
REMARK       I    between atoms: N_6  and  C_7 
REMARK    4  A    between atoms: C_7  and  C_8 
REMARK    5  A    between atoms: C_8  and  S_9 
REMARK    6  A    between atoms: S_9  and  C_10 
REMARK    7  A    between atoms: N_11  and  C_12 
ROOT
HETATM    1  C   UNL     1      26.211  44.083  52.177  1.00  0.00     0.177 A 
HETATM    2  N   UNL     1      27.109  43.043  51.848  1.00  0.00    -0.276 N 
HETATM    3  C   UNL     1      28.311  42.922  52.639  1.00  0.00     0.124 A 
HETATM    4  N   UNL     1      29.262  42.045  52.378  1.00  0.00    -0.384 N 
HETATM    5  H   UNL     1      30.100  42.005  52.939  1.00  0.00     0.157 HD
HETATM    6  H   UNL     1      29.171  41.415  51.592  1.00  0.00     0.157 HD
HETATM    7  C   UNL     1      28.456  43.845  53.718  1.00  0.00     0.081 A 
HETATM    8  C   UNL     1      27.475  44.814  53.901  1.00  0.00     0.187 A 
HETATM    9  N   UNL     1      27.734  45.608  54.931  1.00  0.00    -0.153 NA
HETATM   10  N   UNL     1      28.893  45.126  55.415  1.00  0.00    -0.280 N 
HETATM   11  H   UNL     1      29.292  45.579  56.232  1.00  0.00     0.189 HD
HETATM   12  C   UNL     1      29.394  44.055  54.703  1.00  0.00     0.042 A 
HETATM   13  C   UNL     1      30.671  43.407  55.070  1.00  0.00     0.071 C 
HETATM   14  N   UNL     1      26.341  44.975  53.116  1.00  0.00    -0.202 NA
ENDROOT
BRANCH   1  15
HETATM   15  S   UNL     1      24.722  44.285  51.209  1.00  0.00    -0.082 SA
BRANCH  15  16
HETATM   16  C   UNL     1      25.326  45.452  49.958  1.00  0.00     0.185 C 
BRANCH  16  17
HETATM   17  C   UNL     1      24.724  46.831  50.176  1.00  0.00     0.232 C 
HETATM   18  N   UNL     1      23.820  47.189  49.185  1.00  0.00    -0.324 N 
HETATM   19  H   UNL     1      23.219  46.450  48.842  1.00  0.00     0.169 HD
HETATM   20  O   UNL     1      24.975  47.511  51.171  1.00  0.00    -0.272 OA
BRANCH  18  21
HETATM   21  C   UNL     1      23.373  48.514  49.001  1.00  0.00     0.068 A 
HETATM   22  C   UNL     1      24.209  49.532  48.510  1.00  0.00     0.095 A 
HETATM   23  C   UNL     1      23.706  50.823  48.326  1.00  0.00     0.039 A 
HETATM   24  C   UNL     1      22.376  51.106  48.643  1.00  0.00     0.003 A 
HETATM   25  C   UNL     1      21.536  50.092  49.100  1.00  0.00     0.002 A 
HETATM   26  C   UNL     1      22.027  48.794  49.260  1.00  0.00     0.032 A 
BRANCH  22  27
HETATM   27  O   UNL     1      25.440  49.207  47.994  1.00  0.00    -0.349 OA
BRANCH  27  28
HETATM   28  C   UNL     1      26.497  50.043  48.474  1.00  0.00     0.171 C 
HETATM   29  C   UNL     1      27.587  49.185  49.089  1.00  0.00     0.034 C 
ENDBRANCH  27  28
ENDBRANCH  22  27
ENDBRANCH  18  21
ENDBRANCH  16  17
ENDBRANCH  15  16
ENDBRANCH   1  15
BRANCH   2  30
HETATM   30  C   UNL     1      26.855  42.125  50.786  1.00  0.00     0.043 A 
HETATM   31  C   UNL     1      27.230  42.425  49.468  1.00  0.00     0.031 A 
HETATM   32  C   UNL     1      27.046  41.488  48.447  1.00  0.00     0.021 A 
HETATM   33  C   UNL     1      26.498  40.241  48.744  1.00  0.00     0.011 A 
HETATM   34 BR   UNL     1      26.264  38.969  47.368  1.00  0.00    -0.051 Br
HETATM   35  C   UNL     1      26.128  39.925  50.050  1.00  0.00     0.021 A 
HETATM   36  C   UNL     1      26.305  40.865  51.068  1.00  0.00     0.031 A 
ENDBRANCH   2  30
TORSDOF 7
ENDMDL
MODEL 2
REMARK VINA RESULT:      -9.0      2.561      4.691
REMARK  7 active torsions:
REMARK  status: ('A' for Active; 'I' for Inactive)
REMARK    1  A    between atoms: C_2  and  O_3 
REMARK    2  A    between atoms: O_3  and  C_4 
REMARK    3  A    between atoms: C_5  and  N_6 
REMARK       I    between atoms: N_6  and  C_7 
REMARK    4  A    between atoms: C_7  and  C_8 
REMARK    5  A    between atoms: C_8  and  S_9 
REMARK    6  A    between atoms: S_9  and  C_10 
REMARK    7  A    between atoms: N_11  and  C_12 
ROOT
HETATM    1  C   UNL     1      26.284  43.091  50.913  1.00  0.00     0.177 A 
HETATM    2  N   UNL     1      27.256  42.304  51.571  1.00  0.00    -0.276 N 
HETATM    3  C   UNL     1      27.406  40.933  51.145  1.00  0.00     0.124 A 
HETATM    4  N   UNL     1      28.220  40.078  51.735  1.00  0.00    -0.384 N 
HETATM    5  H   UNL     1      28.281  39.120  51.425  1.00  0.00     0.157 HD
HETATM    6  H   UNL     1      28.777  40.371  52.526  1.00  0.00     0.157 HD
HETATM    7  C   UNL     1      26.581  40.512  50.058  1.00  0.00     0.081 A 
HETATM    8  C   UNL     1      25.669  41.417  49.525  1.00  0.00     0.187 A 
HETATM    9  N   UNL     1      24.964  40.898  48.529  1.00  0.00    -0.153 NA
HETATM   10  N   UNL     1      25.448  39.647  48.422  1.00  0.00    -0.280 N 
HETATM   11  H   UNL     1      25.057  39.048  47.701  1.00  0.00     0.189 HD
HETATM   12  C   UNL     1      26.429  39.346  49.343  1.00  0.00     0.042 A 
HETATM   13  C   UNL     1      27.062  38.010  49.396  1.00  0.00     0.071 C 
HETATM   14  N   UNL     1      25.478  42.722  49.960  1.00  0.00    -0.202 NA
ENDROOT
BRANCH   1  15
HETATM   15  S   UNL     1      26.047  44.788  51.423  1.00  0.00    -0.082 SA
BRANCH  15  16
HETATM   16  C   UNL     1      25.399  45.484  49.878  1.00  0.00     0.185 C 
BRANCH  16  17
HETATM   17  C   UNL     1      24.754  46.838  50.130  1.00  0.00     0.232 C 
HETATM   18  N   UNL     1      23.911  47.235  49.100  1.00  0.00    -0.324 N 
HETATM   19  H   UNL     1      23.351  46.505  48.678  1.00  0.00     0.169 HD
HETATM   20  O   UNL     1      24.924  47.466  51.175  1.00  0.00    -0.272 OA
BRANCH  18  21
HETATM   21  C   UNL     1      23.450  48.560  48.959  1.00  0.00     0.068 A 
HETATM   22  C   UNL     1      24.270  49.600  48.489  1.00  0.00     0.095 A 
HETATM   23  C   UNL     1      23.753  50.891  48.347  1.00  0.00     0.039 A 
HETATM   24  C   UNL     1      22.423  51.151  48.684  1.00  0.00     0.003 A 
HETATM   25  C   UNL     1      21.598  50.116  49.120  1.00  0.00     0.002 A 
HETATM   26  C   UNL     1      22.104  48.819  49.238  1.00  0.00     0.032 A 
BRANCH  22  27
HETATM   27  O   UNL     1      25.500  49.302  47.952  1.00  0.00    -0.349 OA
BRANCH  27  28
HETATM   28  C   UNL     1      26.566  50.073  48.511  1.00  0.00     0.171 C 
HETATM   29  C   UNL     1      27.634  49.146  49.060  1.00  0.00     0.034 C 
ENDBRANCH  27  28
ENDBRANCH  22  27
ENDBRANCH  18  21
ENDBRANCH  16  17
ENDBRANCH  15  16
ENDBRANCH   1  15
BRANCH   2  30
HETATM   30  C   UNL     1      28.080  42.826  52.611  1.00  0.00     0.043 A 
HETATM   31  C   UNL     1      27.530  43.212  53.843  1.00  0.00     0.031 A 
HETATM   32  C   UNL     1      28.356  43.650  54.882  1.00  0.00     0.021 A 
HETATM   33  C   UNL     1      29.737  43.690  54.698  1.00  0.00     0.011 A 
HETATM   34 BR   UNL     1      30.854  44.266  56.108  1.00  0.00    -0.051 Br
HETATM   35  C   UNL     1      30.299  43.302  53.484  1.00  0.00     0.021 A 
HETATM   36  C   UNL     1      29.473  42.872  52.443  1.00  0.00     0.031 A 
ENDBRANCH   2  30
TORSDOF 7
ENDMDL
MODEL 3
REMARK VINA RESULT:      -8.9      1.213      2.374
REMARK  7 active torsions:
REMARK  status: ('A' for Active; 'I' for Inactive)
REMARK    1  A    between atoms: C_2  and  O_3 
REMARK    2  A    between atoms: O_3  and  C_4 
REMARK    3  A    between atoms: C_5  and  N_6 
REMARK       I    between atoms: N_6  and  C_7 
REMARK    4  A    between atoms: C_7  and  C_8 
REMARK    5  A    between atoms: C_8  and  S_9 
REMARK    6  A    between atoms: S_9  and  C_10 
REMARK    7  A    between atoms: N_11  and  C_12 
ROOT
HETATM    1  C   UNL     1      25.709  43.220  51.730  1.00  0.00     0.177 A 
HETATM    2  N   UNL     1      26.856  42.444  51.447  1.00  0.00    -0.276 N 
HETATM    3  C   UNL     1      28.007  42.614  52.301  1.00  0.00     0.124 A 
HETATM    4  N   UNL     1      29.160  42.009  52.090  1.00  0.00    -0.384 N 
HETATM    5  H   UNL     1      29.951  42.171  52.695  1.00  0.00     0.157 HD
HETATM    6  H   UNL     1      29.270  41.389  51.298  1.00  0.00     0.157 HD
HETATM    7  C   UNL     1      27.859  43.527  53.389  1.00  0.00     0.081 A 
HETATM    8  C   UNL     1      26.659  44.216  53.522  1.00  0.00     0.187 A 
HETATM    9  N   UNL     1      26.656  45.033  54.567  1.00  0.00    -0.153 NA
HETATM   10  N   UNL     1      27.873  44.848  55.111  1.00  0.00    -0.280 N 
HETATM   11  H   UNL     1      28.102  45.373  55.950  1.00  0.00     0.189 HD
HETATM   12  C   UNL     1      28.662  43.949  54.424  1.00  0.00     0.042 A 
HETATM   13  C   UNL     1      30.041  43.636  54.858  1.00  0.00     0.071 C 
HETATM   14  N   UNL     1      25.563  44.101  52.677  1.00  0.00    -0.202 NA
ENDROOT
BRANCH   1  15
HETATM   15  S   UNL     1      24.269  43.058  50.684  1.00  0.00    -0.082 SA
BRANCH  15  16
HETATM   16  C   UNL     1      23.733  44.791  50.632  1.00  0.00     0.185 C 
BRANCH  16  17
HETATM   17  C   UNL     1      24.749  45.644  49.889  1.00  0.00     0.232 C 
HETATM   18  N   UNL     1      24.818  46.945  50.370  1.00  0.00    -0.324 N 
HETATM   19  H   UNL     1      24.740  47.053  51.373  1.00  0.00     0.169 HD
HETATM   20  O   UNL     1      25.473  45.188  49.003  1.00  0.00    -0.272 OA
BRANCH  18  21
HETATM   21  C   UNL     1      25.445  47.990  49.660  1.00  0.00     0.068 A 
HETATM   22  C   UNL     1      24.726  48.908  48.874  1.00  0.00     0.095 A 
HETATM   23  C   UNL     1      25.398  49.938  48.210  1.00  0.00     0.039 A 
HETATM   24  C   UNL     1      26.786  50.049  48.316  1.00  0.00     0.003 A 
HETATM   25  C   UNL     1      27.498  49.160  49.120  1.00  0.00     0.002 A 
HETATM   26  C   UNL     1      26.827  48.145  49.807  1.00  0.00     0.032 A 
BRANCH  22  27
HETATM   27  O   UNL     1      23.354  48.934  48.948  1.00  0.00    -0.349 OA
BRANCH  27  28
HETATM   28  C   UNL     1      22.767  50.020  48.227  1.00  0.00     0.171 C 
HETATM   29  C   UNL     1      21.847  50.803  49.145  1.00  0.00     0.034 C 
ENDBRANCH  27  28
ENDBRANCH  22  27
ENDBRANCH  18  21
ENDBRANCH  16  17
ENDBRANCH  15  16
ENDBRANCH   1  15
BRANCH   2  30
HETATM   30  C   UNL     1      26.896  41.510  50.370  1.00  0.00     0.043 A 
HETATM   31  C   UNL     1      27.318  41.901  49.090  1.00  0.00     0.031 A 
HETATM   32  C   UNL     1      27.426  40.961  48.061  1.00  0.00     0.021 A 
HETATM   33  C   UNL     1      27.125  39.623  48.312  1.00  0.00     0.011 A 
HETATM   34 BR   UNL     1      27.286  38.350  46.926  1.00  0.00    -0.051 Br
HETATM   35  C   UNL     1      26.712  39.217  49.579  1.00  0.00     0.021 A 
HETATM   36  C   UNL     1      26.597  40.158  50.605  1.00  0.00     0.031 A 
ENDBRANCH   2  30
TORSDOF 7
ENDMDL
MODEL 4
REMARK VINA RESULT:      -8.8      2.209      3.434
REMARK  7 active torsions:
REMARK  status: ('A' for Active; 'I' for Inactive)
REMARK    1  A    between atoms: C_2  and  O_3 
REMARK    2  A    between atoms: O_3  and  C_4 
REMARK    3  A    between atoms: C_5  and  N_6 
REMARK       I    between atoms: N_6  and  C_7 
REMARK    4  A    between atoms: C_7  and  C_8 
REMARK    5  A    between atoms: C_8  and  S_9 
REMARK    6  A    between atoms: S_9  and  C_10 
REMARK    7  A    between atoms: N_11  and  C_12 
ROOT
HETATM    1  C   UNL     1      25.372  46.470  51.739  1.00  0.00     0.177 A 
HETATM    2  N   UNL     1      26.057  45.254  51.959  1.00  0.00    -0.276 N 
HETATM    3  C   UNL     1      26.865  45.147  53.150  1.00  0.00     0.124 A 
HETATM    4  N   UNL     1      27.614  44.096  53.424  1.00  0.00    -0.384 N 
HETATM    5  H   UNL     1      28.184  44.065  54.256  1.00  0.00     0.157 HD
HETATM    6  H   UNL     1      27.642  43.312  52.785  1.00  0.00     0.157 HD
HETATM    7  C   UNL     1      26.857  46.275  54.025  1.00  0.00     0.081 A 
HETATM    8  C   UNL     1      26.129  47.400  53.655  1.00  0.00     0.187 A 
HETATM    9  N   UNL     1      26.212  48.375  54.550  1.00  0.00    -0.153 NA
HETATM   10  N   UNL     1      26.997  47.853  55.509  1.00  0.00    -0.280 N 
HETATM   11  H   UNL     1      27.197  48.427  56.323  1.00  0.00     0.189 HD
HETATM   12  C   UNL     1      27.438  46.574  55.237  1.00  0.00     0.042 A 
HETATM   13  C   UNL     1      28.331  45.846  56.164  1.00  0.00     0.071 C 
HETATM   14  N   UNL     1      25.391  47.536  52.486  1.00  0.00    -0.202 NA
ENDROOT
BRANCH   1  15
HETATM   15  S   UNL     1      24.380  46.656  50.264  1.00  0.00    -0.082 SA
BRANCH  15  16
HETATM   16  C   UNL     1      25.174  48.120  49.543  1.00  0.00     0.185 C 
BRANCH  16  17
HETATM   17  C   UNL     1      24.146  48.999  48.849  1.00  0.00     0.232 C 
HETATM   18  N   UNL     1      22.970  49.133  49.575  1.00  0.00    -0.324 N 
HETATM   19  H   UNL     1      23.074  49.214  50.579  1.00  0.00     0.169 HD
HETATM   20  O   UNL     1      24.381  49.577  47.787  1.00  0.00    -0.272 OA
BRANCH  18  21
HETATM   21  C   UNL     1      21.778  49.632  49.013  1.00  0.00     0.068 A 
HETATM   22  C   UNL     1      20.837  48.803  48.377  1.00  0.00     0.095 A 
HETATM   23  C   UNL     1      19.660  49.350  47.857  1.00  0.00     0.039 A 
HETATM   24  C   UNL     1      19.424  50.723  47.956  1.00  0.00     0.003 A 
HETATM   25  C   UNL     1      20.340  51.543  48.613  1.00  0.00     0.002 A 
HETATM   26  C   UNL     1      21.504  50.996  49.158  1.00  0.00     0.032 A 
BRANCH  22  27
HETATM   27  O   UNL     1      20.962  47.438  48.475  1.00  0.00    -0.349 OA
BRANCH  27  28
HETATM   28  C   UNL     1      19.728  46.773  48.759  1.00  0.00     0.171 C 
HETATM   29  C   UNL     1      19.861  45.295  48.445  1.00  0.00     0.034 C 
ENDBRANCH  27  28
ENDBRANCH  22  27
ENDBRANCH  18  21
ENDBRANCH  16  17
ENDBRANCH  15  16
ENDBRANCH   1  15
BRANCH   2  30
HETATM   30  C   UNL     1      25.960  44.153  51.058  1.00  0.00     0.043 A 
HETATM   31  C   UNL     1      26.945  43.929  50.083  1.00  0.00     0.031 A 
HETATM   32  C   UNL     1      26.880  42.804  49.256  1.00  0.00     0.021 A 
HETATM   33  C   UNL     1      25.838  41.891  49.409  1.00  0.00     0.011 A 
HETATM   34 BR   UNL     1      25.760  40.363  48.302  1.00  0.00    -0.051 Br
HETATM   35  C   UNL     1      24.857  42.095  50.377  1.00  0.00     0.021 A 
HETATM   36  C   UNL     1      24.918  43.223  51.199  1.00  0.00     0.031 A 
ENDBRANCH   2  30
TORSDOF 7
ENDMDL
MODEL 5
REMARK VINA RESULT:      -8.7      2.759      5.228
REMARK  7 active torsions:
REMARK  status: ('A' for Active; 'I' for Inactive)
REMARK    1  A    between atoms: C_2  and  O_3 
REMARK    2  A    between atoms: O_3  and  C_4 
REMARK    3  A    between atoms: C_5  and  N_6 
REMARK       I    between atoms: N_6  and  C_7 
REMARK    4  A    between atoms: C_7  and  C_8 
REMARK    5  A    between atoms: C_8  and  S_9 
REMARK    6  A    between atoms: S_9  and  C_10 
REMARK    7  A    between atoms: N_11  and  C_12 
ROOT
HETATM    1  C   UNL     1      26.565  43.224  50.893  1.00  0.00     0.177 A 
HETATM    2  N   UNL     1      27.445  42.377  51.604  1.00  0.00    -0.276 N 
HETATM    3  C   UNL     1      27.509  40.991  51.205  1.00  0.00     0.124 A 
HETATM    4  N   UNL     1      28.229  40.088  51.843  1.00  0.00    -0.384 N 
HETATM    5  H   UNL     1      28.230  39.123  51.549  1.00  0.00     0.157 HD
HETATM    6  H   UNL     1      28.773  40.352  52.653  1.00  0.00     0.157 HD
HETATM    7  C   UNL     1      26.701  40.615  50.090  1.00  0.00     0.081 A 
HETATM    8  C   UNL     1      25.884  41.576  49.504  1.00  0.00     0.187 A 
HETATM    9  N   UNL     1      25.185  41.095  48.486  1.00  0.00    -0.153 NA
HETATM   10  N   UNL     1      25.575  39.809  48.418  1.00  0.00    -0.280 N 
HETATM   11  H   UNL     1      25.171  39.228  47.689  1.00  0.00     0.189 HD
HETATM   12  C   UNL     1      26.491  39.451  49.386  1.00  0.00     0.042 A 
HETATM   13  C   UNL     1      27.017  38.072  49.486  1.00  0.00     0.071 C 
HETATM   14  N   UNL     1      25.774  42.899  49.911  1.00  0.00    -0.202 NA
ENDROOT
BRANCH   1  15
HETATM   15  S   UNL     1      26.437  44.942  51.368  1.00  0.00    -0.082 SA
BRANCH  15  16
HETATM   16  C   UNL     1      24.707  45.256  50.915  1.00  0.00     0.185 C 
BRANCH  16  17
HETATM   17  C   UNL     1      24.476  46.741  50.682  1.00  0.00     0.232 C 
HETATM   18  N   UNL     1      23.574  46.993  49.657  1.00  0.00    -0.324 N 
HETATM   19  H   UNL     1      22.781  46.367  49.599  1.00  0.00     0.169 HD
HETATM   20  O   UNL     1      24.993  47.608  51.387  1.00  0.00    -0.272 OA
BRANCH  18  21
HETATM   21  C   UNL     1      23.434  48.262  49.058  1.00  0.00     0.068 A 
HETATM   22  C   UNL     1      22.179  48.820  48.755  1.00  0.00     0.095 A 
HETATM   23  C   UNL     1      22.099  50.092  48.182  1.00  0.00     0.039 A 
HETATM   24  C   UNL     1      23.266  50.805  47.896  1.00  0.00     0.003 A 
HETATM   25  C   UNL     1      24.510  50.268  48.224  1.00  0.00     0.002 A 
HETATM   26  C   UNL     1      24.593  49.008  48.822  1.00  0.00     0.032 A 
BRANCH  22  27
HETATM   27  O   UNL     1      21.039  48.222  49.235  1.00  0.00    -0.349 OA
BRANCH  27  28
HETATM   28  C   UNL     1      20.008  49.153  49.574  1.00  0.00     0.171 C 
HETATM   29  C   UNL     1      18.878  48.429  50.282  1.00  0.00     0.034 C 
ENDBRANCH  27  28
ENDBRANCH  22  27
ENDBRANCH  18  21
ENDBRANCH  16  17
ENDBRANCH  15  16
ENDBRANCH   1  15
BRANCH   2  30
HETATM   30  C   UNL     1      28.262  42.853  52.672  1.00  0.00     0.043 A 
HETATM   31  C   UNL     1      27.692  43.279  53.881  1.00  0.00     0.031 A 
HETATM   32  C   UNL     1      28.505  43.672  54.948  1.00  0.00     0.021 A 
HETATM   33  C   UNL     1      29.892  43.627  54.814  1.00  0.00     0.011 A 
HETATM   34 BR   UNL     1      30.991  44.142  56.262  1.00  0.00    -0.051 Br
HETATM   35  C   UNL     1      30.473  43.199  53.623  1.00  0.00     0.021 A 
HETATM   36  C   UNL     1      29.660  42.814  52.554  1.00  0.00     0.031 A 
ENDBRANCH   2  30
TORSDOF 7
ENDMDL
MODEL 6
REMARK VINA RESULT:      -8.4      3.570      5.460
REMARK  7 active torsions:
REMARK  status: ('A' for Active; 'I' for Inactive)
REMARK    1  A    between atoms: C_2  and  O_3 
REMARK    2  A    between atoms: O_3  and  C_4 
REMARK    3  A    between atoms: C_5  and  N_6 
REMARK       I    between atoms: N_6  and  C_7 
REMARK    4  A    between atoms: C_7  and  C_8 
REMARK    5  A    between atoms: C_8  and  S_9 
REMARK    6  A    between atoms: S_9  and  C_10 
REMARK    7  A    between atoms: N_11  and  C_12 
ROOT
HETATM    1  C   UNL     1      23.907  47.099  49.611  1.00  0.00     0.177 A 
HETATM    2  N   UNL     1      23.641  45.712  49.583  1.00  0.00    -0.276 N 
HETATM    3  C   UNL     1      24.200  44.902  50.640  1.00  0.00     0.124 A 
HETATM    4  N   UNL     1      24.091  43.588  50.678  1.00  0.00    -0.384 N 
HETATM    5  H   UNL     1      24.515  43.052  51.420  1.00  0.00     0.157 HD
HETATM    6  H   UNL     1      23.596  43.098  49.944  1.00  0.00     0.157 HD
HETATM    7  C   UNL     1      24.938  45.595  51.647  1.00  0.00     0.081 A 
HETATM    8  C   UNL     1      25.111  46.969  51.520  1.00  0.00     0.187 A 
HETATM    9  N   UNL     1      25.817  47.486  52.516  1.00  0.00    -0.153 NA
HETATM   10  N   UNL     1      26.087  46.421  53.293  1.00  0.00    -0.280 N 
HETATM   11  H   UNL     1      26.623  46.577  54.142  1.00  0.00     0.189 HD
HETATM   12  C   UNL     1      25.589  45.231  52.804  1.00  0.00     0.042 A 
HETATM   13  C   UNL     1      25.807  43.949  53.509  1.00  0.00     0.071 C 
HETATM   14  N   UNL     1      24.623  47.752  50.481  1.00  0.00    -0.202 NA
ENDROOT
BRANCH   1  15
HETATM   15  S   UNL     1      23.255  48.137  48.310  1.00  0.00    -0.082 SA
BRANCH  15  16
HETATM   16  C   UNL     1      23.665  49.770  48.987  1.00  0.00     0.185 C 
BRANCH  16  17
HETATM   17  C   UNL     1      22.425  50.440  49.558  1.00  0.00     0.232 C 
HETATM   18  N   UNL     1      21.268  50.117  48.863  1.00  0.00    -0.324 N 
HETATM   19  H   UNL     1      21.194  49.160  48.542  1.00  0.00     0.169 HD
HETATM   20  O   UNL     1      22.459  51.136  50.573  1.00  0.00    -0.272 OA
BRANCH  18  21
HETATM   21  C   UNL     1      20.065  50.839  49.004  1.00  0.00     0.068 A 
HETATM   22  C   UNL     1      19.053  50.455  49.901  1.00  0.00     0.095 A 
HETATM   23  C   UNL     1      17.890  51.222  50.016  1.00  0.00     0.039 A 
HETATM   24  C   UNL     1      17.726  52.364  49.229  1.00  0.00     0.003 A 
HETATM   25  C   UNL     1      18.741  52.766  48.362  1.00  0.00     0.002 A 
HETATM   26  C   UNL     1      19.916  52.017  48.264  1.00  0.00     0.032 A 
BRANCH  22  27
HETATM   27  O   UNL     1      19.306  49.469  50.825  1.00  0.00    -0.349 OA
BRANCH  27  28
HETATM   28  C   UNL     1      18.406  48.362  50.736  1.00  0.00     0.171 C 
HETATM   29  C   UNL     1      18.627  47.629  49.426  1.00  0.00     0.034 C 
ENDBRANCH  27  28
ENDBRANCH  22  27
ENDBRANCH  18  21
ENDBRANCH  16  17
ENDBRANCH  15  16
ENDBRANCH   1  15
BRANCH   2  30
HETATM   30  C   UNL     1      22.841  45.111  48.567  1.00  0.00     0.043 A 
HETATM   31  C   UNL     1      23.432  44.427  47.494  1.00  0.00     0.031 A 
HETATM   32  C   UNL     1      22.639  43.776  46.545  1.00  0.00     0.021 A 
HETATM   33  C   UNL     1      21.251  43.796  46.674  1.00  0.00     0.011 A 
HETATM   34 BR   UNL     1      20.179  42.903  45.400  1.00  0.00    -0.051 Br
HETATM   35  C   UNL     1      20.649  44.464  47.738  1.00  0.00     0.021 A 
HETATM   36  C   UNL     1      21.442  45.120  48.682  1.00  0.00     0.031 A 
ENDBRANCH   2  30
TORSDOF 7
ENDMDL
MODEL 7
REMARK VINA RESULT:      -8.2     11.793     15.031
REMARK  7 active torsions:
REMARK  status: ('A' for Active; 'I' for Inactive)
REMARK    1  A    between atoms: C_2  and  O_3 
REMARK    2  A    between atoms: O_3  and  C_4 
REMARK    3  A    between atoms: C_5  and  N_6 
REMARK       I    between atoms: N_6  and  C_7 
REMARK    4  A    between atoms: C_7  and  C_8 
REMARK    5  A    between atoms: C_8  and  S_9 
REMARK    6  A    between atoms: S_9  and  C_10 
REMARK    7  A    between atoms: N_11  and  C_12 
ROOT
HETATM    1  C   UNL     1      28.917  51.189  39.052  1.00  0.00     0.177 A 
HETATM    2  N   UNL     1      28.800  50.649  40.353  1.00  0.00    -0.276 N 
HETATM    3  C   UNL     1      27.685  49.770  40.615  1.00  0.00     0.124 A 
HETATM    4  N   UNL     1      27.423  49.271  41.807  1.00  0.00    -0.384 N 
HETATM    5  H   UNL     1      26.621  48.678  41.958  1.00  0.00     0.157 HD
HETATM    6  H   UNL     1      28.016  49.498  42.594  1.00  0.00     0.157 HD
HETATM    7  C   UNL     1      26.824  49.491  39.510  1.00  0.00     0.081 A 
HETATM    8  C   UNL     1      27.081  50.112  38.292  1.00  0.00     0.187 A 
HETATM    9  N   UNL     1      26.206  49.772  37.356  1.00  0.00    -0.153 NA
HETATM   10  N   UNL     1      25.388  48.912  37.989  1.00  0.00    -0.280 N 
HETATM   11  H   UNL     1      24.627  48.501  37.456  1.00  0.00     0.189 HD
HETATM   12  C   UNL     1      25.706  48.712  39.316  1.00  0.00     0.042 A 
HETATM   13  C   UNL     1      24.906  47.819  40.182  1.00  0.00     0.071 C 
HETATM   14  N   UNL     1      28.118  51.001  38.041  1.00  0.00    -0.202 NA
ENDROOT
BRANCH   1  15
HETATM   15  S   UNL     1      30.269  52.301  38.689  1.00  0.00    -0.082 SA
BRANCH  15  16
HETATM   16  C   UNL     1      31.640  51.112  38.649  1.00  0.00     0.185 C 
BRANCH  16  17
HETATM   17  C   UNL     1      32.846  51.661  39.395  1.00  0.00     0.232 C 
HETATM   18  N   UNL     1      33.976  50.866  39.255  1.00  0.00    -0.324 N 
HETATM   19  H   UNL     1      34.120  50.455  38.342  1.00  0.00     0.169 HD
HETATM   20  O   UNL     1      32.818  52.736  39.995  1.00  0.00    -0.272 OA
BRANCH  18  21
HETATM   21  C   UNL     1      35.108  50.995  40.085  1.00  0.00     0.068 A 
HETATM   22  C   UNL     1      36.243  51.734  39.707  1.00  0.00     0.095 A 
HETATM   23  C   UNL     1      37.329  51.846  40.580  1.00  0.00     0.039 A 
HETATM   24  C   UNL     1      37.293  51.214  41.824  1.00  0.00     0.003 A 
HETATM   25  C   UNL     1      36.157  50.507  42.216  1.00  0.00     0.002 A 
HETATM   26  C   UNL     1      35.059  50.414  41.357  1.00  0.00     0.032 A 
BRANCH  22  27
HETATM   27  O   UNL     1      36.189  52.531  38.589  1.00  0.00    -0.349 OA
BRANCH  27  28
HETATM   28  C   UNL     1      36.661  53.861  38.817  1.00  0.00     0.171 C 
HETATM   29  C   UNL     1      35.484  54.788  39.054  1.00  0.00     0.034 C 
ENDBRANCH  27  28
ENDBRANCH  22  27
ENDBRANCH  18  21
ENDBRANCH  16  17
ENDBRANCH  15  16
ENDBRANCH   1  15
BRANCH   2  30
HETATM   30  C   UNL     1      29.743  50.936  41.383  1.00  0.00     0.043 A 
HETATM   31  C   UNL     1      30.662  49.967  41.811  1.00  0.00     0.031 A 
HETATM   32  C   UNL     1      31.632  50.282  42.767  1.00  0.00     0.021 A 
HETATM   33  C   UNL     1      31.694  51.573  43.289  1.00  0.00     0.011 A 
HETATM   34 BR   UNL     1      33.015  52.002  44.570  1.00  0.00    -0.051 Br
HETATM   35  C   UNL     1      30.794  52.549  42.869  1.00  0.00     0.021 A 
HETATM   36  C   UNL     1      29.820  52.231  41.919  1.00  0.00     0.031 A 
ENDBRANCH   2  30
TORSDOF 7
ENDMDL
MODEL 8
REMARK VINA RESULT:      -8.1      1.725      2.118
REMARK  7 active torsions:
REMARK  status: ('A' for Active; 'I' for Inactive)
REMARK    1  A    between atoms: C_2  and  O_3 
REMARK    2  A    between atoms: O_3  and  C_4 
REMARK    3  A    between atoms: C_5  and  N_6 
REMARK       I    between atoms: N_6  and  C_7 
REMARK    4  A    between atoms: C_7  and  C_8 
REMARK    5  A    between atoms: C_8  and  S_9 
REMARK    6  A    between atoms: S_9  and  C_10 
REMARK    7  A    between atoms: N_11  and  C_12 
ROOT
HETATM    1  C   UNL     1      24.966  42.899  50.874  1.00  0.00     0.177 A 
HETATM    2  N   UNL     1      26.230  42.268  50.813  1.00  0.00    -0.276 N 
HETATM    3  C   UNL     1      27.195  42.603  51.833  1.00  0.00     0.124 A 
HETATM    4  N   UNL     1      28.432  42.145  51.836  1.00  0.00    -0.384 N 
HETATM    5  H   UNL     1      29.086  42.419  52.553  1.00  0.00     0.157 HD
HETATM    6  H   UNL     1      28.746  41.526  51.100  1.00  0.00     0.157 HD
HETATM    7  C   UNL     1      26.760  43.515  52.843  1.00  0.00     0.081 A 
HETATM    8  C   UNL     1      25.479  44.049  52.751  1.00  0.00     0.187 A 
HETATM    9  N   UNL     1      25.205  44.882  53.745  1.00  0.00    -0.153 NA
HETATM   10  N   UNL     1      26.329  44.866  54.485  1.00  0.00    -0.280 N 
HETATM   11  H   UNL     1      26.351  45.436  55.326  1.00  0.00     0.189 HD
HETATM   12  C   UNL     1      27.324  44.059  53.974  1.00  0.00     0.042 A 
HETATM   13  C   UNL     1      28.640  43.934  54.637  1.00  0.00     0.071 C 
HETATM   14  N   UNL     1      24.560  43.776  51.747  1.00  0.00    -0.202 NA
ENDROOT
BRANCH   1  15
HETATM   15  S   UNL     1      23.749  42.531  49.619  1.00  0.00    -0.082 SA
BRANCH  15  16
HETATM   16  C   UNL     1      22.612  43.922  49.879  1.00  0.00     0.185 C 
BRANCH  16  17
HETATM   17  C   UNL     1      23.025  45.117  49.033  1.00  0.00     0.232 C 
HETATM   18  N   UNL     1      23.236  46.265  49.785  1.00  0.00    -0.324 N 
HETATM   19  H   UNL     1      23.684  46.132  50.683  1.00  0.00     0.169 HD
HETATM   20  O   UNL     1      23.214  45.033  47.819  1.00  0.00    -0.272 OA
BRANCH  18  21
HETATM   21  C   UNL     1      23.321  47.550  49.210  1.00  0.00     0.068 A 
HETATM   22  C   UNL     1      24.549  48.193  48.976  1.00  0.00     0.095 A 
HETATM   23  C   UNL     1      24.575  49.458  48.382  1.00  0.00     0.039 A 
HETATM   24  C   UNL     1      23.380  50.090  48.033  1.00  0.00     0.003 A 
HETATM   25  C   UNL     1      22.162  49.442  48.236  1.00  0.00     0.002 A 
HETATM   26  C   UNL     1      22.133  48.167  48.804  1.00  0.00     0.032 A 
BRANCH  22  27
HETATM   27  O   UNL     1      25.720  47.486  49.112  1.00  0.00    -0.349 OA
BRANCH  27  28
HETATM   28  C   UNL     1      26.580  48.002  50.131  1.00  0.00     0.171 C 
HETATM   29  C   UNL     1      26.231  47.368  51.464  1.00  0.00     0.034 C 
ENDBRANCH  27  28
ENDBRANCH  22  27
ENDBRANCH  18  21
ENDBRANCH  16  17
ENDBRANCH  15  16
ENDBRANCH   1  15
BRANCH   2  30
HETATM   30  C   UNL     1      26.559  41.322  49.799  1.00  0.00     0.043 A 
HETATM   31  C   UNL     1      27.179  41.728  48.607  1.00  0.00     0.031 A 
HETATM   32  C   UNL     1      27.567  40.784  47.652  1.00  0.00     0.021 A 
HETATM   33  C   UNL     1      27.349  39.428  47.892  1.00  0.00     0.011 A 
HETATM   34 BR   UNL     1      27.888  38.151  46.609  1.00  0.00    -0.051 Br
HETATM   35  C   UNL     1      26.742  39.008  49.073  1.00  0.00     0.021 A 
HETATM   36  C   UNL     1      26.347  39.953  50.024  1.00  0.00     0.031 A 
ENDBRANCH   2  30
TORSDOF 7
ENDMDL
MODEL 9
REMARK VINA RESULT:      -8.0      4.525      7.394
REMARK  7 active torsions:
REMARK  status: ('A' for Active; 'I' for Inactive)
REMARK    1  A    between atoms: C_2  and  O_3 
REMARK    2  A    between atoms: O_3  and  C_4 
REMARK    3  A    between atoms: C_5  and  N_6 
REMARK       I    between atoms: N_6  and  C_7 
REMARK    4  A    between atoms: C_7  and  C_8 
REMARK    5  A    between atoms: C_8  and  S_9 
REMARK    6  A    between atoms: S_9  and  C_10 
REMARK    7  A    between atoms: N_11  and  C_12 
ROOT
HETATM    1  C   UNL     1      23.005  48.381  48.905  1.00  0.00     0.177 A 
HETATM    2  N   UNL     1      22.482  47.088  48.675  1.00  0.00    -0.276 N 
HETATM    3  C   UNL     1      23.203  45.966  49.229  1.00  0.00     0.124 A 
HETATM    4  N   UNL     1      22.860  44.710  49.014  1.00  0.00    -0.384 N 
HETATM    5  H   UNL     1      23.402  43.951  49.398  1.00  0.00     0.157 HD
HETATM    6  H   UNL     1      22.058  44.495  48.437  1.00  0.00     0.157 HD
HETATM    7  C   UNL     1      24.362  46.277  50.003  1.00  0.00     0.081 A 
HETATM    8  C   UNL     1      24.742  47.608  50.127  1.00  0.00     0.187 A 
HETATM    9  N   UNL     1      25.835  47.756  50.864  1.00  0.00    -0.153 NA
HETATM   10  N   UNL     1      26.144  46.497  51.221  1.00  0.00    -0.280 N 
HETATM   11  H   UNL     1      26.959  46.358  51.812  1.00  0.00     0.189 HD
HETATM   12  C   UNL     1      25.288  45.544  50.710  1.00  0.00     0.042 A 
HETATM   13  C   UNL     1      25.482  44.102  50.975  1.00  0.00     0.071 C 
HETATM   14  N   UNL     1      24.089  48.692  49.556  1.00  0.00    -0.202 NA
ENDROOT
BRANCH   1  15
HETATM   15  S   UNL     1      22.159  49.797  48.219  1.00  0.00    -0.082 SA
BRANCH  15  16
HETATM   16  C   UNL     1      21.594  50.588  49.752  1.00  0.00     0.185 C 
BRANCH  16  17
HETATM   17  C   UNL     1      20.082  50.486  49.882  1.00  0.00     0.232 C 
HETATM   18  N   UNL     1      19.406  51.226  48.922  1.00  0.00    -0.324 N 
HETATM   19  H   UNL     1      19.811  51.228  47.994  1.00  0.00     0.169 HD
HETATM   20  O   UNL     1      19.539  49.760  50.715  1.00  0.00    -0.272 OA
BRANCH  18  21
HETATM   21  C   UNL     1      18.033  51.535  49.022  1.00  0.00     0.068 A 
HETATM   22  C   UNL     1      17.043  50.808  48.337  1.00  0.00     0.095 A 
HETATM   23  C   UNL     1      15.696  51.144  48.491  1.00  0.00     0.039 A 
HETATM   24  C   UNL     1      15.331  52.211  49.315  1.00  0.00     0.003 A 
HETATM   25  C   UNL     1      16.307  52.913  50.020  1.00  0.00     0.002 A 
HETATM   26  C   UNL     1      17.653  52.564  49.890  1.00  0.00     0.032 A 
BRANCH  22  27
HETATM   27  O   UNL     1      17.379  49.633  47.709  1.00  0.00    -0.349 OA
BRANCH  27  28
HETATM   28  C   UNL     1      17.270  49.697  46.285  1.00  0.00     0.171 C 
HETATM   29  C   UNL     1      18.645  49.899  45.676  1.00  0.00     0.034 C 
ENDBRANCH  27  28
ENDBRANCH  22  27
ENDBRANCH  18  21
ENDBRANCH  16  17
ENDBRANCH  15  16
ENDBRANCH   1  15
BRANCH   2  30
HETATM   30  C   UNL     1      21.281  46.874  47.938  1.00  0.00     0.043 A 
HETATM   31  C   UNL     1      21.316  46.630  46.556  1.00  0.00     0.031 A 
HETATM   32  C   UNL     1      20.140  46.346  45.856  1.00  0.00     0.021 A 
HETATM   33  C   UNL     1      18.925  46.291  46.538  1.00  0.00     0.011 A 
HETATM   34 BR   UNL     1      17.338  45.891  45.595  1.00  0.00    -0.051 Br
HETATM   35  C   UNL     1      18.874  46.523  47.911  1.00  0.00     0.021 A 
HETATM   36  C   UNL     1      20.049  46.814  48.609  1.00  0.00     0.031 A 
ENDBRANCH   2  30
TORSDOF 7
ENDMDL
MODEL 10
REMARK VINA RESULT:      -8.0      2.557      7.854
REMARK  7 active torsions:
REMARK  status: ('A' for Active; 'I' for Inactive)
REMARK    1  A    between atoms: C_2  and  O_3 
REMARK    2  A    between atoms: O_3  and  C_4 
REMARK    3  A    between atoms: C_5  and  N_6 
REMARK       I    between atoms: N_6  and  C_7 
REMARK    4  A    between atoms: C_7  and  C_8 
REMARK    5  A    between atoms: C_8  and  S_9 
REMARK    6  A    between atoms: S_9  and  C_10 
REMARK    7  A    between atoms: N_11  and  C_12 
ROOT
HETATM    1  C   UNL     1      24.086  47.001  49.543  1.00  0.00     0.177 A 
HETATM    2  N   UNL     1      23.062  46.482  48.718  1.00  0.00    -0.276 N 
HETATM    3  C   UNL     1      22.088  47.410  48.196  1.00  0.00     0.124 A 
HETATM    4  N   UNL     1      21.043  47.036  47.483  1.00  0.00    -0.384 N 
HETATM    5  H   UNL     1      20.369  47.711  47.154  1.00  0.00     0.157 HD
HETATM    6  H   UNL     1      20.892  46.057  47.279  1.00  0.00     0.157 HD
HETATM    7  C   UNL     1      22.281  48.785  48.528  1.00  0.00     0.081 A 
HETATM    8  C   UNL     1      23.342  49.127  49.359  1.00  0.00     0.187 A 
HETATM    9  N   UNL     1      23.403  50.431  49.592  1.00  0.00    -0.153 NA
HETATM   10  N   UNL     1      22.369  50.924  48.887  1.00  0.00    -0.280 N 
HETATM   11  H   UNL     1      22.218  51.929  48.905  1.00  0.00     0.189 HD
HETATM   12  C   UNL     1      21.633  49.962  48.227  1.00  0.00     0.042 A 
HETATM   13  C   UNL     1      20.444  50.311  47.420  1.00  0.00     0.071 C 
HETATM   14  N   UNL     1      24.255  48.238  49.911  1.00  0.00    -0.202 NA
ENDROOT
BRANCH   1  15
HETATM   15  S   UNL     1      25.299  45.885  50.232  1.00  0.00    -0.082 SA
BRANCH  15  16
HETATM   16  C   UNL     1      24.551  45.585  51.858  1.00  0.00     0.185 C 
BRANCH  16  17
HETATM   17  C   UNL     1      25.492  44.778  52.739  1.00  0.00     0.232 C 
HETATM   18  N   UNL     1      26.821  45.156  52.600  1.00  0.00    -0.324 N 
HETATM   19  H   UNL     1      26.992  46.148  52.494  1.00  0.00     0.169 HD
HETATM   20  O   UNL     1      25.087  43.931  53.536  1.00  0.00    -0.272 OA
BRANCH  18  21
HETATM   21  C   UNL     1      27.892  44.368  53.068  1.00  0.00     0.068 A 
HETATM   22  C   UNL     1      28.408  43.283  52.337  1.00  0.00     0.095 A 
HETATM   23  C   UNL     1      29.487  42.550  52.838  1.00  0.00     0.039 A 
HETATM   24  C   UNL     1      30.046  42.886  54.073  1.00  0.00     0.003 A 
HETATM   25  C   UNL     1      29.558  43.981  54.785  1.00  0.00     0.002 A 
HETATM   26  C   UNL     1      28.497  44.733  54.275  1.00  0.00     0.032 A 
BRANCH  22  27
HETATM   27  O   UNL     1      28.008  43.093  51.036  1.00  0.00    -0.349 OA
BRANCH  27  28
HETATM   28  C   UNL     1      27.102  41.998  50.873  1.00  0.00     0.171 C 
HETATM   29  C   UNL     1      26.243  42.225  49.644  1.00  0.00     0.034 C 
ENDBRANCH  27  28
ENDBRANCH  22  27
ENDBRANCH  18  21
ENDBRANCH  16  17
ENDBRANCH  15  16
ENDBRANCH   1  15
BRANCH   2  30
HETATM   30  C   UNL     1      22.980  45.097  48.389  1.00  0.00     0.043 A 
HETATM   31  C   UNL     1      23.409  44.626  47.139  1.00  0.00     0.031 A 
HETATM   32  C   UNL     1      23.396  43.257  46.854  1.00  0.00     0.021 A 
HETATM   33  C   UNL     1      22.967  42.353  47.824  1.00  0.00     0.011 A 
HETATM   34 BR   UNL     1      22.964  40.503  47.445  1.00  0.00    -0.051 Br
HETATM   35  C   UNL     1      22.546  42.804  49.073  1.00  0.00     0.021 A 
HETATM   36  C   UNL     1      22.552  44.172  49.355  1.00  0.00     0.031 A 
ENDBRANCH   2  30
TORSDOF 7
ENDMDL
