MODEL 1
REMARK VINA RESULT:     -10.1      0.000      0.000
REMARK  5 active torsions:
REMARK  status: ('A' for Active; 'I' for Inactive)
REMARK    1  A    between atoms: C_11  and  C_12 
REMARK    2  A    between atoms: C_15  and  N_16 
REMARK    3  A    between atoms: N_16  and  C_17 
REMARK    4  A    between atoms: C_18  and  O_19 
REMARK    5  A    between atoms: O_19  and  C_20 
ROOT
HETATM    1  C   UNL     1      25.894  46.579  52.121  1.00  0.00     0.077 C 
HETATM    2  C   UNL     1      25.943  47.275  53.471  1.00  0.00     0.023 C 
HETATM    3  N   UNL     1      25.983  47.852  54.592  1.00  0.00    -0.096 N 
HETATM    4  C   UNL     1      26.204  45.265  52.097  1.00  0.00     0.087 C 
ENDROOT
BRANCH   1   5
HETATM    5  C   UNL     1      25.600  47.331  50.940  1.00  0.00     0.118 A 
HETATM    6  N   UNL     1      24.399  47.733  50.556  1.00  0.00    -0.239 NA
HETATM    7  C   UNL     1      24.456  48.473  49.378  1.00  0.00     0.081 A 
HETATM    8  C   UNL     1      23.229  48.972  48.805  1.00  0.00     0.070 A 
HETATM    9  C   UNL     1      25.720  48.608  48.851  1.00  0.00     0.084 A 
HETATM   10  C   UNL     1      23.264  50.141  47.867  1.00  0.00     0.301 A 
HETATM   11  C   UNL     1      22.041  48.408  49.102  1.00  0.00     0.034 A 
HETATM   12  O   UNL     1      22.062  50.541  47.289  1.00  0.00    -0.274 OA
HETATM   13  O   UNL     1      24.298  50.744  47.591  1.00  0.00    -0.259 OA
HETATM   14  C   UNL     1      20.843  49.923  47.603  1.00  0.00     0.089 A 
HETATM   15  C   UNL     1      20.800  48.872  48.507  1.00  0.00    -0.001 A 
HETATM   16  C   UNL     1      19.696  50.406  46.979  1.00  0.00     0.038 A 
HETATM   17  C   UNL     1      19.566  48.285  48.798  1.00  0.00     0.014 A 
HETATM   18  C   UNL     1      18.404  48.757  48.180  1.00  0.00     0.001 A 
HETATM   19  C   UNL     1      18.468  49.816  47.271  1.00  0.00     0.003 A 
HETATM   20  S   UNL     1      26.866  47.849  49.861  1.00  0.00    -0.078 SA
ENDBRANCH   1   5
BRANCH   4  21
HETATM   21  N   UNL     1      26.547  44.470  53.177  1.00  0.00    -0.266 NA
HETATM   22  H   UNL     1      26.244  44.863  54.074  1.00  0.00     0.133 HD
BRANCH  21  23
HETATM   23  C   UNL     1      27.861  43.959  53.389  1.00  0.00     0.046 A 
HETATM   24  C   UNL     1      28.523  44.285  54.587  1.00  0.00     0.096 A 
HETATM   25  C   UNL     1      29.818  43.841  54.855  1.00  0.00     0.039 A 
HETATM   26  C   UNL     1      30.456  43.009  53.940  1.00  0.00     0.003 A 
HETATM   27  C   UNL     1      29.797  42.628  52.770  1.00  0.00     0.002 A 
HETATM   28  C   UNL     1      28.504  43.091  52.500  1.00  0.00     0.026 A 
BRANCH  24  29
HETATM   29  O   UNL     1      27.892  45.086  55.506  1.00  0.00    -0.288 OA
BRANCH  29  30
HETATM   30  C   UNL     1      28.831  46.029  56.020  1.00  0.00     0.505 C 
HETATM   31  F   UNL     1      28.984  47.019  55.104  1.00  0.00    -0.184 F 
HETATM   32  F   UNL     1      28.261  46.600  57.112  1.00  0.00    -0.184 F 
ENDBRANCH  29  30
ENDBRANCH  24  29
ENDBRANCH  21  23
ENDBRANCH   4  21
TORSDOF 5
ENDMDL
MODEL 2
REMARK VINA RESULT:      -9.9      3.559     10.194
REMARK  5 active torsions:
REMARK  status: ('A' for Active; 'I' for Inactive)
REMARK    1  A    between atoms: C_11  and  C_12 
REMARK    2  A    between atoms: C_15  and  N_16 
REMARK    3  A    between atoms: N_16  and  C_17 
REMARK    4  A    between atoms: C_18  and  O_19 
REMARK    5  A    between atoms: O_19  and  C_20 
ROOT
HETATM    1  C   UNL     1      24.770  45.203  50.645  1.00  0.00     0.077 C 
HETATM    2  C   UNL     1      23.532  44.400  50.282  1.00  0.00     0.023 C 
HETATM    3  N   UNL     1      22.504  43.734  49.982  1.00  0.00    -0.096 N 
HETATM    4  C   UNL     1      24.678  46.548  50.553  1.00  0.00     0.087 C 
ENDROOT
BRANCH   1   5
HETATM    5  C   UNL     1      25.982  44.529  50.994  1.00  0.00     0.118 A 
HETATM    6  N   UNL     1      26.610  44.614  52.157  1.00  0.00    -0.239 NA
HETATM    7  C   UNL     1      27.744  43.808  52.189  1.00  0.00     0.081 A 
HETATM    8  C   UNL     1      28.561  43.797  53.379  1.00  0.00     0.070 A 
HETATM    9  C   UNL     1      27.991  43.124  51.021  1.00  0.00     0.084 A 
HETATM   10  C   UNL     1      29.465  42.632  53.655  1.00  0.00     0.301 A 
HETATM   11  C   UNL     1      28.527  44.819  54.258  1.00  0.00     0.034 A 
HETATM   12  O   UNL     1      30.282  42.702  54.780  1.00  0.00    -0.274 OA
HETATM   13  O   UNL     1      29.511  41.639  52.934  1.00  0.00    -0.259 OA
HETATM   14  C   UNL     1      30.237  43.786  55.667  1.00  0.00     0.089 A 
HETATM   15  C   UNL     1      29.368  44.845  55.441  1.00  0.00    -0.001 A 
HETATM   16  C   UNL     1      31.087  43.754  56.769  1.00  0.00     0.038 A 
HETATM   17  C   UNL     1      29.349  45.905  56.349  1.00  0.00     0.014 A 
HETATM   18  C   UNL     1      30.197  45.890  57.461  1.00  0.00     0.001 A 
HETATM   19  C   UNL     1      31.066  44.816  57.671  1.00  0.00     0.003 A 
HETATM   20  S   UNL     1      26.765  43.444  49.879  1.00  0.00    -0.078 SA
ENDBRANCH   1   5
BRANCH   4  21
HETATM   21  N   UNL     1      23.567  47.283  50.178  1.00  0.00    -0.266 NA
HETATM   22  H   UNL     1      22.804  46.699  49.819  1.00  0.00     0.133 HD
BRANCH  21  23
HETATM   23  C   UNL     1      23.632  48.424  49.328  1.00  0.00     0.046 A 
HETATM   24  C   UNL     1      22.426  49.002  48.886  1.00  0.00     0.096 A 
HETATM   25  C   UNL     1      22.410  50.105  48.033  1.00  0.00     0.039 A 
HETATM   26  C   UNL     1      23.614  50.687  47.649  1.00  0.00     0.003 A 
HETATM   27  C   UNL     1      24.820  50.165  48.118  1.00  0.00     0.002 A 
HETATM   28  C   UNL     1      24.829  49.046  48.960  1.00  0.00     0.026 A 
BRANCH  24  29
HETATM   29  O   UNL     1      21.233  48.449  49.280  1.00  0.00    -0.288 OA
BRANCH  29  30
HETATM   30  C   UNL     1      20.220  49.452  49.235  1.00  0.00     0.505 C 
HETATM   31  F   UNL     1      19.190  48.984  48.483  1.00  0.00    -0.184 F 
HETATM   32  F   UNL     1      19.743  49.590  50.498  1.00  0.00    -0.184 F 
ENDBRANCH  29  30
ENDBRANCH  24  29
ENDBRANCH  21  23
ENDBRANCH   4  21
TORSDOF 5
ENDMDL
MODEL 3
REMARK VINA RESULT:      -9.9      3.018      9.760
REMARK  5 active torsions:
REMARK  status: ('A' for Active; 'I' for Inactive)
REMARK    1  A    between atoms: C_11  and  C_12 
REMARK    2  A    between atoms: C_15  and  N_16 
REMARK    3  A    between atoms: N_16  and  C_17 
REMARK    4  A    between atoms: C_18  and  O_19 
REMARK    5  A    between atoms: O_19  and  C_20 
ROOT
HETATM    1  C   UNL     1      24.898  45.246  50.764  1.00  0.00     0.077 C 
HETATM    2  C   UNL     1      23.674  44.440  50.361  1.00  0.00     0.023 C 
HETATM    3  N   UNL     1      22.659  43.770  50.027  1.00  0.00    -0.096 N 
HETATM    4  C   UNL     1      24.792  46.592  50.706  1.00  0.00     0.087 C 
ENDROOT
BRANCH   1   5
HETATM    5  C   UNL     1      26.112  44.577  51.114  1.00  0.00     0.118 A 
HETATM    6  N   UNL     1      26.732  44.654  52.281  1.00  0.00    -0.239 NA
HETATM    7  C   UNL     1      27.872  43.856  52.312  1.00  0.00     0.081 A 
HETATM    8  C   UNL     1      28.681  43.838  53.507  1.00  0.00     0.070 A 
HETATM    9  C   UNL     1      28.131  43.186  51.139  1.00  0.00     0.084 A 
HETATM   10  C   UNL     1      29.591  42.676  53.776  1.00  0.00     0.301 A 
HETATM   11  C   UNL     1      28.634  44.850  54.396  1.00  0.00     0.034 A 
HETATM   12  O   UNL     1      30.401  42.740  54.908  1.00  0.00    -0.274 OA
HETATM   13  O   UNL     1      29.649  41.691  53.045  1.00  0.00    -0.259 OA
HETATM   14  C   UNL     1      30.342  43.814  55.805  1.00  0.00     0.089 A 
HETATM   15  C   UNL     1      29.467  44.869  55.585  1.00  0.00    -0.001 A 
HETATM   16  C   UNL     1      31.185  43.776  56.913  1.00  0.00     0.038 A 
HETATM   17  C   UNL     1      29.435  45.920  56.504  1.00  0.00     0.014 A 
HETATM   18  C   UNL     1      30.276  45.898  57.622  1.00  0.00     0.001 A 
HETATM   19  C   UNL     1      31.151  44.828  57.826  1.00  0.00     0.003 A 
HETATM   20  S   UNL     1      26.910  43.510  49.992  1.00  0.00    -0.078 SA
ENDBRANCH   1   5
BRANCH   4  21
HETATM   21  N   UNL     1      23.677  47.324  50.333  1.00  0.00    -0.266 NA
HETATM   22  H   UNL     1      22.887  46.734  50.054  1.00  0.00     0.133 HD
BRANCH  21  23
HETATM   23  C   UNL     1      23.722  48.400  49.401  1.00  0.00     0.046 A 
HETATM   24  C   UNL     1      24.967  48.993  49.118  1.00  0.00     0.096 A 
HETATM   25  C   UNL     1      25.086  50.066  48.234  1.00  0.00     0.039 A 
HETATM   26  C   UNL     1      23.955  50.531  47.572  1.00  0.00     0.003 A 
HETATM   27  C   UNL     1      22.718  49.923  47.795  1.00  0.00     0.002 A 
HETATM   28  C   UNL     1      22.604  48.858  48.696  1.00  0.00     0.026 A 
BRANCH  24  29
HETATM   29  O   UNL     1      26.092  48.525  49.750  1.00  0.00    -0.288 OA
BRANCH  29  30
HETATM   30  C   UNL     1      27.216  48.708  48.891  1.00  0.00     0.505 C 
HETATM   31  F   UNL     1      28.031  49.639  49.450  1.00  0.00    -0.184 F 
HETATM   32  F   UNL     1      27.909  47.541  48.890  1.00  0.00    -0.184 F 
ENDBRANCH  29  30
ENDBRANCH  24  29
ENDBRANCH  21  23
ENDBRANCH   4  21
TORSDOF 5
ENDMDL
MODEL 4
REMARK VINA RESULT:      -9.9      5.844      9.811
REMARK  5 active torsions:
REMARK  status: ('A' for Active; 'I' for Inactive)
REMARK    1  A    between atoms: C_11  and  C_12 
REMARK    2  A    between atoms: C_15  and  N_16 
REMARK    3  A    between atoms: N_16  and  C_17 
REMARK    4  A    between atoms: C_18  and  O_19 
REMARK    5  A    between atoms: O_19  and  C_20 
ROOT
HETATM    1  C   UNL     1      26.116  43.998  50.090  1.00  0.00     0.077 C 
HETATM    2  C   UNL     1      24.970  44.318  49.144  1.00  0.00     0.023 C 
HETATM    3  N   UNL     1      24.019  44.584  48.359  1.00  0.00    -0.096 N 
HETATM    4  C   UNL     1      26.983  43.038  49.700  1.00  0.00     0.087 C 
ENDROOT
BRANCH   1   5
HETATM    5  C   UNL     1      26.199  44.652  51.359  1.00  0.00     0.118 A 
HETATM    6  N   UNL     1      27.202  44.555  52.217  1.00  0.00    -0.239 NA
HETATM    7  C   UNL     1      26.993  45.342  53.346  1.00  0.00     0.081 A 
HETATM    8  C   UNL     1      27.982  45.337  54.396  1.00  0.00     0.070 A 
HETATM    9  C   UNL     1      25.797  46.024  53.350  1.00  0.00     0.084 A 
HETATM   10  C   UNL     1      28.058  46.487  55.356  1.00  0.00     0.301 A 
HETATM   11  C   UNL     1      28.850  44.315  54.532  1.00  0.00     0.034 A 
HETATM   12  O   UNL     1      28.985  46.402  56.392  1.00  0.00    -0.274 OA
HETATM   13  O   UNL     1      27.342  47.480  55.265  1.00  0.00    -0.259 OA
HETATM   14  C   UNL     1      29.863  45.318  56.518  1.00  0.00     0.089 A 
HETATM   15  C   UNL     1      29.828  44.273  55.604  1.00  0.00    -0.001 A 
HETATM   16  C   UNL     1      30.760  45.334  57.583  1.00  0.00     0.038 A 
HETATM   17  C   UNL     1      30.722  43.212  55.761  1.00  0.00     0.014 A 
HETATM   18  C   UNL     1      31.630  43.212  56.825  1.00  0.00     0.001 A 
HETATM   19  C   UNL     1      31.649  44.271  57.736  1.00  0.00     0.003 A 
HETATM   20  S   UNL     1      24.941  45.726  51.906  1.00  0.00    -0.078 SA
ENDBRANCH   1   5
BRANCH   4  21
HETATM   21  N   UNL     1      26.953  42.319  48.518  1.00  0.00    -0.266 NA
HETATM   22  H   UNL     1      26.102  42.485  47.971  1.00  0.00     0.133 HD
BRANCH  21  23
HETATM   23  C   UNL     1      27.210  40.920  48.443  1.00  0.00     0.046 A 
HETATM   24  C   UNL     1      27.994  40.436  47.378  1.00  0.00     0.096 A 
HETATM   25  C   UNL     1      28.268  39.077  47.226  1.00  0.00     0.039 A 
HETATM   26  C   UNL     1      27.801  38.177  48.180  1.00  0.00     0.003 A 
HETATM   27  C   UNL     1      27.069  38.640  49.274  1.00  0.00     0.002 A 
HETATM   28  C   UNL     1      26.784  40.004  49.411  1.00  0.00     0.026 A 
BRANCH  24  29
HETATM   29  O   UNL     1      28.477  41.319  46.446  1.00  0.00    -0.288 OA
BRANCH  29  30
HETATM   30  C   UNL     1      28.210  40.808  45.141  1.00  0.00     0.505 C 
HETATM   31  F   UNL     1      27.256  41.585  44.566  1.00  0.00    -0.184 F 
HETATM   32  F   UNL     1      29.339  40.981  44.409  1.00  0.00    -0.184 F 
ENDBRANCH  29  30
ENDBRANCH  24  29
ENDBRANCH  21  23
ENDBRANCH   4  21
TORSDOF 5
ENDMDL
MODEL 5
REMARK VINA RESULT:      -9.4      5.175      9.047
REMARK  5 active torsions:
REMARK  status: ('A' for Active; 'I' for Inactive)
REMARK    1  A    between atoms: C_11  and  C_12 
REMARK    2  A    between atoms: C_15  and  N_16 
REMARK    3  A    between atoms: N_16  and  C_17 
REMARK    4  A    between atoms: C_18  and  O_19 
REMARK    5  A    between atoms: O_19  and  C_20 
ROOT
HETATM    1  C   UNL     1      26.202  43.992  50.186  1.00  0.00     0.077 C 
HETATM    2  C   UNL     1      25.042  44.250  49.239  1.00  0.00     0.023 C 
HETATM    3  N   UNL     1      24.080  44.464  48.452  1.00  0.00    -0.096 N 
HETATM    4  C   UNL     1      27.107  43.063  49.810  1.00  0.00     0.087 C 
ENDROOT
BRANCH   1   5
HETATM    5  C   UNL     1      26.261  44.670  51.445  1.00  0.00     0.118 A 
HETATM    6  N   UNL     1      27.248  44.590  52.323  1.00  0.00    -0.239 NA
HETATM    7  C   UNL     1      27.016  45.397  53.433  1.00  0.00     0.081 A 
HETATM    8  C   UNL     1      27.985  45.413  54.502  1.00  0.00     0.070 A 
HETATM    9  C   UNL     1      25.820  46.078  53.403  1.00  0.00     0.084 A 
HETATM   10  C   UNL     1      28.042  46.581  55.442  1.00  0.00     0.301 A 
HETATM   11  C   UNL     1      28.852  44.395  54.673  1.00  0.00     0.034 A 
HETATM   12  O   UNL     1      28.950  46.516  56.496  1.00  0.00    -0.274 OA
HETATM   13  O   UNL     1      27.327  47.571  55.319  1.00  0.00    -0.259 OA
HETATM   14  C   UNL     1      29.826  45.435  56.659  1.00  0.00     0.089 A 
HETATM   15  C   UNL     1      29.810  44.375  55.764  1.00  0.00    -0.001 A 
HETATM   16  C   UNL     1      30.703  45.473  57.739  1.00  0.00     0.038 A 
HETATM   17  C   UNL     1      30.702  43.318  55.956  1.00  0.00     0.014 A 
HETATM   18  C   UNL     1      31.589  43.339  57.037  1.00  0.00     0.001 A 
HETATM   19  C   UNL     1      31.590  44.415  57.929  1.00  0.00     0.003 A 
HETATM   20  S   UNL     1      24.991  45.751  51.948  1.00  0.00    -0.078 SA
ENDBRANCH   1   5
BRANCH   4  21
HETATM   21  N   UNL     1      27.105  42.325  48.639  1.00  0.00    -0.266 NA
HETATM   22  H   UNL     1      26.185  42.295  48.187  1.00  0.00     0.133 HD
BRANCH  21  23
HETATM   23  C   UNL     1      27.641  41.008  48.541  1.00  0.00     0.046 A 
HETATM   24  C   UNL     1      27.893  40.295  49.729  1.00  0.00     0.096 A 
HETATM   25  C   UNL     1      28.439  39.011  49.713  1.00  0.00     0.039 A 
HETATM   26  C   UNL     1      28.693  38.394  48.492  1.00  0.00     0.003 A 
HETATM   27  C   UNL     1      28.400  39.061  47.301  1.00  0.00     0.002 A 
HETATM   28  C   UNL     1      27.868  40.355  47.325  1.00  0.00     0.026 A 
BRANCH  24  29
HETATM   29  O   UNL     1      27.624  40.888  50.937  1.00  0.00    -0.288 OA
BRANCH  29  30
HETATM   30  C   UNL     1      28.768  40.763  51.779  1.00  0.00     0.505 C 
HETATM   31  F   UNL     1      29.285  42.002  51.982  1.00  0.00    -0.184 F 
HETATM   32  F   UNL     1      28.326  40.329  52.987  1.00  0.00    -0.184 F 
ENDBRANCH  29  30
ENDBRANCH  24  29
ENDBRANCH  21  23
ENDBRANCH   4  21
TORSDOF 5
ENDMDL
MODEL 6
REMARK VINA RESULT:      -9.2      1.957      2.802
REMARK  5 active torsions:
REMARK  status: ('A' for Active; 'I' for Inactive)
REMARK    1  A    between atoms: C_11  and  C_12 
REMARK    2  A    between atoms: C_15  and  N_16 
REMARK    3  A    between atoms: N_16  and  C_17 
REMARK    4  A    between atoms: C_18  and  O_19 
REMARK    5  A    between atoms: O_19  and  C_20 
ROOT
HETATM    1  C   UNL     1      26.007  46.266  50.884  1.00  0.00     0.077 C 
HETATM    2  C   UNL     1      26.387  44.980  50.167  1.00  0.00     0.023 C 
HETATM    3  N   UNL     1      26.702  43.913  49.573  1.00  0.00    -0.096 N 
HETATM    4  C   UNL     1      26.106  46.269  52.231  1.00  0.00     0.087 C 
ENDROOT
BRANCH   1   5
HETATM    5  C   UNL     1      25.503  47.377  50.138  1.00  0.00     0.118 A 
HETATM    6  N   UNL     1      24.232  47.740  50.052  1.00  0.00    -0.239 NA
HETATM    7  C   UNL     1      24.075  48.884  49.275  1.00  0.00     0.081 A 
HETATM    8  C   UNL     1      22.748  49.406  49.058  1.00  0.00     0.070 A 
HETATM    9  C   UNL     1      25.245  49.377  48.744  1.00  0.00     0.084 A 
HETATM   10  C   UNL     1      22.564  50.845  48.674  1.00  0.00     0.301 A 
HETATM   11  C   UNL     1      21.659  48.625  49.199  1.00  0.00     0.034 A 
HETATM   12  O   UNL     1      21.268  51.282  48.411  1.00  0.00    -0.274 OA
HETATM   13  O   UNL     1      23.499  51.635  48.582  1.00  0.00    -0.259 OA
HETATM   14  C   UNL     1      20.157  50.440  48.549  1.00  0.00     0.089 A 
HETATM   15  C   UNL     1      20.317  49.121  48.950  1.00  0.00    -0.001 A 
HETATM   16  C   UNL     1      18.902  50.977  48.272  1.00  0.00     0.038 A 
HETATM   17  C   UNL     1      19.185  48.314  49.079  1.00  0.00     0.014 A 
HETATM   18  C   UNL     1      17.917  48.837  48.806  1.00  0.00     0.001 A 
HETATM   19  C   UNL     1      17.776  50.167  48.402  1.00  0.00     0.003 A 
HETATM   20  S   UNL     1      26.571  48.436  49.259  1.00  0.00    -0.078 SA
ENDBRANCH   1   5
BRANCH   4  21
HETATM   21  N   UNL     1      26.536  45.230  53.037  1.00  0.00    -0.266 NA
HETATM   22  H   UNL     1      25.762  44.694  53.444  1.00  0.00     0.133 HD
BRANCH  21  23
HETATM   23  C   UNL     1      27.501  45.388  54.074  1.00  0.00     0.046 A 
HETATM   24  C   UNL     1      28.547  44.450  54.166  1.00  0.00     0.096 A 
HETATM   25  C   UNL     1      29.515  44.526  55.167  1.00  0.00     0.039 A 
HETATM   26  C   UNL     1      29.480  45.585  56.069  1.00  0.00     0.003 A 
HETATM   27  C   UNL     1      28.484  46.557  55.963  1.00  0.00     0.002 A 
HETATM   28  C   UNL     1      27.506  46.465  54.966  1.00  0.00     0.026 A 
BRANCH  24  29
HETATM   29  O   UNL     1      28.601  43.415  53.266  1.00  0.00    -0.288 OA
BRANCH  29  30
HETATM   30  C   UNL     1      29.446  42.391  53.789  1.00  0.00     0.505 C 
HETATM   31  F   UNL     1      28.784  41.208  53.703  1.00  0.00    -0.184 F 
HETATM   32  F   UNL     1      30.514  42.296  52.957  1.00  0.00    -0.184 F 
ENDBRANCH  29  30
ENDBRANCH  24  29
ENDBRANCH  21  23
ENDBRANCH   4  21
TORSDOF 5
ENDMDL
MODEL 7
REMARK VINA RESULT:      -9.1      6.945     10.614
REMARK  5 active torsions:
REMARK  status: ('A' for Active; 'I' for Inactive)
REMARK    1  A    between atoms: C_11  and  C_12 
REMARK    2  A    between atoms: C_15  and  N_16 
REMARK    3  A    between atoms: N_16  and  C_17 
REMARK    4  A    between atoms: C_18  and  O_19 
REMARK    5  A    between atoms: O_19  and  C_20 
ROOT
HETATM    1  C   UNL     1      28.218  40.664  50.091  1.00  0.00     0.077 C 
HETATM    2  C   UNL     1      29.015  39.464  50.575  1.00  0.00     0.023 C 
HETATM    3  N   UNL     1      29.675  38.468  50.977  1.00  0.00    -0.096 N 
HETATM    4  C   UNL     1      27.992  40.755  48.762  1.00  0.00     0.087 C 
ENDROOT
BRANCH   1   5
HETATM    5  C   UNL     1      27.805  41.670  51.020  1.00  0.00     0.118 A 
HETATM    6  N   UNL     1      28.539  42.161  52.007  1.00  0.00    -0.239 NA
HETATM    7  C   UNL     1      27.859  43.152  52.710  1.00  0.00     0.081 A 
HETATM    8  C   UNL     1      28.506  43.781  53.836  1.00  0.00     0.070 A 
HETATM    9  C   UNL     1      26.580  43.393  52.261  1.00  0.00     0.084 A 
HETATM   10  C   UNL     1      28.054  45.134  54.297  1.00  0.00     0.301 A 
HETATM   11  C   UNL     1      29.520  43.175  54.485  1.00  0.00     0.034 A 
HETATM   12  O   UNL     1      28.665  45.668  55.429  1.00  0.00    -0.274 OA
HETATM   13  O   UNL     1      27.177  45.775  53.725  1.00  0.00    -0.259 OA
HETATM   14  C   UNL     1      29.706  45.006  56.094  1.00  0.00     0.089 A 
HETATM   15  C   UNL     1      30.160  43.774  55.642  1.00  0.00    -0.001 A 
HETATM   16  C   UNL     1      30.259  45.629  57.210  1.00  0.00     0.038 A 
HETATM   17  C   UNL     1      31.202  43.148  56.329  1.00  0.00     0.014 A 
HETATM   18  C   UNL     1      31.768  43.760  57.452  1.00  0.00     0.001 A 
HETATM   19  C   UNL     1      31.297  44.999  57.893  1.00  0.00     0.003 A 
HETATM   20  S   UNL     1      26.233  42.411  50.910  1.00  0.00    -0.078 SA
ENDBRANCH   1   5
BRANCH   4  21
HETATM   21  N   UNL     1      28.393  39.859  47.786  1.00  0.00    -0.266 NA
HETATM   22  H   UNL     1      29.113  40.242  47.164  1.00  0.00     0.133 HD
BRANCH  21  23
HETATM   23  C   UNL     1      27.483  39.146  46.953  1.00  0.00     0.046 A 
HETATM   24  C   UNL     1      27.220  37.795  47.247  1.00  0.00     0.096 A 
HETATM   25  C   UNL     1      26.359  37.027  46.464  1.00  0.00     0.039 A 
HETATM   26  C   UNL     1      25.699  37.622  45.393  1.00  0.00     0.003 A 
HETATM   27  C   UNL     1      25.901  38.975  45.116  1.00  0.00     0.002 A 
HETATM   28  C   UNL     1      26.780  39.735  45.897  1.00  0.00     0.026 A 
BRANCH  24  29
HETATM   29  O   UNL     1      27.850  37.206  48.315  1.00  0.00    -0.288 OA
BRANCH  29  30
HETATM   30  C   UNL     1      26.867  36.805  49.268  1.00  0.00     0.505 C 
HETATM   31  F   UNL     1      27.505  36.236  50.324  1.00  0.00    -0.184 F 
HETATM   32  F   UNL     1      26.284  37.938  49.736  1.00  0.00    -0.184 F 
ENDBRANCH  29  30
ENDBRANCH  24  29
ENDBRANCH  21  23
ENDBRANCH   4  21
TORSDOF 5
ENDMDL
MODEL 8
REMARK VINA RESULT:      -9.0      2.469      3.554
REMARK  5 active torsions:
REMARK  status: ('A' for Active; 'I' for Inactive)
REMARK    1  A    between atoms: C_11  and  C_12 
REMARK    2  A    between atoms: C_15  and  N_16 
REMARK    3  A    between atoms: N_16  and  C_17 
REMARK    4  A    between atoms: C_18  and  O_19 
REMARK    5  A    between atoms: O_19  and  C_20 
ROOT
HETATM    1  C   UNL     1      25.137  46.275  50.261  1.00  0.00     0.077 C 
HETATM    2  C   UNL     1      26.214  47.271  49.862  1.00  0.00     0.023 C 
HETATM    3  N   UNL     1      27.107  48.097  49.531  1.00  0.00    -0.096 N 
HETATM    4  C   UNL     1      25.446  45.396  51.240  1.00  0.00     0.087 C 
ENDROOT
BRANCH   1   5
HETATM    5  C   UNL     1      23.890  46.252  49.560  1.00  0.00     0.118 A 
HETATM    6  N   UNL     1      23.178  47.311  49.210  1.00  0.00    -0.239 NA
HETATM    7  C   UNL     1      22.030  46.951  48.509  1.00  0.00     0.081 A 
HETATM    8  C   UNL     1      21.126  47.986  48.069  1.00  0.00     0.070 A 
HETATM    9  C   UNL     1      21.861  45.594  48.352  1.00  0.00     0.084 A 
HETATM   10  C   UNL     1      20.184  47.721  46.932  1.00  0.00     0.301 A 
HETATM   11  C   UNL     1      21.112  49.197  48.659  1.00  0.00     0.034 A 
HETATM   12  O   UNL     1      19.285  48.728  46.590  1.00  0.00    -0.274 OA
HETATM   13  O   UNL     1      20.175  46.664  46.306  1.00  0.00    -0.259 OA
HETATM   14  C   UNL     1      19.282  49.972  47.234  1.00  0.00     0.089 A 
HETATM   15  C   UNL     1      20.184  50.239  48.255  1.00  0.00    -0.001 A 
HETATM   16  C   UNL     1      18.351  50.916  46.810  1.00  0.00     0.038 A 
HETATM   17  C   UNL     1      20.153  51.492  48.870  1.00  0.00     0.014 A 
HETATM   18  C   UNL     1      19.224  52.452  48.457  1.00  0.00     0.001 A 
HETATM   19  C   UNL     1      18.323  52.165  47.428  1.00  0.00     0.003 A 
HETATM   20  S   UNL     1      23.175  44.751  49.040  1.00  0.00    -0.078 SA
ENDBRANCH   1   5
BRANCH   4  21
HETATM   21  N   UNL     1      26.638  45.313  51.937  1.00  0.00    -0.266 NA
HETATM   22  H   UNL     1      26.966  44.348  52.054  1.00  0.00     0.133 HD
BRANCH  21  23
HETATM   23  C   UNL     1      26.866  45.965  53.183  1.00  0.00     0.046 A 
HETATM   24  C   UNL     1      27.882  45.473  54.024  1.00  0.00     0.096 A 
HETATM   25  C   UNL     1      28.147  46.044  55.268  1.00  0.00     0.039 A 
HETATM   26  C   UNL     1      27.426  47.164  55.671  1.00  0.00     0.003 A 
HETATM   27  C   UNL     1      26.451  47.704  54.830  1.00  0.00     0.002 A 
HETATM   28  C   UNL     1      26.179  47.114  53.590  1.00  0.00     0.026 A 
BRANCH  24  29
HETATM   29  O   UNL     1      28.614  44.382  53.624  1.00  0.00    -0.288 OA
BRANCH  29  30
HETATM   30  C   UNL     1      28.548  43.383  54.640  1.00  0.00     0.505 C 
HETATM   31  F   UNL     1      27.464  42.602  54.400  1.00  0.00    -0.184 F 
HETATM   32  F   UNL     1      29.637  42.589  54.485  1.00  0.00    -0.184 F 
ENDBRANCH  29  30
ENDBRANCH  24  29
ENDBRANCH  21  23
ENDBRANCH   4  21
TORSDOF 5
ENDMDL
MODEL 9
REMARK VINA RESULT:      -9.0      4.293     10.148
REMARK  5 active torsions:
REMARK  status: ('A' for Active; 'I' for Inactive)
REMARK    1  A    between atoms: C_11  and  C_12 
REMARK    2  A    between atoms: C_15  and  N_16 
REMARK    3  A    between atoms: N_16  and  C_17 
REMARK    4  A    between atoms: C_18  and  O_19 
REMARK    5  A    between atoms: O_19  and  C_20 
ROOT
HETATM    1  C   UNL     1      22.425  48.180  48.274  1.00  0.00     0.077 C 
HETATM    2  C   UNL     1      23.198  49.474  48.084  1.00  0.00     0.023 C 
HETATM    3  N   UNL     1      23.839  50.549  47.926  1.00  0.00    -0.096 N 
HETATM    4  C   UNL     1      21.116  48.191  47.937  1.00  0.00     0.087 C 
ENDROOT
BRANCH   1   5
HETATM    5  C   UNL     1      23.068  47.042  48.853  1.00  0.00     0.118 A 
HETATM    6  N   UNL     1      23.744  47.030  49.992  1.00  0.00    -0.239 NA
HETATM    7  C   UNL     1      24.219  45.757  50.295  1.00  0.00     0.081 A 
HETATM    8  C   UNL     1      24.998  45.568  51.495  1.00  0.00     0.070 A 
HETATM    9  C   UNL     1      23.919  44.798  49.355  1.00  0.00     0.084 A 
HETATM   10  C   UNL     1      25.104  44.204  52.110  1.00  0.00     0.301 A 
HETATM   11  C   UNL     1      25.634  46.600  52.084  1.00  0.00     0.034 A 
HETATM   12  O   UNL     1      25.922  44.062  53.229  1.00  0.00    -0.274 OA
HETATM   13  O   UNL     1      24.509  43.225  51.668  1.00  0.00    -0.259 OA
HETATM   14  C   UNL     1      26.586  45.152  53.808  1.00  0.00     0.089 A 
HETATM   15  C   UNL     1      26.452  46.425  53.270  1.00  0.00    -0.001 A 
HETATM   16  C   UNL     1      27.371  44.907  54.931  1.00  0.00     0.038 A 
HETATM   17  C   UNL     1      27.126  47.486  53.878  1.00  0.00     0.014 A 
HETATM   18  C   UNL     1      27.919  47.257  55.007  1.00  0.00     0.001 A 
HETATM   19  C   UNL     1      28.042  45.969  55.533  1.00  0.00     0.003 A 
HETATM   20  S   UNL     1      22.986  45.475  48.097  1.00  0.00    -0.078 SA
ENDBRANCH   1   5
BRANCH   4  21
HETATM   21  N   UNL     1      20.400  49.255  47.418  1.00  0.00    -0.266 NA
HETATM   22  H   UNL     1      20.972  49.878  46.838  1.00  0.00     0.133 HD
BRANCH  21  23
HETATM   23  C   UNL     1      19.567  50.100  48.207  1.00  0.00     0.046 A 
HETATM   24  C   UNL     1      18.233  49.708  48.433  1.00  0.00     0.096 A 
HETATM   25  C   UNL     1      17.352  50.493  49.176  1.00  0.00     0.039 A 
HETATM   26  C   UNL     1      17.813  51.671  49.755  1.00  0.00     0.003 A 
HETATM   27  C   UNL     1      19.146  52.053  49.592  1.00  0.00     0.002 A 
HETATM   28  C   UNL     1      20.020  51.267  48.831  1.00  0.00     0.026 A 
BRANCH  24  29
HETATM   29  O   UNL     1      17.777  48.536  47.884  1.00  0.00    -0.288 OA
BRANCH  29  30
HETATM   30  C   UNL     1      17.529  47.599  48.931  1.00  0.00     0.505 C 
HETATM   31  F   UNL     1      16.206  47.296  48.927  1.00  0.00    -0.184 F 
HETATM   32  F   UNL     1      18.186  46.457  48.605  1.00  0.00    -0.184 F 
ENDBRANCH  29  30
ENDBRANCH  24  29
ENDBRANCH  21  23
ENDBRANCH   4  21
TORSDOF 5
ENDMDL
MODEL 10
REMARK VINA RESULT:      -8.7      6.229      8.765
REMARK  5 active torsions:
REMARK  status: ('A' for Active; 'I' for Inactive)
REMARK    1  A    between atoms: C_11  and  C_12 
REMARK    2  A    between atoms: C_15  and  N_16 
REMARK    3  A    between atoms: N_16  and  C_17 
REMARK    4  A    between atoms: C_18  and  O_19 
REMARK    5  A    between atoms: O_19  and  C_20 
ROOT
HETATM    1  C   UNL     1      27.204  42.868  50.664  1.00  0.00     0.077 C 
HETATM    2  C   UNL     1      26.911  44.204  50.001  1.00  0.00     0.023 C 
HETATM    3  N   UNL     1      26.667  45.312  49.450  1.00  0.00    -0.096 N 
HETATM    4  C   UNL     1      27.607  42.899  51.953  1.00  0.00     0.087 C 
ENDROOT
BRANCH   1   5
HETATM    5  C   UNL     1      27.117  41.659  49.905  1.00  0.00     0.118 A 
HETATM    6  N   UNL     1      27.595  41.474  48.685  1.00  0.00    -0.239 NA
HETATM    7  C   UNL     1      27.377  40.174  48.238  1.00  0.00     0.081 A 
HETATM    8  C   UNL     1      27.818  39.806  46.914  1.00  0.00     0.070 A 
HETATM    9  C   UNL     1      26.697  39.373  49.127  1.00  0.00     0.084 A 
HETATM   10  C   UNL     1      28.055  38.363  46.580  1.00  0.00     0.301 A 
HETATM   11  C   UNL     1      28.026  40.738  45.964  1.00  0.00     0.034 A 
HETATM   12  O   UNL     1      28.414  38.054  45.270  1.00  0.00    -0.274 OA
HETATM   13  O   UNL     1      27.943  37.460  47.405  1.00  0.00    -0.259 OA
HETATM   14  C   UNL     1      28.607  39.045  44.299  1.00  0.00     0.089 A 
HETATM   15  C   UNL     1      28.434  40.385  44.615  1.00  0.00    -0.001 A 
HETATM   16  C   UNL     1      28.976  38.633  43.021  1.00  0.00     0.038 A 
HETATM   17  C   UNL     1      28.639  41.344  43.621  1.00  0.00     0.014 A 
HETATM   18  C   UNL     1      29.010  40.947  42.332  1.00  0.00     0.001 A 
HETATM   19  C   UNL     1      29.178  39.593  42.032  1.00  0.00     0.003 A 
HETATM   20  S   UNL     1      26.370  40.231  50.564  1.00  0.00    -0.078 SA
ENDBRANCH   1   5
BRANCH   4  21
HETATM   21  N   UNL     1      27.767  44.020  52.749  1.00  0.00    -0.266 NA
HETATM   22  H   UNL     1      27.860  44.885  52.207  1.00  0.00     0.133 HD
BRANCH  21  23
HETATM   23  C   UNL     1      28.722  44.104  53.803  1.00  0.00     0.046 A 
HETATM   24  C   UNL     1      28.587  45.135  54.752  1.00  0.00     0.096 A 
HETATM   25  C   UNL     1      29.496  45.295  55.798  1.00  0.00     0.039 A 
HETATM   26  C   UNL     1      30.535  44.381  55.942  1.00  0.00     0.003 A 
HETATM   27  C   UNL     1      30.657  43.318  55.046  1.00  0.00     0.002 A 
HETATM   28  C   UNL     1      29.750  43.174  53.989  1.00  0.00     0.026 A 
BRANCH  24  29
HETATM   29  O   UNL     1      27.551  46.027  54.630  1.00  0.00    -0.288 OA
BRANCH  29  30
HETATM   30  C   UNL     1      27.867  47.208  55.365  1.00  0.00     0.505 C 
HETATM   31  F   UNL     1      28.376  48.124  54.502  1.00  0.00    -0.184 F 
HETATM   32  F   UNL     1      26.694  47.717  55.820  1.00  0.00    -0.184 F 
ENDBRANCH  29  30
ENDBRANCH  24  29
ENDBRANCH  21  23
ENDBRANCH   4  21
TORSDOF 5
ENDMDL
