MODEL 1
REMARK VINA RESULT:      -9.2      0.000      0.000
REMARK  5 active torsions:
REMARK  status: ('A' for Active; 'I' for Inactive)
REMARK    1  A    between atoms: C_5  and  C_6 
REMARK    2  A    between atoms: C_6  and  N_7 
REMARK       I    between atoms: N_7  and  C_8 
REMARK       I    between atoms: C_8  and  N_9 
REMARK    3  A    between atoms: N_9  and  C_10 
REMARK    4  A    between atoms: C_10  and  C_11 
REMARK    5  A    between atoms: N_14  and  C_15 
ROOT
HETATM    1  N   UNL     1      22.306  49.732  49.625  1.00  0.00    -0.339 N 
HETATM    2  C   UNL     1      23.025  48.679  49.136  1.00  0.00     0.316 C 
HETATM    3  N   UNL     1      23.520  47.884  50.131  1.00  0.00    -0.339 N 
HETATM    4  O   UNL     1      23.222  48.484  47.945  1.00  0.00    -0.247 OA
HETATM    5  H   UNL     1      22.218  49.856  50.621  1.00  0.00     0.164 HD
HETATM    6  H   UNL     1      23.105  47.942  51.046  1.00  0.00     0.164 HD
ENDROOT
BRANCH   3   7
HETATM    7  C   UNL     1      24.277  46.693  49.825  1.00  0.00     0.165 C 
BRANCH   7   8
HETATM    8  C   UNL     1      25.133  46.287  50.989  1.00  0.00    -0.016 A 
HETATM    9  C   UNL     1      25.779  45.062  51.133  1.00  0.00     0.021 A 
HETATM   10  C   UNL     1      25.664  43.868  50.238  1.00  0.00     0.069 C 
HETATM   11  N   UNL     1      26.536  45.082  52.304  1.00  0.00    -0.319 N 
HETATM   12  C   UNL     1      26.318  46.305  52.932  1.00  0.00     0.014 A 
HETATM   13  C   UNL     1      27.004  46.758  54.175  1.00  0.00     0.068 C 
HETATM   14  C   UNL     1      25.470  47.049  52.134  1.00  0.00     0.035 A 
BRANCH  11  15
HETATM   15  C   UNL     1      27.405  44.048  52.762  1.00  0.00     0.039 A 
HETATM   16  C   UNL     1      28.689  43.920  52.216  1.00  0.00     0.030 A 
HETATM   17  C   UNL     1      29.545  42.915  52.671  1.00  0.00     0.002 A 
HETATM   18  C   UNL     1      29.124  42.035  53.666  1.00  0.00     0.000 A 
HETATM   19  C   UNL     1      27.848  42.159  54.213  1.00  0.00     0.002 A 
HETATM   20  C   UNL     1      26.987  43.165  53.764  1.00  0.00     0.030 A 
ENDBRANCH  11  15
ENDBRANCH   7   8
ENDBRANCH   3   7
BRANCH   1  21
HETATM   21  C   UNL     1      21.799  50.775  48.761  1.00  0.00     0.162 C 
BRANCH  21  22
HETATM   22  C   UNL     1      20.378  51.165  49.081  1.00  0.00    -0.040 A 
HETATM   23  C   UNL     1      19.774  52.236  48.405  1.00  0.00     0.009 A 
HETATM   24  C   UNL     1      18.431  52.554  48.627  1.00  0.00     0.007 A 
HETATM   25  C   UNL     1      17.664  51.807  49.524  1.00  0.00    -0.062 A 
HETATM   26  C   UNL     1      16.212  52.114  49.742  1.00  0.00     0.048 C 
HETATM   27  C   UNL     1      18.259  50.734  50.196  1.00  0.00     0.007 A 
HETATM   28  C   UNL     1      19.600  50.412  49.972  1.00  0.00     0.009 A 
ENDBRANCH  21  22
ENDBRANCH   1  21
TORSDOF 5
ENDMDL
MODEL 2
REMARK VINA RESULT:      -9.0      1.715     10.509
REMARK  5 active torsions:
REMARK  status: ('A' for Active; 'I' for Inactive)
REMARK    1  A    between atoms: C_5  and  C_6 
REMARK    2  A    between atoms: C_6  and  N_7 
REMARK       I    between atoms: N_7  and  C_8 
REMARK       I    between atoms: C_8  and  N_9 
REMARK    3  A    between atoms: N_9  and  C_10 
REMARK    4  A    between atoms: C_10  and  C_11 
REMARK    5  A    between atoms: N_14  and  C_15 
ROOT
HETATM    1  N   UNL     1      25.998  45.393  51.441  1.00  0.00    -0.339 N 
HETATM    2  C   UNL     1      25.798  46.090  50.284  1.00  0.00     0.316 C 
HETATM    3  N   UNL     1      25.051  47.216  50.481  1.00  0.00    -0.339 N 
HETATM    4  O   UNL     1      26.221  45.733  49.193  1.00  0.00    -0.247 OA
HETATM    5  H   UNL     1      25.586  45.722  52.299  1.00  0.00     0.164 HD
HETATM    6  H   UNL     1      24.971  47.585  51.414  1.00  0.00     0.164 HD
ENDROOT
BRANCH   3   7
HETATM    7  C   UNL     1      24.759  48.116  49.390  1.00  0.00     0.165 C 
BRANCH   7   8
HETATM    8  C   UNL     1      23.281  48.337  49.257  1.00  0.00    -0.016 A 
HETATM    9  C   UNL     1      22.641  49.573  49.262  1.00  0.00     0.021 A 
HETATM   10  C   UNL     1      23.260  50.911  49.517  1.00  0.00     0.069 C 
HETATM   11  N   UNL     1      21.277  49.381  49.043  1.00  0.00    -0.319 N 
HETATM   12  C   UNL     1      21.048  48.011  48.959  1.00  0.00     0.014 A 
HETATM   13  C   UNL     1      19.730  47.385  48.650  1.00  0.00     0.068 C 
HETATM   14  C   UNL     1      22.264  47.366  49.081  1.00  0.00     0.035 A 
BRANCH  11  15
HETATM   15  C   UNL     1      20.295  50.406  48.898  1.00  0.00     0.039 A 
HETATM   16  C   UNL     1      19.963  50.880  47.623  1.00  0.00     0.030 A 
HETATM   17  C   UNL     1      18.994  51.876  47.477  1.00  0.00     0.002 A 
HETATM   18  C   UNL     1      18.358  52.401  48.600  1.00  0.00     0.000 A 
HETATM   19  C   UNL     1      18.685  51.931  49.871  1.00  0.00     0.002 A 
HETATM   20  C   UNL     1      19.651  50.933  50.023  1.00  0.00     0.030 A 
ENDBRANCH  11  15
ENDBRANCH   7   8
ENDBRANCH   3   7
BRANCH   1  21
HETATM   21  C   UNL     1      26.649  44.101  51.450  1.00  0.00     0.162 C 
BRANCH  21  22
HETATM   22  C   UNL     1      27.745  44.002  52.480  1.00  0.00    -0.040 A 
HETATM   23  C   UNL     1      27.628  44.685  53.700  1.00  0.00     0.009 A 
HETATM   24  C   UNL     1      28.594  44.533  54.699  1.00  0.00     0.007 A 
HETATM   25  C   UNL     1      29.694  43.694  54.502  1.00  0.00    -0.062 A 
HETATM   26  C   UNL     1      30.717  43.494  55.580  1.00  0.00     0.048 C 
HETATM   27  C   UNL     1      29.812  43.006  53.289  1.00  0.00     0.007 A 
HETATM   28  C   UNL     1      28.845  43.153  52.292  1.00  0.00     0.009 A 
ENDBRANCH  21  22
ENDBRANCH   1  21
TORSDOF 5
ENDMDL
MODEL 3
REMARK VINA RESULT:      -9.0      1.931     10.364
REMARK  5 active torsions:
REMARK  status: ('A' for Active; 'I' for Inactive)
REMARK    1  A    between atoms: C_5  and  C_6 
REMARK    2  A    between atoms: C_6  and  N_7 
REMARK       I    between atoms: N_7  and  C_8 
REMARK       I    between atoms: C_8  and  N_9 
REMARK    3  A    between atoms: N_9  and  C_10 
REMARK    4  A    between atoms: C_10  and  C_11 
REMARK    5  A    between atoms: N_14  and  C_15 
ROOT
HETATM    1  N   UNL     1      25.285  45.092  52.089  1.00  0.00    -0.339 N 
HETATM    2  C   UNL     1      24.292  44.997  51.157  1.00  0.00     0.316 C 
HETATM    3  N   UNL     1      24.263  46.075  50.319  1.00  0.00    -0.339 N 
HETATM    4  O   UNL     1      23.503  44.063  51.096  1.00  0.00    -0.247 OA
HETATM    5  H   UNL     1      25.873  45.910  52.109  1.00  0.00     0.164 HD
HETATM    6  H   UNL     1      25.083  46.655  50.250  1.00  0.00     0.164 HD
ENDROOT
BRANCH   3   7
HETATM    7  C   UNL     1      23.311  46.151  49.236  1.00  0.00     0.165 C 
BRANCH   7   8
HETATM    8  C   UNL     1      22.938  47.575  48.947  1.00  0.00    -0.016 A 
HETATM    9  C   UNL     1      21.641  48.066  48.824  1.00  0.00     0.021 A 
HETATM   10  C   UNL     1      20.370  47.276  48.832  1.00  0.00     0.069 C 
HETATM   11  N   UNL     1      21.693  49.445  48.627  1.00  0.00    -0.319 N 
HETATM   12  C   UNL     1      23.033  49.817  48.567  1.00  0.00     0.014 A 
HETATM   13  C   UNL     1      23.523  51.220  48.447  1.00  0.00     0.068 C 
HETATM   14  C   UNL     1      23.800  48.685  48.768  1.00  0.00     0.035 A 
BRANCH  11  15
HETATM   15  C   UNL     1      20.574  50.326  48.538  1.00  0.00     0.039 A 
HETATM   16  C   UNL     1      19.900  50.479  47.319  1.00  0.00     0.030 A 
HETATM   17  C   UNL     1      18.798  51.332  47.232  1.00  0.00     0.002 A 
HETATM   18  C   UNL     1      18.367  52.034  48.355  1.00  0.00     0.000 A 
HETATM   19  C   UNL     1      19.035  51.885  49.570  1.00  0.00     0.002 A 
HETATM   20  C   UNL     1      20.136  51.030  49.665  1.00  0.00     0.030 A 
ENDBRANCH  11  15
ENDBRANCH   7   8
ENDBRANCH   3   7
BRANCH   1  21
HETATM   21  C   UNL     1      25.421  44.130  53.160  1.00  0.00     0.162 C 
BRANCH  21  22
HETATM   22  C   UNL     1      26.835  44.009  53.667  1.00  0.00    -0.040 A 
HETATM   23  C   UNL     1      27.439  45.087  54.330  1.00  0.00     0.009 A 
HETATM   24  C   UNL     1      28.717  44.961  54.883  1.00  0.00     0.007 A 
HETATM   25  C   UNL     1      29.416  43.754  54.786  1.00  0.00    -0.062 A 
HETATM   26  C   UNL     1      30.772  43.595  55.407  1.00  0.00     0.048 C 
HETATM   27  C   UNL     1      28.816  42.674  54.130  1.00  0.00     0.007 A 
HETATM   28  C   UNL     1      27.537  42.797  53.583  1.00  0.00     0.009 A 
ENDBRANCH  21  22
ENDBRANCH   1  21
TORSDOF 5
ENDMDL
MODEL 4
REMARK VINA RESULT:      -8.6      2.261      9.928
REMARK  5 active torsions:
REMARK  status: ('A' for Active; 'I' for Inactive)
REMARK    1  A    between atoms: C_5  and  C_6 
REMARK    2  A    between atoms: C_6  and  N_7 
REMARK       I    between atoms: N_7  and  C_8 
REMARK       I    between atoms: C_8  and  N_9 
REMARK    3  A    between atoms: N_9  and  C_10 
REMARK    4  A    between atoms: C_10  and  C_11 
REMARK    5  A    between atoms: N_14  and  C_15 
ROOT
HETATM    1  N   UNL     1      25.402  46.452  52.944  1.00  0.00    -0.339 N 
HETATM    2  C   UNL     1      25.480  46.929  51.667  1.00  0.00     0.316 C 
HETATM    3  N   UNL     1      24.703  46.215  50.799  1.00  0.00    -0.339 N 
HETATM    4  O   UNL     1      26.183  47.874  51.335  1.00  0.00    -0.247 OA
HETATM    5  H   UNL     1      24.835  45.643  53.140  1.00  0.00     0.164 HD
HETATM    6  H   UNL     1      23.962  45.645  51.172  1.00  0.00     0.164 HD
ENDROOT
BRANCH   3   7
HETATM    7  C   UNL     1      24.612  46.583  49.405  1.00  0.00     0.165 C 
BRANCH   7   8
HETATM    8  C   UNL     1      23.488  47.550  49.177  1.00  0.00    -0.016 A 
HETATM    9  C   UNL     1      22.182  47.210  48.834  1.00  0.00     0.021 A 
HETATM   10  C   UNL     1      21.658  45.847  48.507  1.00  0.00     0.069 C 
HETATM   11  N   UNL     1      21.409  48.370  48.779  1.00  0.00    -0.319 N 
HETATM   12  C   UNL     1      22.247  49.452  49.031  1.00  0.00     0.014 A 
HETATM   13  C   UNL     1      21.798  50.869  49.143  1.00  0.00     0.068 C 
HETATM   14  C   UNL     1      23.515  48.962  49.282  1.00  0.00     0.035 A 
BRANCH  11  15
HETATM   15  C   UNL     1      20.005  48.435  48.541  1.00  0.00     0.039 A 
HETATM   16  C   UNL     1      19.525  48.666  47.245  1.00  0.00     0.030 A 
HETATM   17  C   UNL     1      18.150  48.720  47.008  1.00  0.00     0.002 A 
HETATM   18  C   UNL     1      17.251  48.545  48.059  1.00  0.00     0.000 A 
HETATM   19  C   UNL     1      17.725  48.314  49.350  1.00  0.00     0.002 A 
HETATM   20  C   UNL     1      19.100  48.256  49.593  1.00  0.00     0.030 A 
ENDBRANCH  11  15
ENDBRANCH   7   8
ENDBRANCH   3   7
BRANCH   1  21
HETATM   21  C   UNL     1      26.240  46.969  54.003  1.00  0.00     0.162 C 
BRANCH  21  22
HETATM   22  C   UNL     1      27.334  46.015  54.407  1.00  0.00    -0.040 A 
HETATM   23  C   UNL     1      27.453  44.771  53.770  1.00  0.00     0.009 A 
HETATM   24  C   UNL     1      28.514  43.912  54.072  1.00  0.00     0.007 A 
HETATM   25  C   UNL     1      29.479  44.280  55.014  1.00  0.00    -0.062 A 
HETATM   26  C   UNL     1      30.642  43.383  55.319  1.00  0.00     0.048 C 
HETATM   27  C   UNL     1      29.368  45.521  55.648  1.00  0.00     0.007 A 
HETATM   28  C   UNL     1      28.311  46.383  55.343  1.00  0.00     0.009 A 
ENDBRANCH  21  22
ENDBRANCH   1  21
TORSDOF 5
ENDMDL
MODEL 5
REMARK VINA RESULT:      -8.6      3.124     10.173
REMARK  5 active torsions:
REMARK  status: ('A' for Active; 'I' for Inactive)
REMARK    1  A    between atoms: C_5  and  C_6 
REMARK    2  A    between atoms: C_6  and  N_7 
REMARK       I    between atoms: N_7  and  C_8 
REMARK       I    between atoms: C_8  and  N_9 
REMARK    3  A    between atoms: N_9  and  C_10 
REMARK    4  A    between atoms: C_10  and  C_11 
REMARK    5  A    between atoms: N_14  and  C_15 
ROOT
HETATM    1  N   UNL     1      28.564  43.841  52.304  1.00  0.00    -0.339 N 
HETATM    2  C   UNL     1      27.292  43.347  52.259  1.00  0.00     0.316 C 
HETATM    3  N   UNL     1      26.439  44.173  51.584  1.00  0.00    -0.339 N 
HETATM    4  O   UNL     1      26.952  42.295  52.782  1.00  0.00    -0.247 OA
HETATM    5  H   UNL     1      28.766  44.736  51.887  1.00  0.00     0.164 HD
HETATM    6  H   UNL     1      26.827  44.863  50.962  1.00  0.00     0.164 HD
ENDROOT
BRANCH   3   7
HETATM    7  C   UNL     1      25.054  43.814  51.387  1.00  0.00     0.165 C 
BRANCH   7   8
HETATM    8  C   UNL     1      24.373  44.784  50.467  1.00  0.00    -0.016 A 
HETATM    9  C   UNL     1      24.454  46.172  50.547  1.00  0.00     0.021 A 
HETATM   10  C   UNL     1      25.123  46.979  51.614  1.00  0.00     0.069 C 
HETATM   11  N   UNL     1      23.749  46.731  49.482  1.00  0.00    -0.319 N 
HETATM   12  C   UNL     1      23.171  45.690  48.760  1.00  0.00     0.014 A 
HETATM   13  C   UNL     1      22.398  45.857  47.496  1.00  0.00     0.068 C 
HETATM   14  C   UNL     1      23.551  44.500  49.349  1.00  0.00     0.035 A 
BRANCH  11  15
HETATM   15  C   UNL     1      23.662  48.119  49.166  1.00  0.00     0.039 A 
HETATM   16  C   UNL     1      22.469  48.816  49.395  1.00  0.00     0.030 A 
HETATM   17  C   UNL     1      22.385  50.177  49.096  1.00  0.00     0.002 A 
HETATM   18  C   UNL     1      23.487  50.846  48.568  1.00  0.00     0.000 A 
HETATM   19  C   UNL     1      24.678  50.157  48.339  1.00  0.00     0.002 A 
HETATM   20  C   UNL     1      24.768  48.795  48.639  1.00  0.00     0.030 A 
ENDBRANCH  11  15
ENDBRANCH   7   8
ENDBRANCH   3   7
BRANCH   1  21
HETATM   21  C   UNL     1      29.604  43.200  53.078  1.00  0.00     0.162 C 
BRANCH  21  22
HETATM   22  C   UNL     1      29.796  43.824  54.437  1.00  0.00    -0.040 A 
HETATM   23  C   UNL     1      30.796  43.344  55.295  1.00  0.00     0.009 A 
HETATM   24  C   UNL     1      31.045  43.968  56.522  1.00  0.00     0.007 A 
HETATM   25  C   UNL     1      30.302  45.086  56.913  1.00  0.00    -0.062 A 
HETATM   26  C   UNL     1      30.584  45.786  58.208  1.00  0.00     0.048 C 
HETATM   27  C   UNL     1      29.307  45.571  56.057  1.00  0.00     0.007 A 
HETATM   28  C   UNL     1      29.061  44.952  54.830  1.00  0.00     0.009 A 
ENDBRANCH  21  22
ENDBRANCH   1  21
TORSDOF 5
ENDMDL
MODEL 6
REMARK VINA RESULT:      -8.5      6.895     10.078
REMARK  5 active torsions:
REMARK  status: ('A' for Active; 'I' for Inactive)
REMARK    1  A    between atoms: C_5  and  C_6 
REMARK    2  A    between atoms: C_6  and  N_7 
REMARK       I    between atoms: N_7  and  C_8 
REMARK       I    between atoms: C_8  and  N_9 
REMARK    3  A    between atoms: N_9  and  C_10 
REMARK    4  A    between atoms: C_10  and  C_11 
REMARK    5  A    between atoms: N_14  and  C_15 
ROOT
HETATM    1  N   UNL     1      26.673  44.400  53.681  1.00  0.00    -0.339 N 
HETATM    2  C   UNL     1      26.509  44.124  52.354  1.00  0.00     0.316 C 
HETATM    3  N   UNL     1      25.759  43.002  52.148  1.00  0.00    -0.339 N 
HETATM    4  O   UNL     1      26.998  44.794  51.454  1.00  0.00    -0.247 OA
HETATM    5  H   UNL     1      26.278  43.782  54.372  1.00  0.00     0.164 HD
HETATM    6  H   UNL     1      25.177  42.666  52.898  1.00  0.00     0.164 HD
ENDROOT
BRANCH   3   7
HETATM    7  C   UNL     1      25.434  42.558  50.812  1.00  0.00     0.165 C 
BRANCH   7   8
HETATM    8  C   UNL     1      26.268  41.374  50.421  1.00  0.00    -0.016 A 
HETATM    9  C   UNL     1      26.065  40.572  49.302  1.00  0.00     0.021 A 
HETATM   10  C   UNL     1      24.926  40.641  48.334  1.00  0.00     0.069 C 
HETATM   11  N   UNL     1      27.081  39.619  49.233  1.00  0.00    -0.319 N 
HETATM   12  C   UNL     1      27.895  39.785  50.350  1.00  0.00     0.014 A 
HETATM   13  C   UNL     1      29.145  39.015  50.614  1.00  0.00     0.068 C 
HETATM   14  C   UNL     1      27.413  40.856  51.076  1.00  0.00     0.035 A 
BRANCH  11  15
HETATM   15  C   UNL     1      27.273  38.667  48.190  1.00  0.00     0.039 A 
HETATM   16  C   UNL     1      26.724  37.383  48.305  1.00  0.00     0.030 A 
HETATM   17  C   UNL     1      26.901  36.452  47.279  1.00  0.00     0.002 A 
HETATM   18  C   UNL     1      27.626  36.796  46.140  1.00  0.00     0.000 A 
HETATM   19  C   UNL     1      28.173  38.073  46.021  1.00  0.00     0.002 A 
HETATM   20  C   UNL     1      27.996  39.010  47.043  1.00  0.00     0.030 A 
ENDBRANCH  11  15
ENDBRANCH   7   8
ENDBRANCH   3   7
BRANCH   1  21
HETATM   21  C   UNL     1      27.540  45.465  54.137  1.00  0.00     0.162 C 
BRANCH  21  22
HETATM   22  C   UNL     1      28.762  44.960  54.860  1.00  0.00    -0.040 A 
HETATM   23  C   UNL     1      29.268  45.665  55.962  1.00  0.00     0.009 A 
HETATM   24  C   UNL     1      30.347  45.163  56.697  1.00  0.00     0.007 A 
HETATM   25  C   UNL     1      30.940  43.947  56.346  1.00  0.00    -0.062 A 
HETATM   26  C   UNL     1      32.074  43.381  57.148  1.00  0.00     0.048 C 
HETATM   27  C   UNL     1      30.436  43.238  55.251  1.00  0.00     0.007 A 
HETATM   28  C   UNL     1      29.355  43.735  54.520  1.00  0.00     0.009 A 
ENDBRANCH  21  22
ENDBRANCH   1  21
TORSDOF 5
ENDMDL
MODEL 7
REMARK VINA RESULT:      -8.4      1.974      9.639
REMARK  5 active torsions:
REMARK  status: ('A' for Active; 'I' for Inactive)
REMARK    1  A    between atoms: C_5  and  C_6 
REMARK    2  A    between atoms: C_6  and  N_7 
REMARK       I    between atoms: N_7  and  C_8 
REMARK       I    between atoms: C_8  and  N_9 
REMARK    3  A    between atoms: N_9  and  C_10 
REMARK    4  A    between atoms: C_10  and  C_11 
REMARK    5  A    between atoms: N_14  and  C_15 
ROOT
HETATM    1  N   UNL     1      23.841  44.614  51.005  1.00  0.00    -0.339 N 
HETATM    2  C   UNL     1      23.713  45.059  49.721  1.00  0.00     0.316 C 
HETATM    3  N   UNL     1      22.431  45.427  49.425  1.00  0.00    -0.339 N 
HETATM    4  O   UNL     1      24.637  45.100  48.920  1.00  0.00    -0.247 OA
HETATM    5  H   UNL     1      23.029  44.567  51.600  1.00  0.00     0.164 HD
HETATM    6  H   UNL     1      21.799  45.623  50.184  1.00  0.00     0.164 HD
ENDROOT
BRANCH   3   7
HETATM    7  C   UNL     1      22.090  45.964  48.129  1.00  0.00     0.165 C 
BRANCH   7   8
HETATM    8  C   UNL     1      21.944  47.457  48.187  1.00  0.00    -0.016 A 
HETATM    9  C   UNL     1      20.741  48.151  48.284  1.00  0.00     0.021 A 
HETATM   10  C   UNL     1      19.360  47.579  48.230  1.00  0.00     0.069 C 
HETATM   11  N   UNL     1      21.010  49.515  48.386  1.00  0.00    -0.319 N 
HETATM   12  C   UNL     1      22.388  49.686  48.293  1.00  0.00     0.014 A 
HETATM   13  C   UNL     1      23.097  50.990  48.438  1.00  0.00     0.068 C 
HETATM   14  C   UNL     1      22.967  48.436  48.179  1.00  0.00     0.035 A 
BRANCH  11  15
HETATM   15  C   UNL     1      20.049  50.550  48.584  1.00  0.00     0.039 A 
HETATM   16  C   UNL     1      19.463  51.182  47.479  1.00  0.00     0.030 A 
HETATM   17  C   UNL     1      18.514  52.188  47.671  1.00  0.00     0.002 A 
HETATM   18  C   UNL     1      18.148  52.568  48.961  1.00  0.00     0.000 A 
HETATM   19  C   UNL     1      18.728  51.941  50.063  1.00  0.00     0.002 A 
HETATM   20  C   UNL     1      19.676  50.931  49.878  1.00  0.00     0.030 A 
ENDBRANCH  11  15
ENDBRANCH   7   8
ENDBRANCH   3   7
BRANCH   1  21
HETATM   21  C   UNL     1      25.078  44.050  51.497  1.00  0.00     0.162 C 
BRANCH  21  22
HETATM   22  C   UNL     1      25.716  44.883  52.579  1.00  0.00    -0.040 A 
HETATM   23  C   UNL     1      26.404  44.261  53.632  1.00  0.00     0.009 A 
HETATM   24  C   UNL     1      27.074  45.021  54.595  1.00  0.00     0.007 A 
HETATM   25  C   UNL     1      27.074  46.417  54.524  1.00  0.00    -0.062 A 
HETATM   26  C   UNL     1      27.821  47.242  55.529  1.00  0.00     0.048 C 
HETATM   27  C   UNL     1      26.394  47.042  53.473  1.00  0.00     0.007 A 
HETATM   28  C   UNL     1      25.728  46.284  52.507  1.00  0.00     0.009 A 
ENDBRANCH  21  22
ENDBRANCH   1  21
TORSDOF 5
ENDMDL
MODEL 8
REMARK VINA RESULT:      -8.4      2.448      3.592
REMARK  5 active torsions:
REMARK  status: ('A' for Active; 'I' for Inactive)
REMARK    1  A    between atoms: C_5  and  C_6 
REMARK    2  A    between atoms: C_6  and  N_7 
REMARK       I    between atoms: N_7  and  C_8 
REMARK       I    between atoms: C_8  and  N_9 
REMARK    3  A    between atoms: N_9  and  C_10 
REMARK    4  A    between atoms: C_10  and  C_11 
REMARK    5  A    between atoms: N_14  and  C_15 
ROOT
HETATM    1  N   UNL     1      23.503  47.728  49.650  1.00  0.00    -0.339 N 
HETATM    2  C   UNL     1      24.070  46.591  50.152  1.00  0.00     0.316 C 
HETATM    3  N   UNL     1      24.967  46.856  51.148  1.00  0.00    -0.339 N 
HETATM    4  O   UNL     1      23.820  45.467  49.740  1.00  0.00    -0.247 OA
HETATM    5  H   UNL     1      23.786  48.626  50.008  1.00  0.00     0.164 HD
HETATM    6  H   UNL     1      24.923  47.749  51.612  1.00  0.00     0.164 HD
ENDROOT
BRANCH   3   7
HETATM    7  C   UNL     1      25.649  45.787  51.840  1.00  0.00     0.165 C 
BRANCH   7   8
HETATM    8  C   UNL     1      26.194  46.261  53.155  1.00  0.00    -0.016 A 
HETATM    9  C   UNL     1      27.201  45.639  53.887  1.00  0.00     0.021 A 
HETATM   10  C   UNL     1      27.858  44.328  53.590  1.00  0.00     0.069 C 
HETATM   11  N   UNL     1      27.486  46.409  55.015  1.00  0.00    -0.319 N 
HETATM   12  C   UNL     1      26.612  47.492  55.023  1.00  0.00     0.014 A 
HETATM   13  C   UNL     1      26.639  48.601  56.019  1.00  0.00     0.068 C 
HETATM   14  C   UNL     1      25.825  47.415  53.890  1.00  0.00     0.035 A 
BRANCH  11  15
HETATM   15  C   UNL     1      28.512  46.153  55.972  1.00  0.00     0.039 A 
HETATM   16  C   UNL     1      28.221  46.205  57.341  1.00  0.00     0.030 A 
HETATM   17  C   UNL     1      29.222  45.944  58.279  1.00  0.00     0.002 A 
HETATM   18  C   UNL     1      30.512  45.633  57.857  1.00  0.00     0.000 A 
HETATM   19  C   UNL     1      30.807  45.579  56.495  1.00  0.00     0.002 A 
HETATM   20  C   UNL     1      29.808  45.836  55.551  1.00  0.00     0.030 A 
ENDBRANCH  11  15
ENDBRANCH   7   8
ENDBRANCH   3   7
BRANCH   1  21
HETATM   21  C   UNL     1      22.625  47.698  48.502  1.00  0.00     0.162 C 
BRANCH  21  22
HETATM   22  C   UNL     1      21.769  48.934  48.384  1.00  0.00    -0.040 A 
HETATM   23  C   UNL     1      20.478  48.846  47.842  1.00  0.00     0.009 A 
HETATM   24  C   UNL     1      19.641  49.966  47.806  1.00  0.00     0.007 A 
HETATM   25  C   UNL     1      20.075  51.193  48.314  1.00  0.00    -0.062 A 
HETATM   26  C   UNL     1      19.173  52.391  48.315  1.00  0.00     0.048 C 
HETATM   27  C   UNL     1      21.360  51.285  48.861  1.00  0.00     0.007 A 
HETATM   28  C   UNL     1      22.195  50.166  48.902  1.00  0.00     0.009 A 
ENDBRANCH  21  22
ENDBRANCH   1  21
TORSDOF 5
ENDMDL
MODEL 9
REMARK VINA RESULT:      -8.3      6.364      9.568
REMARK  5 active torsions:
REMARK  status: ('A' for Active; 'I' for Inactive)
REMARK    1  A    between atoms: C_5  and  C_6 
REMARK    2  A    between atoms: C_6  and  N_7 
REMARK       I    between atoms: N_7  and  C_8 
REMARK       I    between atoms: C_8  and  N_9 
REMARK    3  A    between atoms: N_9  and  C_10 
REMARK    4  A    between atoms: C_10  and  C_11 
REMARK    5  A    between atoms: N_14  and  C_15 
ROOT
HETATM    1  N   UNL     1      26.920  45.344  53.187  1.00  0.00    -0.339 N 
HETATM    2  C   UNL     1      25.809  44.563  53.052  1.00  0.00     0.316 C 
HETATM    3  N   UNL     1      25.564  44.231  51.750  1.00  0.00    -0.339 N 
HETATM    4  O   UNL     1      25.101  44.220  53.989  1.00  0.00    -0.247 OA
HETATM    5  H   UNL     1      27.435  45.625  52.367  1.00  0.00     0.164 HD
HETATM    6  H   UNL     1      26.313  44.312  51.082  1.00  0.00     0.164 HD
ENDROOT
BRANCH   3   7
HETATM    7  C   UNL     1      24.456  43.376  51.395  1.00  0.00     0.165 C 
BRANCH   7   8
HETATM    8  C   UNL     1      24.869  42.357  50.375  1.00  0.00    -0.016 A 
HETATM    9  C   UNL     1      25.972  41.513  50.471  1.00  0.00     0.021 A 
HETATM   10  C   UNL     1      27.029  41.522  51.530  1.00  0.00     0.069 C 
HETATM   11  N   UNL     1      25.989  40.659  49.368  1.00  0.00    -0.319 N 
HETATM   12  C   UNL     1      24.924  41.007  48.543  1.00  0.00     0.014 A 
HETATM   13  C   UNL     1      24.540  40.284  47.297  1.00  0.00     0.068 C 
HETATM   14  C   UNL     1      24.231  42.036  49.151  1.00  0.00     0.035 A 
BRANCH  11  15
HETATM   15  C   UNL     1      26.913  39.596  49.141  1.00  0.00     0.039 A 
HETATM   16  C   UNL     1      26.656  38.322  49.665  1.00  0.00     0.030 A 
HETATM   17  C   UNL     1      27.554  37.278  49.435  1.00  0.00     0.002 A 
HETATM   18  C   UNL     1      28.707  37.499  48.686  1.00  0.00     0.000 A 
HETATM   19  C   UNL     1      28.967  38.765  48.162  1.00  0.00     0.002 A 
HETATM   20  C   UNL     1      28.070  39.814  48.386  1.00  0.00     0.030 A 
ENDBRANCH  11  15
ENDBRANCH   7   8
ENDBRANCH   3   7
BRANCH   1  21
HETATM   21  C   UNL     1      27.296  45.923  54.457  1.00  0.00     0.162 C 
BRANCH  21  22
HETATM   22  C   UNL     1      28.545  45.310  55.037  1.00  0.00    -0.040 A 
HETATM   23  C   UNL     1      29.143  45.875  56.174  1.00  0.00     0.009 A 
HETATM   24  C   UNL     1      30.250  45.267  56.775  1.00  0.00     0.007 A 
HETATM   25  C   UNL     1      30.779  44.083  56.254  1.00  0.00    -0.062 A 
HETATM   26  C   UNL     1      31.943  43.402  56.912  1.00  0.00     0.048 C 
HETATM   27  C   UNL     1      30.183  43.513  55.124  1.00  0.00     0.007 A 
HETATM   28  C   UNL     1      29.074  44.116  54.526  1.00  0.00     0.009 A 
ENDBRANCH  21  22
ENDBRANCH   1  21
TORSDOF 5
ENDMDL
MODEL 10
REMARK VINA RESULT:      -8.0      4.293     10.249
REMARK  5 active torsions:
REMARK  status: ('A' for Active; 'I' for Inactive)
REMARK    1  A    between atoms: C_5  and  C_6 
REMARK    2  A    between atoms: C_6  and  N_7 
REMARK       I    between atoms: N_7  and  C_8 
REMARK       I    between atoms: C_8  and  N_9 
REMARK    3  A    between atoms: N_9  and  C_10 
REMARK    4  A    between atoms: C_10  and  C_11 
REMARK    5  A    between atoms: N_14  and  C_15 
ROOT
HETATM    1  N   UNL     1      28.955  43.231  52.284  1.00  0.00    -0.339 N 
HETATM    2  C   UNL     1      27.941  42.588  51.634  1.00  0.00     0.316 C 
HETATM    3  N   UNL     1      27.296  43.402  50.747  1.00  0.00    -0.339 N 
HETATM    4  O   UNL     1      27.632  41.422  51.841  1.00  0.00    -0.247 OA
HETATM    5  H   UNL     1      29.130  44.205  52.095  1.00  0.00     0.164 HD
HETATM    6  H   UNL     1      27.760  44.239  50.435  1.00  0.00     0.164 HD
ENDROOT
BRANCH   3   7
HETATM    7  C   UNL     1      26.216  42.903  49.928  1.00  0.00     0.165 C 
BRANCH   7   8
HETATM    8  C   UNL     1      25.261  44.004  49.570  1.00  0.00    -0.016 A 
HETATM    9  C   UNL     1      24.103  43.858  48.812  1.00  0.00     0.021 A 
HETATM   10  C   UNL     1      23.633  42.626  48.104  1.00  0.00     0.069 C 
HETATM   11  N   UNL     1      23.440  45.084  48.753  1.00  0.00    -0.319 N 
HETATM   12  C   UNL     1      24.217  46.021  49.428  1.00  0.00     0.014 A 
HETATM   13  C   UNL     1      23.825  47.439  49.666  1.00  0.00     0.068 C 
HETATM   14  C   UNL     1      25.325  45.371  49.936  1.00  0.00     0.035 A 
BRANCH  11  15
HETATM   15  C   UNL     1      22.176  45.328  48.139  1.00  0.00     0.039 A 
HETATM   16  C   UNL     1      22.117  45.795  46.820  1.00  0.00     0.030 A 
HETATM   17  C   UNL     1      20.880  46.025  46.214  1.00  0.00     0.002 A 
HETATM   18  C   UNL     1      19.702  45.793  46.921  1.00  0.00     0.000 A 
HETATM   19  C   UNL     1      19.755  45.329  48.234  1.00  0.00     0.002 A 
HETATM   20  C   UNL     1      20.991  45.093  48.845  1.00  0.00     0.030 A 
ENDBRANCH  11  15
ENDBRANCH   7   8
ENDBRANCH   3   7
BRANCH   1  21
HETATM   21  C   UNL     1      29.689  42.604  53.360  1.00  0.00     0.162 C 
BRANCH  21  22
HETATM   22  C   UNL     1      29.924  43.528  54.529  1.00  0.00    -0.040 A 
HETATM   23  C   UNL     1      29.118  44.663  54.700  1.00  0.00     0.009 A 
HETATM   24  C   UNL     1      29.265  45.480  55.825  1.00  0.00     0.007 A 
HETATM   25  C   UNL     1      30.219  45.179  56.801  1.00  0.00    -0.062 A 
HETATM   26  C   UNL     1      30.361  46.027  58.031  1.00  0.00     0.048 C 
HETATM   27  C   UNL     1      31.021  44.045  56.638  1.00  0.00     0.007 A 
HETATM   28  C   UNL     1      30.871  43.224  55.517  1.00  0.00     0.009 A 
ENDBRANCH  21  22
ENDBRANCH   1  21
TORSDOF 5
ENDMDL
