MODEL 1
REMARK VINA RESULT:      -7.6      0.000      0.000
REMARK  9 active torsions:
REMARK  status: ('A' for Active; 'I' for Inactive)
REMARK    1  A    between atoms: C_2  and  C_3 
REMARK    2  A    between atoms: C_3  and  C_4 
REMARK    3  A    between atoms: C_7  and  C_8 
REMARK       I    between atoms: C_8  and  N_9 
REMARK    4  A    between atoms: C_13  and  O_14 
REMARK    5  A    between atoms: O_14  and  C_15 
REMARK    6  A    between atoms: C_15  and  C_16 
REMARK    7  A    between atoms: C_16  and  O_17 
REMARK    8  A    between atoms: C_19  and  N_20 
REMARK       I    between atoms: N_20  and  C_21 
REMARK    9  A    between atoms: C_21  and  C_22 
ROOT
HETATM    1  C   UNL     1      32.185  50.334  42.583  1.00  0.00     0.274 C 
HETATM    2  N   UNL     1      31.275  50.655  41.559  1.00  0.00    -0.347 N 
HETATM    3  C   UNL     1      31.612  50.671  40.134  1.00  0.00     0.127 C 
HETATM    4  C   UNL     1      31.215  49.332  39.514  1.00  0.00     0.037 C 
HETATM    5  C   UNL     1      29.705  49.050  39.702  1.00  0.00     0.019 C 
HETATM    6  C   UNL     1      28.782  49.980  38.818  1.00  0.00     0.162 C 
HETATM    7  C   UNL     1      27.628  49.083  38.263  1.00  0.00     0.148 C 
HETATM    8  C   UNL     1      28.199  47.701  38.382  1.00  0.00    -0.026 A 
HETATM    9  C   UNL     1      29.336  47.670  39.192  1.00  0.00    -0.038 A 
HETATM   10  C   UNL     1      27.685  46.540  37.815  1.00  0.00     0.010 A 
HETATM   11  C   UNL     1      28.327  45.328  38.072  1.00  0.00     0.001 A 
HETATM   12  C   UNL     1      29.459  45.288  38.894  1.00  0.00     0.001 A 
HETATM   13  C   UNL     1      29.968  46.460  39.460  1.00  0.00     0.009 A 
HETATM   14  C   UNL     1      29.340  49.168  41.206  1.00  0.00     0.037 C 
HETATM   15  C   UNL     1      29.850  50.478  41.820  1.00  0.00     0.127 C 
HETATM   16  O   UNL     1      31.792  49.868  43.654  1.00  0.00    -0.266 OA
ENDROOT
BRANCH   6  17
HETATM   17  O   UNL     1      29.548  50.551  37.736  1.00  0.00    -0.380 OA
BRANCH  17  18
HETATM   18  C   UNL     1      29.469  51.979  37.685  1.00  0.00     0.194 C 
BRANCH  18  19
HETATM   19  C   UNL     1      28.613  52.471  38.847  1.00  0.00     0.193 C 
BRANCH  19  20
HETATM   20  O   UNL     1      28.989  53.804  39.188  1.00  0.00    -0.394 OA
HETATM   21  C   UNL     1      29.864  53.831  40.308  1.00  0.00     0.201 C 
ENDBRANCH  19  20
ENDBRANCH  18  19
ENDBRANCH  17  18
ENDBRANCH   6  17
BRANCH   7  22
HETATM   22  N   UNL     1      26.389  49.178  39.013  1.00  0.00    -0.350 N 
HETATM   23  C   UNL     1      25.171  48.970  38.410  1.00  0.00     0.221 C 
HETATM   24  O   UNL     1      25.048  48.853  37.196  1.00  0.00    -0.273 OA
HETATM   25  H   UNL     1      26.446  49.230  40.022  1.00  0.00     0.163 HD
BRANCH  23  26
HETATM   26  C   UNL     1      24.000  48.895  39.386  1.00  0.00     0.070 C 
HETATM   27  C   UNL     1      22.672  48.792  38.639  1.00  0.00     0.019 C 
HETATM   28  C   UNL     1      24.170  47.702  40.326  1.00  0.00     0.019 C 
ENDBRANCH  23  26
ENDBRANCH   7  22
BRANCH   1  29
HETATM   29  C   UNL     1      33.629  50.521  42.367  1.00  0.00     0.154 A 
HETATM   30  N   UNL     1      34.380  49.729  41.583  1.00  0.00    -0.123 NA
HETATM   31  O   UNL     1      35.674  50.196  41.684  1.00  0.00    -0.217 OA
HETATM   32  C   UNL     1      35.697  51.313  42.456  1.00  0.00     0.081 A 
HETATM   33  C   UNL     1      34.422  51.580  42.889  1.00  0.00     0.074 A 
BRANCH  32  34
HETATM   34  C   UNL     1      37.023  51.934  42.701  1.00  0.00     0.071 C 
BRANCH  34  35
HETATM   35  C   UNL     1      36.984  53.127  43.673  1.00  0.00    -0.017 C 
HETATM   36  C   UNL     1      37.741  54.344  43.133  1.00  0.00     0.010 C 
HETATM   37  C   UNL     1      37.593  52.712  45.017  1.00  0.00     0.010 C 
ENDBRANCH  34  35
ENDBRANCH  32  34
ENDBRANCH   1  29
TORSDOF 9
ENDMDL
MODEL 2
REMARK VINA RESULT:      -7.5      1.792      2.153
REMARK  9 active torsions:
REMARK  status: ('A' for Active; 'I' for Inactive)
REMARK    1  A    between atoms: C_2  and  C_3 
REMARK    2  A    between atoms: C_3  and  C_4 
REMARK    3  A    between atoms: C_7  and  C_8 
REMARK       I    between atoms: C_8  and  N_9 
REMARK    4  A    between atoms: C_13  and  O_14 
REMARK    5  A    between atoms: O_14  and  C_15 
REMARK    6  A    between atoms: C_15  and  C_16 
REMARK    7  A    between atoms: C_16  and  O_17 
REMARK    8  A    between atoms: C_19  and  N_20 
REMARK       I    between atoms: N_20  and  C_21 
REMARK    9  A    between atoms: C_21  and  C_22 
ROOT
HETATM    1  C   UNL     1      31.520  49.363  42.494  1.00  0.00     0.274 C 
HETATM    2  N   UNL     1      30.447  49.749  41.670  1.00  0.00    -0.347 N 
HETATM    3  C   UNL     1      30.600  50.259  40.306  1.00  0.00     0.127 C 
HETATM    4  C   UNL     1      30.416  49.106  39.320  1.00  0.00     0.037 C 
HETATM    5  C   UNL     1      29.030  48.438  39.487  1.00  0.00     0.019 C 
HETATM    6  C   UNL     1      27.837  49.345  38.986  1.00  0.00     0.162 C 
HETATM    7  C   UNL     1      26.834  48.406  38.238  1.00  0.00     0.148 C 
HETATM    8  C   UNL     1      27.688  47.222  37.891  1.00  0.00    -0.026 A 
HETATM    9  C   UNL     1      28.896  47.221  38.591  1.00  0.00    -0.038 A 
HETATM   10  C   UNL     1      27.360  46.192  37.017  1.00  0.00     0.010 A 
HETATM   11  C   UNL     1      28.263  45.142  36.849  1.00  0.00     0.001 A 
HETATM   12  C   UNL     1      29.470  45.129  37.558  1.00  0.00     0.001 A 
HETATM   13  C   UNL     1      29.791  46.168  38.436  1.00  0.00     0.009 A 
HETATM   14  C   UNL     1      28.832  48.023  40.970  1.00  0.00     0.037 C 
HETATM   15  C   UNL     1      29.131  49.176  41.935  1.00  0.00     0.127 C 
HETATM   16  O   UNL     1      31.363  48.526  43.386  1.00  0.00    -0.266 OA
ENDROOT
BRANCH   6  17
HETATM   17  O   UNL     1      28.333  50.369  38.099  1.00  0.00    -0.380 OA
BRANCH  17  18
HETATM   18  C   UNL     1      27.815  51.669  38.396  1.00  0.00     0.194 C 
BRANCH  18  19
HETATM   19  C   UNL     1      28.914  52.704  38.182  1.00  0.00     0.193 C 
BRANCH  19  20
HETATM   20  O   UNL     1      29.136  53.424  39.392  1.00  0.00    -0.394 OA
HETATM   21  C   UNL     1      28.409  52.862  40.477  1.00  0.00     0.201 C 
ENDBRANCH  19  20
ENDBRANCH  18  19
ENDBRANCH  17  18
ENDBRANCH   6  17
BRANCH   7  22
HETATM   22  N   UNL     1      25.701  47.986  39.042  1.00  0.00    -0.350 N 
HETATM   23  C   UNL     1      24.467  48.576  38.902  1.00  0.00     0.221 C 
HETATM   24  O   UNL     1      24.290  49.579  38.220  1.00  0.00    -0.273 OA
HETATM   25  H   UNL     1      25.792  47.136  39.585  1.00  0.00     0.163 HD
BRANCH  23  26
HETATM   26  C   UNL     1      23.351  47.868  39.665  1.00  0.00     0.070 C 
HETATM   27  C   UNL     1      23.916  47.051  40.825  1.00  0.00     0.019 C 
HETATM   28  C   UNL     1      22.336  48.887  40.184  1.00  0.00     0.019 C 
ENDBRANCH  23  26
ENDBRANCH   7  22
BRANCH   1  29
HETATM   29  C   UNL     1      32.858  49.936  42.275  1.00  0.00     0.154 A 
HETATM   30  N   UNL     1      33.332  51.009  42.932  1.00  0.00    -0.123 NA
HETATM   31  O   UNL     1      34.584  51.262  42.411  1.00  0.00    -0.217 OA
HETATM   32  C   UNL     1      34.903  50.303  41.504  1.00  0.00     0.081 A 
HETATM   33  C   UNL     1      33.856  49.422  41.403  1.00  0.00     0.074 A 
BRANCH  32  34
HETATM   34  C   UNL     1      36.211  50.439  40.814  1.00  0.00     0.071 C 
BRANCH  34  35
HETATM   35  C   UNL     1      36.106  50.986  39.379  1.00  0.00    -0.017 C 
HETATM   36  C   UNL     1      37.401  50.792  38.585  1.00  0.00     0.010 C 
HETATM   37  C   UNL     1      35.763  52.479  39.425  1.00  0.00     0.010 C 
ENDBRANCH  34  35
ENDBRANCH  32  34
ENDBRANCH   1  29
TORSDOF 9
ENDMDL
MODEL 3
REMARK VINA RESULT:      -7.3     12.293     14.860
REMARK  9 active torsions:
REMARK  status: ('A' for Active; 'I' for Inactive)
REMARK    1  A    between atoms: C_2  and  C_3 
REMARK    2  A    between atoms: C_3  and  C_4 
REMARK    3  A    between atoms: C_7  and  C_8 
REMARK       I    between atoms: C_8  and  N_9 
REMARK    4  A    between atoms: C_13  and  O_14 
REMARK    5  A    between atoms: O_14  and  C_15 
REMARK    6  A    between atoms: C_15  and  C_16 
REMARK    7  A    between atoms: C_16  and  O_17 
REMARK    8  A    between atoms: C_19  and  N_20 
REMARK       I    between atoms: N_20  and  C_21 
REMARK    9  A    between atoms: C_21  and  C_22 
ROOT
HETATM    1  C   UNL     1      18.681  45.610  48.242  1.00  0.00     0.274 C 
HETATM    2  N   UNL     1      18.741  46.952  48.662  1.00  0.00    -0.347 N 
HETATM    3  C   UNL     1      19.887  47.834  48.437  1.00  0.00     0.127 C 
HETATM    4  C   UNL     1      19.637  48.662  47.177  1.00  0.00     0.037 C 
HETATM    5  C   UNL     1      18.339  49.495  47.299  1.00  0.00     0.019 C 
HETATM    6  C   UNL     1      18.460  50.692  48.324  1.00  0.00     0.162 C 
HETATM    7  C   UNL     1      17.729  51.917  47.684  1.00  0.00     0.148 C 
HETATM    8  C   UNL     1      17.713  51.565  46.225  1.00  0.00    -0.026 A 
HETATM    9  C   UNL     1      18.030  50.224  46.004  1.00  0.00    -0.038 A 
HETATM   10  C   UNL     1      17.390  52.413  45.171  1.00  0.00     0.010 A 
HETATM   11  C   UNL     1      17.384  51.898  43.875  1.00  0.00     0.001 A 
HETATM   12  C   UNL     1      17.688  50.551  43.648  1.00  0.00     0.001 A 
HETATM   13  C   UNL     1      18.010  49.706  44.713  1.00  0.00     0.009 A 
HETATM   14  C   UNL     1      17.157  48.559  47.669  1.00  0.00     0.037 C 
HETATM   15  C   UNL     1      17.486  47.667  48.872  1.00  0.00     0.127 C 
HETATM   16  O   UNL     1      17.599  45.068  48.009  1.00  0.00    -0.266 OA
ENDROOT
BRANCH   6  17
HETATM   17  O   UNL     1      19.849  50.997  48.565  1.00  0.00    -0.380 OA
BRANCH  17  18
HETATM   18  C   UNL     1      20.145  51.216  49.947  1.00  0.00     0.194 C 
BRANCH  18  19
HETATM   19  C   UNL     1      21.613  50.886  50.200  1.00  0.00     0.193 C 
BRANCH  19  20
HETATM   20  O   UNL     1      22.263  50.619  48.960  1.00  0.00    -0.394 OA
HETATM   21  C   UNL     1      23.135  49.501  49.056  1.00  0.00     0.201 C 
ENDBRANCH  19  20
ENDBRANCH  18  19
ENDBRANCH  17  18
ENDBRANCH   6  17
BRANCH   7  22
HETATM   22  N   UNL     1      16.373  52.118  48.164  1.00  0.00    -0.350 N 
HETATM   23  C   UNL     1      16.121  52.818  49.319  1.00  0.00     0.221 C 
HETATM   24  O   UNL     1      17.012  53.170  50.084  1.00  0.00    -0.273 OA
HETATM   25  H   UNL     1      15.610  51.882  47.543  1.00  0.00     0.163 HD
BRANCH  23  26
HETATM   26  C   UNL     1      14.643  53.115  49.554  1.00  0.00     0.070 C 
HETATM   27  C   UNL     1      14.403  53.598  50.983  1.00  0.00     0.019 C 
HETATM   28  C   UNL     1      14.148  54.160  48.555  1.00  0.00     0.019 C 
ENDBRANCH  23  26
ENDBRANCH   7  22
BRANCH   1  29
HETATM   29  C   UNL     1      19.924  44.848  48.042  1.00  0.00     0.154 A 
HETATM   30  N   UNL     1      20.119  43.982  47.033  1.00  0.00    -0.123 NA
HETATM   31  O   UNL     1      21.373  43.439  47.224  1.00  0.00    -0.217 OA
HETATM   32  C   UNL     1      21.969  44.030  48.292  1.00  0.00     0.081 A 
HETATM   33  C   UNL     1      21.105  44.952  48.828  1.00  0.00     0.074 A 
BRANCH  32  34
HETATM   34  C   UNL     1      23.320  43.540  48.664  1.00  0.00     0.071 C 
BRANCH  34  35
HETATM   35  C   UNL     1      23.968  44.318  49.824  1.00  0.00    -0.017 C 
HETATM   36  C   UNL     1      25.223  45.079  49.386  1.00  0.00     0.010 C 
HETATM   37  C   UNL     1      24.338  43.345  50.950  1.00  0.00     0.010 C 
ENDBRANCH  34  35
ENDBRANCH  32  34
ENDBRANCH   1  29
TORSDOF 9
ENDMDL
MODEL 4
REMARK VINA RESULT:      -7.2     11.308     14.992
REMARK  9 active torsions:
REMARK  status: ('A' for Active; 'I' for Inactive)
REMARK    1  A    between atoms: C_2  and  C_3 
REMARK    2  A    between atoms: C_3  and  C_4 
REMARK    3  A    between atoms: C_7  and  C_8 
REMARK       I    between atoms: C_8  and  N_9 
REMARK    4  A    between atoms: C_13  and  O_14 
REMARK    5  A    between atoms: O_14  and  C_15 
REMARK    6  A    between atoms: C_15  and  C_16 
REMARK    7  A    between atoms: C_16  and  O_17 
REMARK    8  A    between atoms: C_19  and  N_20 
REMARK       I    between atoms: N_20  and  C_21 
REMARK    9  A    between atoms: C_21  and  C_22 
ROOT
HETATM    1  C   UNL     1      18.529  45.832  48.119  1.00  0.00     0.274 C 
HETATM    2  N   UNL     1      18.593  47.171  48.546  1.00  0.00    -0.347 N 
HETATM    3  C   UNL     1      19.747  48.048  48.334  1.00  0.00     0.127 C 
HETATM    4  C   UNL     1      19.512  48.883  47.076  1.00  0.00     0.037 C 
HETATM    5  C   UNL     1      18.218  49.723  47.189  1.00  0.00     0.019 C 
HETATM    6  C   UNL     1      18.336  50.915  48.221  1.00  0.00     0.162 C 
HETATM    7  C   UNL     1      17.618  52.146  47.579  1.00  0.00     0.148 C 
HETATM    8  C   UNL     1      17.614  51.801  46.119  1.00  0.00    -0.026 A 
HETATM    9  C   UNL     1      17.925  50.458  45.895  1.00  0.00    -0.038 A 
HETATM   10  C   UNL     1      17.306  52.655  45.066  1.00  0.00     0.010 A 
HETATM   11  C   UNL     1      17.308  52.145  43.767  1.00  0.00     0.001 A 
HETATM   12  C   UNL     1      17.606  50.797  43.537  1.00  0.00     0.001 A 
HETATM   13  C   UNL     1      17.914  49.946  44.602  1.00  0.00     0.009 A 
HETATM   14  C   UNL     1      17.027  48.792  47.545  1.00  0.00     0.037 C 
HETATM   15  C   UNL     1      17.340  47.893  48.747  1.00  0.00     0.127 C 
HETATM   16  O   UNL     1      17.446  45.297  47.874  1.00  0.00    -0.266 OA
ENDROOT
BRANCH   6  17
HETATM   17  O   UNL     1      19.726  51.211  48.475  1.00  0.00    -0.380 OA
BRANCH  17  18
HETATM   18  C   UNL     1      20.031  51.317  49.869  1.00  0.00     0.194 C 
BRANCH  18  19
HETATM   19  C   UNL     1      21.469  50.864  50.099  1.00  0.00     0.193 C 
BRANCH  19  20
HETATM   20  O   UNL     1      22.125  50.699  48.843  1.00  0.00    -0.394 OA
HETATM   21  C   UNL     1      23.233  49.815  48.943  1.00  0.00     0.201 C 
ENDBRANCH  19  20
ENDBRANCH  18  19
ENDBRANCH  17  18
ENDBRANCH   6  17
BRANCH   7  22
HETATM   22  N   UNL     1      16.260  52.353  48.047  1.00  0.00    -0.350 N 
HETATM   23  C   UNL     1      16.005  52.895  49.285  1.00  0.00     0.221 C 
HETATM   24  O   UNL     1      16.887  53.083  50.116  1.00  0.00    -0.273 OA
HETATM   25  H   UNL     1      15.506  52.252  47.380  1.00  0.00     0.163 HD
BRANCH  23  26
HETATM   26  C   UNL     1      14.538  53.238  49.522  1.00  0.00     0.070 C 
HETATM   27  C   UNL     1      14.295  53.624  50.979  1.00  0.00     0.019 C 
HETATM   28  C   UNL     1      14.105  54.376  48.597  1.00  0.00     0.019 C 
ENDBRANCH  23  26
ENDBRANCH   7  22
BRANCH   1  29
HETATM   29  C   UNL     1      19.770  45.063  47.928  1.00  0.00     0.154 A 
HETATM   30  N   UNL     1      20.548  44.631  48.935  1.00  0.00    -0.123 NA
HETATM   31  O   UNL     1      21.629  44.005  48.350  1.00  0.00    -0.217 OA
HETATM   32  C   UNL     1      21.468  43.983  47.001  1.00  0.00     0.081 A 
HETATM   33  C   UNL     1      20.292  44.613  46.684  1.00  0.00     0.074 A 
BRANCH  32  34
HETATM   34  C   UNL     1      22.563  43.372  46.204  1.00  0.00     0.071 C 
BRANCH  34  35
HETATM   35  C   UNL     1      22.385  43.522  44.682  1.00  0.00    -0.017 C 
HETATM   36  C   UNL     1      22.410  42.174  43.956  1.00  0.00     0.010 C 
HETATM   37  C   UNL     1      23.498  44.416  44.123  1.00  0.00     0.010 C 
ENDBRANCH  34  35
ENDBRANCH  32  34
ENDBRANCH   1  29
TORSDOF 9
ENDMDL
MODEL 5
REMARK VINA RESULT:      -7.2     12.243     13.870
REMARK  9 active torsions:
REMARK  status: ('A' for Active; 'I' for Inactive)
REMARK    1  A    between atoms: C_2  and  C_3 
REMARK    2  A    between atoms: C_3  and  C_4 
REMARK    3  A    between atoms: C_7  and  C_8 
REMARK       I    between atoms: C_8  and  N_9 
REMARK    4  A    between atoms: C_13  and  O_14 
REMARK    5  A    between atoms: O_14  and  C_15 
REMARK    6  A    between atoms: C_15  and  C_16 
REMARK    7  A    between atoms: C_16  and  O_17 
REMARK    8  A    between atoms: C_19  and  N_20 
REMARK       I    between atoms: N_20  and  C_21 
REMARK    9  A    between atoms: C_21  and  C_22 
ROOT
HETATM    1  C   UNL     1      28.241  40.935  52.375  1.00  0.00     0.274 C 
HETATM    2  N   UNL     1      27.032  41.037  51.663  1.00  0.00    -0.347 N 
HETATM    3  C   UNL     1      26.548  42.269  51.037  1.00  0.00     0.127 C 
HETATM    4  C   UNL     1      26.949  42.268  49.562  1.00  0.00     0.037 C 
HETATM    5  C   UNL     1      26.377  41.034  48.823  1.00  0.00     0.019 C 
HETATM    6  C   UNL     1      24.811  41.098  48.622  1.00  0.00     0.162 C 
HETATM    7  C   UNL     1      24.514  40.564  47.183  1.00  0.00     0.148 C 
HETATM    8  C   UNL     1      25.834  40.732  46.491  1.00  0.00    -0.026 A 
HETATM    9  C   UNL     1      26.874  40.973  47.391  1.00  0.00    -0.038 A 
HETATM   10  C   UNL     1      26.073  40.631  45.125  1.00  0.00     0.010 A 
HETATM   11  C   UNL     1      27.381  40.772  44.660  1.00  0.00     0.001 A 
HETATM   12  C   UNL     1      28.429  41.001  45.559  1.00  0.00     0.001 A 
HETATM   13  C   UNL     1      28.180  41.099  46.931  1.00  0.00     0.009 A 
HETATM   14  C   UNL     1      26.791  39.742  49.578  1.00  0.00     0.037 C 
HETATM   15  C   UNL     1      26.471  39.824  51.076  1.00  0.00     0.127 C 
HETATM   16  O   UNL     1      28.837  39.859  52.459  1.00  0.00    -0.266 OA
ENDROOT
BRANCH   6  17
HETATM   17  O   UNL     1      24.350  42.458  48.766  1.00  0.00    -0.380 OA
BRANCH  17  18
HETATM   18  C   UNL     1      23.204  42.575  49.614  1.00  0.00     0.194 C 
BRANCH  18  19
HETATM   19  C   UNL     1      23.063  44.027  50.062  1.00  0.00     0.193 C 
BRANCH  19  20
HETATM   20  O   UNL     1      23.672  44.193  51.341  1.00  0.00    -0.394 OA
HETATM   21  C   UNL     1      24.570  45.295  51.354  1.00  0.00     0.201 C 
ENDBRANCH  19  20
ENDBRANCH  18  19
ENDBRANCH  17  18
ENDBRANCH   6  17
BRANCH   7  22
HETATM   22  N   UNL     1      24.100  39.173  47.139  1.00  0.00    -0.350 N 
HETATM   23  C   UNL     1      23.063  38.762  46.336  1.00  0.00     0.221 C 
HETATM   24  O   UNL     1      22.336  39.550  45.743  1.00  0.00    -0.273 OA
HETATM   25  H   UNL     1      24.698  38.485  47.578  1.00  0.00     0.163 HD
BRANCH  23  26
HETATM   26  C   UNL     1      22.908  37.246  46.251  1.00  0.00     0.070 C 
HETATM   27  C   UNL     1      24.183  36.540  46.707  1.00  0.00     0.019 C 
HETATM   28  C   UNL     1      21.721  36.787  47.097  1.00  0.00     0.019 C 
ENDBRANCH  23  26
ENDBRANCH   7  22
BRANCH   1  29
HETATM   29  C   UNL     1      28.827  42.131  53.002  1.00  0.00     0.154 A 
HETATM   30  N   UNL     1      29.904  42.778  52.525  1.00  0.00    -0.123 NA
HETATM   31  O   UNL     1      30.168  43.801  53.412  1.00  0.00    -0.217 OA
HETATM   32  C   UNL     1      29.211  43.828  54.376  1.00  0.00     0.081 A 
HETATM   33  C   UNL     1      28.321  42.810  54.145  1.00  0.00     0.074 A 
BRANCH  32  34
HETATM   34  C   UNL     1      29.359  44.852  55.441  1.00  0.00     0.071 C 
BRANCH  34  35
HETATM   35  C   UNL     1      30.688  44.763  56.212  1.00  0.00    -0.017 C 
HETATM   36  C   UNL     1      31.124  43.316  56.459  1.00  0.00     0.010 C 
HETATM   37  C   UNL     1      30.548  45.483  57.558  1.00  0.00     0.010 C 
ENDBRANCH  34  35
ENDBRANCH  32  34
ENDBRANCH   1  29
TORSDOF 9
ENDMDL
MODEL 6
REMARK VINA RESULT:      -6.8     11.522     15.991
REMARK  9 active torsions:
REMARK  status: ('A' for Active; 'I' for Inactive)
REMARK    1  A    between atoms: C_2  and  C_3 
REMARK    2  A    between atoms: C_3  and  C_4 
REMARK    3  A    between atoms: C_7  and  C_8 
REMARK       I    between atoms: C_8  and  N_9 
REMARK    4  A    between atoms: C_13  and  O_14 
REMARK    5  A    between atoms: O_14  and  C_15 
REMARK    6  A    between atoms: C_15  and  C_16 
REMARK    7  A    between atoms: C_16  and  O_17 
REMARK    8  A    between atoms: C_19  and  N_20 
REMARK       I    between atoms: N_20  and  C_21 
REMARK    9  A    between atoms: C_21  and  C_22 
ROOT
HETATM    1  C   UNL     1      15.927  48.040  47.747  1.00  0.00     0.274 C 
HETATM    2  N   UNL     1      17.112  47.371  47.392  1.00  0.00    -0.347 N 
HETATM    3  C   UNL     1      17.883  47.652  46.179  1.00  0.00     0.127 C 
HETATM    4  C   UNL     1      19.012  48.624  46.521  1.00  0.00     0.037 C 
HETATM    5  C   UNL     1      19.937  48.048  47.620  1.00  0.00     0.019 C 
HETATM    6  C   UNL     1      20.831  46.846  47.116  1.00  0.00     0.162 C 
HETATM    7  C   UNL     1      22.250  47.039  47.743  1.00  0.00     0.148 C 
HETATM    8  C   UNL     1      22.262  48.499  48.089  1.00  0.00    -0.026 A 
HETATM    9  C   UNL     1      20.985  49.061  48.042  1.00  0.00    -0.038 A 
HETATM   10  C   UNL     1      23.369  49.255  48.459  1.00  0.00     0.010 A 
HETATM   11  C   UNL     1      23.184  50.597  48.793  1.00  0.00     0.001 A 
HETATM   12  C   UNL     1      21.904  51.162  48.761  1.00  0.00     0.001 A 
HETATM   13  C   UNL     1      20.797  50.395  48.388  1.00  0.00     0.009 A 
HETATM   14  C   UNL     1      19.084  47.632  48.849  1.00  0.00     0.037 C 
HETATM   15  C   UNL     1      17.897  46.746  48.451  1.00  0.00     0.127 C 
HETATM   16  O   UNL     1      15.586  48.139  48.928  1.00  0.00    -0.266 OA
ENDROOT
BRANCH   6  17
HETATM   17  O   UNL     1      20.906  46.858  45.674  1.00  0.00    -0.380 OA
BRANCH  17  18
HETATM   18  C   UNL     1      21.297  45.597  45.122  1.00  0.00     0.194 C 
BRANCH  18  19
HETATM   19  C   UNL     1      20.303  44.530  45.569  1.00  0.00     0.193 C 
BRANCH  19  20
HETATM   20  O   UNL     1      19.118  44.620  44.780  1.00  0.00    -0.394 OA
HETATM   21  C   UNL     1      17.997  44.065  45.454  1.00  0.00     0.201 C 
ENDBRANCH  19  20
ENDBRANCH  18  19
ENDBRANCH  17  18
ENDBRANCH   6  17
BRANCH   7  22
HETATM   22  N   UNL     1      22.487  46.242  48.933  1.00  0.00    -0.350 N 
HETATM   23  C   UNL     1      23.170  45.051  48.872  1.00  0.00     0.221 C 
HETATM   24  O   UNL     1      23.475  44.521  47.809  1.00  0.00    -0.273 OA
HETATM   25  H   UNL     1      22.291  46.662  49.833  1.00  0.00     0.163 HD
BRANCH  23  26
HETATM   26  C   UNL     1      23.513  44.461  50.236  1.00  0.00     0.070 C 
HETATM   27  C   UNL     1      24.026  43.029  50.099  1.00  0.00     0.019 C 
HETATM   28  C   UNL     1      24.555  45.329  50.942  1.00  0.00     0.019 C 
ENDBRANCH  23  26
ENDBRANCH   7  22
BRANCH   1  29
HETATM   29  C   UNL     1      15.094  48.663  46.705  1.00  0.00     0.154 A 
HETATM   30  N   UNL     1      14.087  48.035  46.075  1.00  0.00    -0.123 NA
HETATM   31  O   UNL     1      13.596  48.927  45.144  1.00  0.00    -0.217 OA
HETATM   32  C   UNL     1      14.243  50.115  45.264  1.00  0.00     0.081 A 
HETATM   33  C   UNL     1      15.181  50.011  46.259  1.00  0.00     0.074 A 
BRANCH  32  34
HETATM   34  C   UNL     1      13.861  51.188  44.310  1.00  0.00     0.071 C 
BRANCH  34  35
HETATM   35  C   UNL     1      13.740  52.581  44.954  1.00  0.00    -0.017 C 
HETATM   36  C   UNL     1      12.304  53.114  44.925  1.00  0.00     0.010 C 
HETATM   37  C   UNL     1      14.657  53.566  44.219  1.00  0.00     0.010 C 
ENDBRANCH  34  35
ENDBRANCH  32  34
ENDBRANCH   1  29
TORSDOF 9
ENDMDL
MODEL 7
REMARK VINA RESULT:      -6.7     10.706     15.701
REMARK  9 active torsions:
REMARK  status: ('A' for Active; 'I' for Inactive)
REMARK    1  A    between atoms: C_2  and  C_3 
REMARK    2  A    between atoms: C_3  and  C_4 
REMARK    3  A    between atoms: C_7  and  C_8 
REMARK       I    between atoms: C_8  and  N_9 
REMARK    4  A    between atoms: C_13  and  O_14 
REMARK    5  A    between atoms: O_14  and  C_15 
REMARK    6  A    between atoms: C_15  and  C_16 
REMARK    7  A    between atoms: C_16  and  O_17 
REMARK    8  A    between atoms: C_19  and  N_20 
REMARK       I    between atoms: N_20  and  C_21 
REMARK    9  A    between atoms: C_21  and  C_22 
ROOT
HETATM    1  C   UNL     1      17.731  52.327  42.205  1.00  0.00     0.274 C 
HETATM    2  N   UNL     1      16.813  51.964  43.207  1.00  0.00    -0.347 N 
HETATM    3  C   UNL     1      16.735  50.630  43.807  1.00  0.00     0.127 C 
HETATM    4  C   UNL     1      17.539  50.623  45.106  1.00  0.00     0.037 C 
HETATM    5  C   UNL     1      17.014  51.686  46.101  1.00  0.00     0.019 C 
HETATM    6  C   UNL     1      15.604  51.324  46.716  1.00  0.00     0.162 C 
HETATM    7  C   UNL     1      15.654  51.712  48.229  1.00  0.00     0.148 C 
HETATM    8  C   UNL     1      17.127  51.753  48.511  1.00  0.00    -0.026 A 
HETATM    9  C   UNL     1      17.887  51.758  47.340  1.00  0.00    -0.038 A 
HETATM   10  C   UNL     1      17.731  51.818  49.762  1.00  0.00     0.010 A 
HETATM   11  C   UNL     1      19.122  51.896  49.832  1.00  0.00     0.001 A 
HETATM   12  C   UNL     1      19.888  51.915  48.661  1.00  0.00     0.001 A 
HETATM   13  C   UNL     1      19.273  51.850  47.407  1.00  0.00     0.009 A 
HETATM   14  C   UNL     1      16.979  53.073  45.402  1.00  0.00     0.037 C 
HETATM   15  C   UNL     1      16.257  53.018  44.050  1.00  0.00     0.127 C 
HETATM   16  O   UNL     1      18.096  53.497  42.075  1.00  0.00    -0.266 OA
ENDROOT
BRANCH   6  17
HETATM   17  O   UNL     1      15.346  49.912  46.560  1.00  0.00    -0.380 OA
BRANCH  17  18
HETATM   18  C   UNL     1      15.248  49.219  47.808  1.00  0.00     0.194 C 
BRANCH  18  19
HETATM   19  C   UNL     1      16.134  47.978  47.758  1.00  0.00     0.193 C 
BRANCH  19  20
HETATM   20  O   UNL     1      17.498  48.358  47.927  1.00  0.00    -0.394 OA
HETATM   21  C   UNL     1      17.965  48.066  49.237  1.00  0.00     0.201 C 
ENDBRANCH  19  20
ENDBRANCH  18  19
ENDBRANCH  17  18
ENDBRANCH   6  17
BRANCH   7  22
HETATM   22  N   UNL     1      15.052  52.998  48.533  1.00  0.00    -0.350 N 
HETATM   23  C   UNL     1      14.492  53.252  49.762  1.00  0.00     0.221 C 
HETATM   24  O   UNL     1      14.325  52.377  50.605  1.00  0.00    -0.273 OA
HETATM   25  H   UNL     1      15.205  53.760  47.885  1.00  0.00     0.163 HD
BRANCH  23  26
HETATM   26  C   UNL     1      14.105  54.712  49.978  1.00  0.00     0.070 C 
HETATM   27  C   UNL     1      12.628  54.837  50.345  1.00  0.00     0.019 C 
HETATM   28  C   UNL     1      14.974  55.335  51.071  1.00  0.00     0.019 C 
ENDBRANCH  23  26
ENDBRANCH   7  22
BRANCH   1  29
HETATM   29  C   UNL     1      18.295  51.296  41.318  1.00  0.00     0.154 A 
HETATM   30  N   UNL     1      17.652  50.790  40.252  1.00  0.00    -0.123 NA
HETATM   31  O   UNL     1      18.481  49.824  39.720  1.00  0.00    -0.217 OA
HETATM   32  C   UNL     1      19.654  49.802  40.405  1.00  0.00     0.081 A 
HETATM   33  C   UNL     1      19.599  50.736  41.409  1.00  0.00     0.074 A 
BRANCH  32  34
HETATM   34  C   UNL     1      20.658  48.792  39.986  1.00  0.00     0.071 C 
BRANCH  34  35
HETATM   35  C   UNL     1      22.115  49.277  40.096  1.00  0.00    -0.017 C 
HETATM   36  C   UNL     1      22.468  50.312  39.023  1.00  0.00     0.010 C 
HETATM   37  C   UNL     1      23.064  48.080  39.972  1.00  0.00     0.010 C 
ENDBRANCH  34  35
ENDBRANCH  32  34
ENDBRANCH   1  29
TORSDOF 9
ENDMDL
MODEL 8
REMARK VINA RESULT:      -6.6     11.958     14.954
REMARK  9 active torsions:
REMARK  status: ('A' for Active; 'I' for Inactive)
REMARK    1  A    between atoms: C_2  and  C_3 
REMARK    2  A    between atoms: C_3  and  C_4 
REMARK    3  A    between atoms: C_7  and  C_8 
REMARK       I    between atoms: C_8  and  N_9 
REMARK    4  A    between atoms: C_13  and  O_14 
REMARK    5  A    between atoms: O_14  and  C_15 
REMARK    6  A    between atoms: C_15  and  C_16 
REMARK    7  A    between atoms: C_16  and  O_17 
REMARK    8  A    between atoms: C_19  and  N_20 
REMARK       I    between atoms: N_20  and  C_21 
REMARK    9  A    between atoms: C_21  and  C_22 
ROOT
HETATM    1  C   UNL     1      19.338  50.061  49.655  1.00  0.00     0.274 C 
HETATM    2  N   UNL     1      18.878  50.989  48.703  1.00  0.00    -0.347 N 
HETATM    3  C   UNL     1      19.144  50.893  47.266  1.00  0.00     0.127 C 
HETATM    4  C   UNL     1      17.957  50.214  46.584  1.00  0.00     0.037 C 
HETATM    5  C   UNL     1      16.644  50.994  46.832  1.00  0.00     0.019 C 
HETATM    6  C   UNL     1      16.580  52.370  46.058  1.00  0.00     0.162 C 
HETATM    7  C   UNL     1      15.124  52.518  45.508  1.00  0.00     0.148 C 
HETATM    8  C   UNL     1      14.626  51.102  45.510  1.00  0.00    -0.026 A 
HETATM    9  C   UNL     1      15.450  50.256  46.256  1.00  0.00    -0.038 A 
HETATM   10  C   UNL     1      13.471  50.628  44.899  1.00  0.00     0.010 A 
HETATM   11  C   UNL     1      13.139  49.281  45.045  1.00  0.00     0.001 A 
HETATM   12  C   UNL     1      13.953  48.431  45.802  1.00  0.00     0.001 A 
HETATM   13  C   UNL     1      15.112  48.916  46.414  1.00  0.00     0.009 A 
HETATM   14  C   UNL     1      16.446  51.201  48.358  1.00  0.00     0.037 C 
HETATM   15  C   UNL     1      17.698  51.784  49.026  1.00  0.00     0.127 C 
HETATM   16  O   UNL     1      18.731  49.889  50.714  1.00  0.00    -0.266 OA
ENDROOT
BRANCH   6  17
HETATM   17  O   UNL     1      17.535  52.373  44.976  1.00  0.00    -0.380 OA
BRANCH  17  18
HETATM   18  C   UNL     1      17.143  53.208  43.883  1.00  0.00     0.194 C 
BRANCH  18  19
HETATM   19  C   UNL     1      17.501  52.513  42.573  1.00  0.00     0.193 C 
BRANCH  19  20
HETATM   20  O   UNL     1      17.872  51.161  42.835  1.00  0.00    -0.394 OA
HETATM   21  C   UNL     1      17.068  50.246  42.101  1.00  0.00     0.201 C 
ENDBRANCH  19  20
ENDBRANCH  18  19
ENDBRANCH  17  18
ENDBRANCH   6  17
BRANCH   7  22
HETATM   22  N   UNL     1      14.261  53.351  46.326  1.00  0.00    -0.350 N 
HETATM   23  C   UNL     1      13.958  54.641  45.961  1.00  0.00     0.221 C 
HETATM   24  O   UNL     1      14.514  55.209  45.027  1.00  0.00    -0.273 OA
HETATM   25  H   UNL     1      13.749  52.910  47.080  1.00  0.00     0.163 HD
BRANCH  23  26
HETATM   26  C   UNL     1      12.875  55.290  46.817  1.00  0.00     0.070 C 
HETATM   27  C   UNL     1      11.518  54.634  46.570  1.00  0.00     0.019 C 
HETATM   28  C   UNL     1      13.244  55.197  48.298  1.00  0.00     0.019 C 
ENDBRANCH  23  26
ENDBRANCH   7  22
BRANCH   1  29
HETATM   29  C   UNL     1      20.539  49.257  49.377  1.00  0.00     0.154 A 
HETATM   30  N   UNL     1      20.508  48.005  48.890  1.00  0.00    -0.123 NA
HETATM   31  O   UNL     1      21.819  47.582  48.820  1.00  0.00    -0.217 OA
HETATM   32  C   UNL     1      22.646  48.598  49.182  1.00  0.00     0.081 A 
HETATM   33  C   UNL     1      21.887  49.691  49.515  1.00  0.00     0.074 A 
BRANCH  32  34
HETATM   34  C   UNL     1      24.102  48.306  49.198  1.00  0.00     0.071 C 
BRANCH  34  35
HETATM   35  C   UNL     1      24.518  47.262  50.249  1.00  0.00    -0.017 C 
HETATM   36  C   UNL     1      25.934  47.503  50.783  1.00  0.00     0.010 C 
HETATM   37  C   UNL     1      24.445  45.859  49.635  1.00  0.00     0.010 C 
ENDBRANCH  34  35
ENDBRANCH  32  34
ENDBRANCH   1  29
TORSDOF 9
ENDMDL
MODEL 9
REMARK VINA RESULT:      -6.5      2.478      3.959
REMARK  9 active torsions:
REMARK  status: ('A' for Active; 'I' for Inactive)
REMARK    1  A    between atoms: C_2  and  C_3 
REMARK    2  A    between atoms: C_3  and  C_4 
REMARK    3  A    between atoms: C_7  and  C_8 
REMARK       I    between atoms: C_8  and  N_9 
REMARK    4  A    between atoms: C_13  and  O_14 
REMARK    5  A    between atoms: O_14  and  C_15 
REMARK    6  A    between atoms: C_15  and  C_16 
REMARK    7  A    between atoms: C_16  and  O_17 
REMARK    8  A    between atoms: C_19  and  N_20 
REMARK       I    between atoms: N_20  and  C_21 
REMARK    9  A    between atoms: C_21  and  C_22 
ROOT
HETATM    1  C   UNL     1      30.259  51.835  40.346  1.00  0.00     0.274 C 
HETATM    2  N   UNL     1      29.095  51.560  39.605  1.00  0.00    -0.347 N 
HETATM    3  C   UNL     1      29.062  50.716  38.409  1.00  0.00     0.127 C 
HETATM    4  C   UNL     1      28.654  49.299  38.812  1.00  0.00     0.037 C 
HETATM    5  C   UNL     1      27.273  49.288  39.511  1.00  0.00     0.019 C 
HETATM    6  C   UNL     1      26.073  49.588  38.528  1.00  0.00     0.162 C 
HETATM    7  C   UNL     1      24.909  48.620  38.920  1.00  0.00     0.148 C 
HETATM    8  C   UNL     1      25.623  47.533  39.668  1.00  0.00    -0.026 A 
HETATM    9  C   UNL     1      26.924  47.900  40.016  1.00  0.00    -0.038 A 
HETATM   10  C   UNL     1      25.099  46.300  40.038  1.00  0.00     0.010 A 
HETATM   11  C   UNL     1      25.898  45.425  40.775  1.00  0.00     0.001 A 
HETATM   12  C   UNL     1      27.199  45.794  41.138  1.00  0.00     0.001 A 
HETATM   13  C   UNL     1      27.717  47.036  40.763  1.00  0.00     0.009 A 
HETATM   14  C   UNL     1      27.287  50.290  40.698  1.00  0.00     0.037 C 
HETATM   15  C   UNL     1      27.805  51.671  40.278  1.00  0.00     0.127 C 
HETATM   16  O   UNL     1      30.195  52.113  41.545  1.00  0.00    -0.266 OA
ENDROOT
BRANCH   6  17
HETATM   17  O   UNL     1      26.485  49.362  37.163  1.00  0.00    -0.380 OA
BRANCH  17  18
HETATM   18  C   UNL     1      25.572  48.541  36.430  1.00  0.00     0.194 C 
BRANCH  18  19
HETATM   19  C   UNL     1      26.344  47.399  35.777  1.00  0.00     0.193 C 
BRANCH  19  20
HETATM   20  O   UNL     1      26.302  46.250  36.620  1.00  0.00    -0.394 OA
HETATM   21  C   UNL     1      27.606  45.827  36.995  1.00  0.00     0.201 C 
ENDBRANCH  19  20
ENDBRANCH  18  19
ENDBRANCH  17  18
ENDBRANCH   6  17
BRANCH   7  22
HETATM   22  N   UNL     1      23.894  49.223  39.764  1.00  0.00    -0.350 N 
HETATM   23  C   UNL     1      22.774  49.812  39.227  1.00  0.00     0.221 C 
HETATM   24  O   UNL     1      22.644  50.003  38.022  1.00  0.00    -0.273 OA
HETATM   25  H   UNL     1      23.941  49.051  40.761  1.00  0.00     0.163 HD
BRANCH  23  26
HETATM   26  C   UNL     1      21.719  50.197  40.259  1.00  0.00     0.070 C 
HETATM   27  C   UNL     1      21.489  51.707  40.267  1.00  0.00     0.019 C 
HETATM   28  C   UNL     1      20.408  49.466  39.974  1.00  0.00     0.019 C 
ENDBRANCH  23  26
ENDBRANCH   7  22
BRANCH   1  29
HETATM   29  C   UNL     1      31.578  51.758  39.696  1.00  0.00     0.154 A 
HETATM   30  N   UNL     1      31.756  51.672  38.367  1.00  0.00    -0.123 NA
HETATM   31  O   UNL     1      33.116  51.567  38.163  1.00  0.00    -0.217 OA
HETATM   32  C   UNL     1      33.766  51.673  39.351  1.00  0.00     0.081 A 
HETATM   33  C   UNL     1      32.839  51.826  40.351  1.00  0.00     0.074 A 
BRANCH  32  34
HETATM   34  C   UNL     1      35.245  51.548  39.323  1.00  0.00     0.071 C 
BRANCH  34  35
HETATM   35  C   UNL     1      35.928  51.905  40.655  1.00  0.00    -0.017 C 
HETATM   36  C   UNL     1      36.716  53.215  40.574  1.00  0.00     0.010 C 
HETATM   37  C   UNL     1      36.876  50.772  41.065  1.00  0.00     0.010 C 
ENDBRANCH  34  35
ENDBRANCH  32  34
ENDBRANCH   1  29
TORSDOF 9
ENDMDL
MODEL 10
REMARK VINA RESULT:      -6.5      5.001     12.728
REMARK  9 active torsions:
REMARK  status: ('A' for Active; 'I' for Inactive)
REMARK    1  A    between atoms: C_2  and  C_3 
REMARK    2  A    between atoms: C_3  and  C_4 
REMARK    3  A    between atoms: C_7  and  C_8 
REMARK       I    between atoms: C_8  and  N_9 
REMARK    4  A    between atoms: C_13  and  O_14 
REMARK    5  A    between atoms: O_14  and  C_15 
REMARK    6  A    between atoms: C_15  and  C_16 
REMARK    7  A    between atoms: C_16  and  O_17 
REMARK    8  A    between atoms: C_19  and  N_20 
REMARK       I    between atoms: N_20  and  C_21 
REMARK    9  A    between atoms: C_21  and  C_22 
ROOT
HETATM    1  C   UNL     1      36.964  52.843  40.938  1.00  0.00     0.274 C 
HETATM    2  N   UNL     1      37.460  53.134  42.222  1.00  0.00    -0.347 N 
HETATM    3  C   UNL     1      36.958  52.523  43.455  1.00  0.00     0.127 C 
HETATM    4  C   UNL     1      37.848  51.336  43.820  1.00  0.00     0.037 C 
HETATM    5  C   UNL     1      39.321  51.771  44.002  1.00  0.00     0.019 C 
HETATM    6  C   UNL     1      39.562  52.630  45.306  1.00  0.00     0.162 C 
HETATM    7  C   UNL     1      40.911  52.146  45.930  1.00  0.00     0.148 C 
HETATM    8  C   UNL     1      41.082  50.783  45.326  1.00  0.00    -0.026 A 
HETATM    9  C   UNL     1      40.221  50.574  44.247  1.00  0.00    -0.038 A 
HETATM   10  C   UNL     1      41.997  49.812  45.717  1.00  0.00     0.010 A 
HETATM   11  C   UNL     1      42.046  48.612  45.007  1.00  0.00     0.001 A 
HETATM   12  C   UNL     1      41.194  48.402  43.916  1.00  0.00     0.001 A 
HETATM   13  C   UNL     1      40.279  49.384  43.529  1.00  0.00     0.009 A 
HETATM   14  C   UNL     1      39.796  52.533  42.735  1.00  0.00     0.037 C 
HETATM   15  C   UNL     1      38.821  53.648  42.337  1.00  0.00     0.127 C 
HETATM   16  O   UNL     1      37.676  52.973  39.940  1.00  0.00    -0.266 OA
ENDROOT
BRANCH   6  17
HETATM   17  O   UNL     1      38.473  52.436  46.234  1.00  0.00    -0.380 OA
BRANCH  17  18
HETATM   18  C   UNL     1      38.240  53.570  47.073  1.00  0.00     0.194 C 
BRANCH  18  19
HETATM   19  C   UNL     1      38.076  54.810  46.198  1.00  0.00     0.193 C 
BRANCH  19  20
HETATM   20  O   UNL     1      38.878  55.869  46.715  1.00  0.00    -0.394 OA
HETATM   21  C   UNL     1      39.745  56.402  45.721  1.00  0.00     0.201 C 
ENDBRANCH  19  20
ENDBRANCH  18  19
ENDBRANCH  17  18
ENDBRANCH   6  17
BRANCH   7  22
HETATM   22  N   UNL     1      42.051  52.983  45.604  1.00  0.00    -0.350 N 
HETATM   23  C   UNL     1      42.518  53.930  46.485  1.00  0.00     0.221 C 
HETATM   24  O   UNL     1      41.916  54.229  47.510  1.00  0.00    -0.273 OA
HETATM   25  H   UNL     1      42.602  52.741  44.790  1.00  0.00     0.163 HD
BRANCH  23  26
HETATM   26  C   UNL     1      43.844  54.562  46.072  1.00  0.00     0.070 C 
HETATM   27  C   UNL     1      44.102  55.849  46.853  1.00  0.00     0.019 C 
HETATM   28  C   UNL     1      44.991  53.575  46.289  1.00  0.00     0.019 C 
ENDBRANCH  23  26
ENDBRANCH   7  22
BRANCH   1  29
HETATM   29  C   UNL     1      35.588  52.345  40.778  1.00  0.00     0.154 A 
HETATM   30  N   UNL     1      34.598  53.048  40.200  1.00  0.00    -0.123 NA
HETATM   31  O   UNL     1      33.464  52.268  40.290  1.00  0.00    -0.217 OA
HETATM   32  C   UNL     1      33.779  51.067  40.843  1.00  0.00     0.081 A 
HETATM   33  C   UNL     1      35.117  51.053  41.142  1.00  0.00     0.074 A 
BRANCH  32  34
HETATM   34  C   UNL     1      32.663  50.108  41.047  1.00  0.00     0.071 C 
BRANCH  34  35
HETATM   35  C   UNL     1      32.409  49.753  42.524  1.00  0.00    -0.017 C 
HETATM   36  C   UNL     1      31.239  48.780  42.696  1.00  0.00     0.010 C 
HETATM   37  C   UNL     1      32.120  51.032  43.316  1.00  0.00     0.010 C 
ENDBRANCH  34  35
ENDBRANCH  32  34
ENDBRANCH   1  29
TORSDOF 9
ENDMDL
