MODEL 1
REMARK VINA RESULT:      -9.1      0.000      0.000
REMARK  6 active torsions:
REMARK  status: ('A' for Active; 'I' for Inactive)
REMARK    1  A    between atoms: C_5  and  C_6 
REMARK    2  A    between atoms: C_11  and  C_12 
REMARK       I    between atoms: C_12  and  N_13 
REMARK    3  A    between atoms: N_13  and  C_14 
REMARK    4  A    between atoms: C_16  and  C_17 
REMARK    5  A    between atoms: C_17  and  O_18 
REMARK    6  A    between atoms: C_25  and  C_26 
ROOT
HETATM    1  C   UNL     1      26.448  39.243  48.147  1.00  0.00     0.118 C 
HETATM    2  N   UNL     1      26.285  40.466  48.926  1.00  0.00    -0.366 N 
HETATM    3  C   UNL     1      27.117  40.778  49.941  1.00  0.00     0.123 A 
HETATM    4  N   UNL     1      28.021  39.883  50.437  1.00  0.00    -0.240 N 
HETATM    5  N   UNL     1      28.721  40.343  51.494  1.00  0.00    -0.165 NA
HETATM    6  C   UNL     1      28.318  41.632  51.598  1.00  0.00     0.148 A 
HETATM    7  C   UNL     1      27.294  41.929  50.661  1.00  0.00     0.089 A 
HETATM    8  C   UNL     1      28.221  38.547  49.911  1.00  0.00     0.221 C 
HETATM    9  C   UNL     1      27.035  38.121  49.024  1.00  0.00     0.066 C 
HETATM   10  H   UNL     1      25.740  41.195  48.465  1.00  0.00     0.161 HD
ENDROOT
BRANCH   6  11
HETATM   11  C   UNL     1      28.910  42.570  52.568  1.00  0.00     0.276 C 
HETATM   12  N   UNL     1      28.005  43.524  52.990  1.00  0.00    -0.322 N 
HETATM   13  H   UNL     1      27.105  43.472  52.518  1.00  0.00     0.169 HD
HETATM   14  O   UNL     1      30.081  42.467  52.917  1.00  0.00    -0.266 OA
BRANCH  12  15
HETATM   15  C   UNL     1      28.186  44.519  53.966  1.00  0.00     0.035 A 
HETATM   16  C   UNL     1      29.225  44.503  54.901  1.00  0.00     0.039 A 
HETATM   17  C   UNL     1      29.347  45.509  55.878  1.00  0.00    -0.028 A 
HETATM   18  C   UNL     1      28.413  46.552  55.885  1.00  0.00     0.010 A 
HETATM   19  C   UNL     1      27.372  46.576  54.957  1.00  0.00     0.003 A 
HETATM   20  C   UNL     1      27.254  45.560  54.009  1.00  0.00     0.029 A 
BRANCH  17  21
HETATM   21  C   UNL     1      30.479  45.432  56.879  1.00  0.00     0.147 C 
HETATM   22  C   UNL     1      30.033  45.860  58.273  1.00  0.00     0.044 C 
BRANCH  21  23
HETATM   23  O   UNL     1      31.004  44.107  56.950  1.00  0.00    -0.391 OA
HETATM   24  H   UNL     1      31.804  44.092  56.399  1.00  0.00     0.210 HD
ENDBRANCH  21  23
ENDBRANCH  17  21
ENDBRANCH  12  15
ENDBRANCH   6  11
BRANCH   8  25
HETATM   25  C   UNL     1      29.565  38.450  49.220  1.00  0.00     0.409 C 
HETATM   26  F   UNL     1      30.579  38.122  50.040  1.00  0.00    -0.169 F 
HETATM   27  F   UNL     1      29.548  37.543  48.215  1.00  0.00    -0.169 F 
HETATM   28  F   UNL     1      29.880  39.639  48.645  1.00  0.00    -0.169 F 
ENDBRANCH   8  25
BRANCH   1  29
HETATM   29  C   UNL     1      27.158  39.474  46.825  1.00  0.00    -0.035 A 
HETATM   30  C   UNL     1      27.608  40.736  46.406  1.00  0.00     0.010 A 
HETATM   31  C   UNL     1      28.234  40.908  45.169  1.00  0.00     0.007 A 
HETATM   32  C   UNL     1      28.413  39.822  44.308  1.00  0.00    -0.062 A 
HETATM   33  C   UNL     1      29.089  39.996  42.981  1.00  0.00     0.048 C 
HETATM   34  C   UNL     1      27.970  38.561  44.712  1.00  0.00     0.007 A 
HETATM   35  C   UNL     1      27.349  38.389  45.954  1.00  0.00     0.010 A 
ENDBRANCH   1  29
TORSDOF 6
ENDMDL
MODEL 2
REMARK VINA RESULT:      -9.1      1.331      2.127
REMARK  6 active torsions:
REMARK  status: ('A' for Active; 'I' for Inactive)
REMARK    1  A    between atoms: C_5  and  C_6 
REMARK    2  A    between atoms: C_11  and  C_12 
REMARK       I    between atoms: C_12  and  N_13 
REMARK    3  A    between atoms: N_13  and  C_14 
REMARK    4  A    between atoms: C_16  and  C_17 
REMARK    5  A    between atoms: C_17  and  O_18 
REMARK    6  A    between atoms: C_25  and  C_26 
ROOT
HETATM    1  C   UNL     1      26.101  38.888  47.595  1.00  0.00     0.118 C 
HETATM    2  N   UNL     1      25.594  40.057  48.308  1.00  0.00    -0.366 N 
HETATM    3  C   UNL     1      26.189  40.519  49.427  1.00  0.00     0.123 A 
HETATM    4  N   UNL     1      27.159  39.810  50.077  1.00  0.00    -0.240 N 
HETATM    5  N   UNL     1      27.591  40.393  51.213  1.00  0.00    -0.165 NA
HETATM    6  C   UNL     1      26.942  41.581  51.222  1.00  0.00     0.148 A 
HETATM    7  C   UNL     1      26.034  41.681  50.134  1.00  0.00     0.089 A 
HETATM    8  C   UNL     1      27.684  38.538  49.622  1.00  0.00     0.221 C 
HETATM    9  C   UNL     1      26.748  37.897  48.579  1.00  0.00     0.066 C 
HETATM   10  H   UNL     1      24.998  40.669  47.751  1.00  0.00     0.161 HD
ENDROOT
BRANCH   6  11
HETATM   11  C   UNL     1      27.193  42.613  52.244  1.00  0.00     0.276 C 
HETATM   12  N   UNL     1      28.350  42.371  52.957  1.00  0.00    -0.322 N 
HETATM   13  H   UNL     1      28.804  41.493  52.715  1.00  0.00     0.169 HD
HETATM   14  O   UNL     1      26.420  43.553  52.400  1.00  0.00    -0.266 OA
BRANCH  12  15
HETATM   15  C   UNL     1      28.947  43.177  53.941  1.00  0.00     0.035 A 
HETATM   16  C   UNL     1      28.468  44.440  54.298  1.00  0.00     0.039 A 
HETATM   17  C   UNL     1      29.119  45.223  55.271  1.00  0.00    -0.028 A 
HETATM   18  C   UNL     1      30.254  44.698  55.901  1.00  0.00     0.010 A 
HETATM   19  C   UNL     1      30.740  43.439  55.552  1.00  0.00     0.003 A 
HETATM   20  C   UNL     1      30.095  42.686  54.570  1.00  0.00     0.029 A 
BRANCH  17  21
HETATM   21  C   UNL     1      28.570  46.593  55.605  1.00  0.00     0.147 C 
HETATM   22  C   UNL     1      27.355  46.939  54.753  1.00  0.00     0.044 C 
BRANCH  21  23
HETATM   23  O   UNL     1      28.203  46.669  56.983  1.00  0.00    -0.391 OA
HETATM   24  H   UNL     1      28.726  47.389  57.373  1.00  0.00     0.210 HD
ENDBRANCH  21  23
ENDBRANCH  17  21
ENDBRANCH  12  15
ENDBRANCH   6  11
BRANCH   8  25
HETATM   25  C   UNL     1      29.111  38.699  49.143  1.00  0.00     0.409 C 
HETATM   26  F   UNL     1      30.033  38.541  50.107  1.00  0.00    -0.169 F 
HETATM   27  F   UNL     1      29.409  37.827  48.151  1.00  0.00    -0.169 F 
HETATM   28  F   UNL     1      29.288  39.938  48.615  1.00  0.00    -0.169 F 
ENDBRANCH   8  25
BRANCH   1  29
HETATM   29  C   UNL     1      26.946  39.253  46.388  1.00  0.00    -0.035 A 
HETATM   30  C   UNL     1      27.522  38.296  45.537  1.00  0.00     0.010 A 
HETATM   31  C   UNL     1      28.314  38.677  44.451  1.00  0.00     0.007 A 
HETATM   32  C   UNL     1      28.567  40.028  44.196  1.00  0.00    -0.062 A 
HETATM   33  C   UNL     1      29.412  40.446  43.030  1.00  0.00     0.048 C 
HETATM   34  C   UNL     1      28.000  40.990  45.035  1.00  0.00     0.007 A 
HETATM   35  C   UNL     1      27.201  40.607  46.117  1.00  0.00     0.010 A 
ENDBRANCH   1  29
TORSDOF 6
ENDMDL
MODEL 3
REMARK VINA RESULT:      -8.7     11.046     13.106
REMARK  6 active torsions:
REMARK  status: ('A' for Active; 'I' for Inactive)
REMARK    1  A    between atoms: C_5  and  C_6 
REMARK    2  A    between atoms: C_11  and  C_12 
REMARK       I    between atoms: C_12  and  N_13 
REMARK    3  A    between atoms: N_13  and  C_14 
REMARK    4  A    between atoms: C_16  and  C_17 
REMARK    5  A    between atoms: C_17  and  O_18 
REMARK    6  A    between atoms: C_25  and  C_26 
ROOT
HETATM    1  C   UNL     1      17.942  52.236  48.883  1.00  0.00     0.118 C 
HETATM    2  N   UNL     1      19.377  52.388  48.661  1.00  0.00    -0.366 N 
HETATM    3  C   UNL     1      20.227  51.348  48.780  1.00  0.00     0.123 A 
HETATM    4  N   UNL     1      19.839  50.152  49.316  1.00  0.00    -0.240 N 
HETATM    5  N   UNL     1      20.837  49.251  49.419  1.00  0.00    -0.165 NA
HETATM    6  C   UNL     1      21.880  49.869  48.816  1.00  0.00     0.148 A 
HETATM    7  C   UNL     1      21.542  51.194  48.430  1.00  0.00     0.089 A 
HETATM    8  C   UNL     1      18.491  49.855  49.759  1.00  0.00     0.221 C 
HETATM    9  C   UNL     1      17.673  51.149  49.939  1.00  0.00     0.066 C 
HETATM   10  H   UNL     1      19.638  53.206  48.112  1.00  0.00     0.161 HD
ENDROOT
BRANCH   6  11
HETATM   11  C   UNL     1      23.176  49.203  48.598  1.00  0.00     0.276 C 
HETATM   12  N   UNL     1      23.435  48.240  49.553  1.00  0.00    -0.322 N 
HETATM   13  H   UNL     1      22.731  48.191  50.287  1.00  0.00     0.169 HD
HETATM   14  O   UNL     1      23.901  49.517  47.660  1.00  0.00    -0.266 OA
BRANCH  12  15
HETATM   15  C   UNL     1      24.522  47.351  49.616  1.00  0.00     0.035 A 
HETATM   16  C   UNL     1      24.401  45.971  49.433  1.00  0.00     0.039 A 
HETATM   17  C   UNL     1      25.517  45.118  49.535  1.00  0.00    -0.028 A 
HETATM   18  C   UNL     1      26.770  45.685  49.801  1.00  0.00     0.010 A 
HETATM   19  C   UNL     1      26.900  47.061  49.985  1.00  0.00     0.003 A 
HETATM   20  C   UNL     1      25.780  47.888  49.902  1.00  0.00     0.029 A 
BRANCH  17  21
HETATM   21  C   UNL     1      25.327  43.628  49.349  1.00  0.00     0.147 C 
HETATM   22  C   UNL     1      24.111  43.316  48.485  1.00  0.00     0.044 C 
BRANCH  21  23
HETATM   23  O   UNL     1      26.482  43.042  48.749  1.00  0.00    -0.391 OA
HETATM   24  H   UNL     1      26.743  43.623  48.015  1.00  0.00     0.210 HD
ENDBRANCH  21  23
ENDBRANCH  17  21
ENDBRANCH  12  15
ENDBRANCH   6  11
BRANCH   8  25
HETATM   25  C   UNL     1      17.844  48.848  48.832  1.00  0.00     0.409 C 
HETATM   26  F   UNL     1      18.047  47.568  49.189  1.00  0.00    -0.169 F 
HETATM   27  F   UNL     1      16.506  49.035  48.744  1.00  0.00    -0.169 F 
HETATM   28  F   UNL     1      18.326  48.997  47.572  1.00  0.00    -0.169 F 
ENDBRANCH   8  25
BRANCH   1  29
HETATM   29  C   UNL     1      17.156  52.099  47.591  1.00  0.00    -0.035 A 
HETATM   30  C   UNL     1      15.756  52.007  47.551  1.00  0.00     0.010 A 
HETATM   31  C   UNL     1      15.075  51.856  46.341  1.00  0.00     0.007 A 
HETATM   32  C   UNL     1      15.778  51.776  45.136  1.00  0.00    -0.062 A 
HETATM   33  C   UNL     1      15.055  51.619  43.832  1.00  0.00     0.048 C 
HETATM   34  C   UNL     1      17.171  51.865  45.162  1.00  0.00     0.007 A 
HETATM   35  C   UNL     1      17.852  52.024  46.374  1.00  0.00     0.010 A 
ENDBRANCH   1  29
TORSDOF 6
ENDMDL
MODEL 4
REMARK VINA RESULT:      -8.7     13.539     15.309
REMARK  6 active torsions:
REMARK  status: ('A' for Active; 'I' for Inactive)
REMARK    1  A    between atoms: C_5  and  C_6 
REMARK    2  A    between atoms: C_11  and  C_12 
REMARK       I    between atoms: C_12  and  N_13 
REMARK    3  A    between atoms: N_13  and  C_14 
REMARK    4  A    between atoms: C_16  and  C_17 
REMARK    5  A    between atoms: C_17  and  O_18 
REMARK    6  A    between atoms: C_25  and  C_26 
ROOT
HETATM    1  C   UNL     1      29.315  51.840  38.326  1.00  0.00     0.118 C 
HETATM    2  N   UNL     1      30.719  51.639  37.979  1.00  0.00    -0.366 N 
HETATM    3  C   UNL     1      31.711  51.904  38.853  1.00  0.00     0.123 A 
HETATM    4  N   UNL     1      31.486  52.569  40.025  1.00  0.00    -0.240 N 
HETATM    5  N   UNL     1      32.603  52.806  40.741  1.00  0.00    -0.165 NA
HETATM    6  C   UNL     1      33.566  52.160  40.042  1.00  0.00     0.148 A 
HETATM    7  C   UNL     1      33.048  51.609  38.839  1.00  0.00     0.089 A 
HETATM    8  C   UNL     1      30.180  53.009  40.476  1.00  0.00     0.221 C 
HETATM    9  C   UNL     1      29.168  53.011  39.314  1.00  0.00     0.066 C 
HETATM   10  H   UNL     1      30.877  51.002  37.198  1.00  0.00     0.161 HD
ENDROOT
BRANCH   6  11
HETATM   11  C   UNL     1      34.957  52.057  40.518  1.00  0.00     0.276 C 
HETATM   12  N   UNL     1      35.029  51.889  41.887  1.00  0.00    -0.322 N 
HETATM   13  H   UNL     1      34.125  51.933  42.352  1.00  0.00     0.169 HD
HETATM   14  O   UNL     1      35.901  52.128  39.738  1.00  0.00    -0.266 OA
BRANCH  12  15
HETATM   15  C   UNL     1      36.172  51.670  42.674  1.00  0.00     0.035 A 
HETATM   16  C   UNL     1      36.611  52.558  43.660  1.00  0.00     0.039 A 
HETATM   17  C   UNL     1      37.780  52.307  44.404  1.00  0.00    -0.028 A 
HETATM   18  C   UNL     1      38.491  51.127  44.155  1.00  0.00     0.010 A 
HETATM   19  C   UNL     1      38.061  50.235  43.173  1.00  0.00     0.003 A 
HETATM   20  C   UNL     1      36.912  50.510  42.431  1.00  0.00     0.029 A 
BRANCH  17  21
HETATM   21  C   UNL     1      38.222  53.312  45.446  1.00  0.00     0.147 C 
HETATM   22  C   UNL     1      37.394  54.590  45.386  1.00  0.00     0.044 C 
BRANCH  21  23
HETATM   23  O   UNL     1      38.122  52.759  46.757  1.00  0.00    -0.391 OA
HETATM   24  H   UNL     1      39.029  52.587  47.059  1.00  0.00     0.210 HD
ENDBRANCH  21  23
ENDBRANCH  17  21
ENDBRANCH  12  15
ENDBRANCH   6  11
BRANCH   8  25
HETATM   25  C   UNL     1      29.735  52.194  41.672  1.00  0.00     0.409 C 
HETATM   26  F   UNL     1      30.187  50.928  41.669  1.00  0.00    -0.169 F 
HETATM   27  F   UNL     1      30.125  52.760  42.838  1.00  0.00    -0.169 F 
HETATM   28  F   UNL     1      28.379  52.137  41.718  1.00  0.00    -0.169 F 
ENDBRANCH   8  25
BRANCH   1  29
HETATM   29  C   UNL     1      28.617  50.554  38.732  1.00  0.00    -0.035 A 
HETATM   30  C   UNL     1      29.282  49.323  38.844  1.00  0.00     0.010 A 
HETATM   31  C   UNL     1      28.594  48.159  39.197  1.00  0.00     0.007 A 
HETATM   32  C   UNL     1      27.217  48.191  39.431  1.00  0.00    -0.062 A 
HETATM   33  C   UNL     1      26.472  46.948  39.815  1.00  0.00     0.048 C 
HETATM   34  C   UNL     1      26.543  49.410  39.322  1.00  0.00     0.007 A 
HETATM   35  C   UNL     1      27.234  50.576  38.976  1.00  0.00     0.010 A 
ENDBRANCH   1  29
TORSDOF 6
ENDMDL
MODEL 5
REMARK VINA RESULT:      -8.6     16.821     19.787
REMARK  6 active torsions:
REMARK  status: ('A' for Active; 'I' for Inactive)
REMARK    1  A    between atoms: C_5  and  C_6 
REMARK    2  A    between atoms: C_11  and  C_12 
REMARK       I    between atoms: C_12  and  N_13 
REMARK    3  A    between atoms: N_13  and  C_14 
REMARK    4  A    between atoms: C_16  and  C_17 
REMARK    5  A    between atoms: C_17  and  O_18 
REMARK    6  A    between atoms: C_25  and  C_26 
ROOT
HETATM    1  C   UNL     1      37.391  43.909  63.087  1.00  0.00     0.118 C 
HETATM    2  N   UNL     1      37.260  42.534  63.559  1.00  0.00    -0.366 N 
HETATM    3  C   UNL     1      38.303  41.865  64.094  1.00  0.00     0.123 A 
HETATM    4  N   UNL     1      39.580  42.346  64.035  1.00  0.00    -0.240 N 
HETATM    5  N   UNL     1      40.501  41.514  64.560  1.00  0.00    -0.165 NA
HETATM    6  C   UNL     1      39.756  40.509  65.077  1.00  0.00     0.148 A 
HETATM    7  C   UNL     1      38.378  40.681  64.778  1.00  0.00     0.089 A 
HETATM    8  C   UNL     1      39.945  43.623  63.452  1.00  0.00     0.221 C 
HETATM    9  C   UNL     1      38.813  44.163  62.556  1.00  0.00     0.066 C 
HETATM   10  H   UNL     1      36.304  42.241  63.758  1.00  0.00     0.161 HD
ENDROOT
BRANCH   6  11
HETATM   11  C   UNL     1      40.347  39.406  65.856  1.00  0.00     0.276 C 
HETATM   12  N   UNL     1      40.290  38.202  65.181  1.00  0.00    -0.322 N 
HETATM   13  H   UNL     1      39.794  38.252  64.295  1.00  0.00     0.169 HD
HETATM   14  O   UNL     1      40.813  39.597  66.974  1.00  0.00    -0.266 OA
BRANCH  12  15
HETATM   15  C   UNL     1      40.828  36.964  65.572  1.00  0.00     0.035 A 
HETATM   16  C   UNL     1      40.048  35.882  65.990  1.00  0.00     0.039 A 
HETATM   17  C   UNL     1      40.636  34.670  66.399  1.00  0.00    -0.028 A 
HETATM   18  C   UNL     1      42.031  34.555  66.357  1.00  0.00     0.010 A 
HETATM   19  C   UNL     1      42.818  35.629  65.942  1.00  0.00     0.003 A 
HETATM   20  C   UNL     1      42.219  36.830  65.560  1.00  0.00     0.029 A 
BRANCH  17  21
HETATM   21  C   UNL     1      39.745  33.537  66.862  1.00  0.00     0.147 C 
HETATM   22  C   UNL     1      38.406  34.045  67.382  1.00  0.00     0.044 C 
BRANCH  21  23
HETATM   23  O   UNL     1      39.507  32.614  65.800  1.00  0.00    -0.391 OA
HETATM   24  H   UNL     1      40.326  32.104  65.682  1.00  0.00     0.210 HD
ENDBRANCH  21  23
ENDBRANCH  17  21
ENDBRANCH  12  15
ENDBRANCH   6  11
BRANCH   8  25
HETATM   25  C   UNL     1      40.381  44.589  64.533  1.00  0.00     0.409 C 
HETATM   26  F   UNL     1      39.685  44.479  65.677  1.00  0.00    -0.169 F 
HETATM   27  F   UNL     1      41.691  44.439  64.840  1.00  0.00    -0.169 F 
HETATM   28  F   UNL     1      40.243  45.868  64.098  1.00  0.00    -0.169 F 
ENDBRANCH   8  25
BRANCH   1  29
HETATM   29  C   UNL     1      36.878  44.928  64.090  1.00  0.00    -0.035 A 
HETATM   30  C   UNL     1      36.992  46.314  63.900  1.00  0.00     0.010 A 
HETATM   31  C   UNL     1      36.528  47.216  64.861  1.00  0.00     0.007 A 
HETATM   32  C   UNL     1      35.953  46.755  66.048  1.00  0.00    -0.062 A 
HETATM   33  C   UNL     1      35.448  47.716  67.082  1.00  0.00     0.048 C 
HETATM   34  C   UNL     1      35.834  45.378  66.249  1.00  0.00     0.007 A 
HETATM   35  C   UNL     1      36.291  44.476  65.283  1.00  0.00     0.010 A 
ENDBRANCH   1  29
TORSDOF 6
ENDMDL
MODEL 6
REMARK VINA RESULT:      -8.4     13.133     15.684
REMARK  6 active torsions:
REMARK  status: ('A' for Active; 'I' for Inactive)
REMARK    1  A    between atoms: C_5  and  C_6 
REMARK    2  A    between atoms: C_11  and  C_12 
REMARK       I    between atoms: C_12  and  N_13 
REMARK    3  A    between atoms: N_13  and  C_14 
REMARK    4  A    between atoms: C_16  and  C_17 
REMARK    5  A    between atoms: C_17  and  O_18 
REMARK    6  A    between atoms: C_25  and  C_26 
ROOT
HETATM    1  C   UNL     1      31.245  51.480  39.233  1.00  0.00     0.118 C 
HETATM    2  N   UNL     1      29.865  51.825  38.906  1.00  0.00    -0.366 N 
HETATM    3  C   UNL     1      28.920  50.879  38.724  1.00  0.00     0.123 A 
HETATM    4  N   UNL     1      29.233  49.553  38.623  1.00  0.00    -0.240 N 
HETATM    5  N   UNL     1      28.172  48.760  38.375  1.00  0.00    -0.165 NA
HETATM    6  C   UNL     1      27.123  49.613  38.433  1.00  0.00     0.148 A 
HETATM    7  C   UNL     1      27.557  50.952  38.621  1.00  0.00     0.089 A 
HETATM    8  C   UNL     1      30.575  49.019  38.749  1.00  0.00     0.221 C 
HETATM    9  C   UNL     1      31.628  50.133  38.593  1.00  0.00     0.066 C 
HETATM   10  H   UNL     1      29.597  52.780  39.144  1.00  0.00     0.161 HD
ENDROOT
BRANCH   6  11
HETATM   11  C   UNL     1      25.725  49.159  38.325  1.00  0.00     0.276 C 
HETATM   12  N   UNL     1      25.073  49.180  39.542  1.00  0.00    -0.322 N 
HETATM   13  H   UNL     1      25.673  49.436  40.323  1.00  0.00     0.169 HD
HETATM   14  O   UNL     1      25.254  48.807  37.248  1.00  0.00    -0.266 OA
BRANCH  12  15
HETATM   15  C   UNL     1      23.722  48.900  39.807  1.00  0.00     0.035 A 
HETATM   16  C   UNL     1      22.684  49.803  39.560  1.00  0.00     0.039 A 
HETATM   17  C   UNL     1      21.348  49.486  39.870  1.00  0.00    -0.028 A 
HETATM   18  C   UNL     1      21.068  48.226  40.414  1.00  0.00     0.010 A 
HETATM   19  C   UNL     1      22.097  47.318  40.664  1.00  0.00     0.003 A 
HETATM   20  C   UNL     1      23.418  47.658  40.371  1.00  0.00     0.029 A 
BRANCH  17  21
HETATM   21  C   UNL     1      20.265  50.509  39.602  1.00  0.00     0.147 C 
HETATM   22  C   UNL     1      20.150  51.522  40.734  1.00  0.00     0.044 C 
BRANCH  21  23
HETATM   23  O   UNL     1      20.519  51.207  38.383  1.00  0.00    -0.391 OA
HETATM   24  H   UNL     1      19.655  51.382  37.974  1.00  0.00     0.210 HD
ENDBRANCH  21  23
ENDBRANCH  17  21
ENDBRANCH  12  15
ENDBRANCH   6  11
BRANCH   8  25
HETATM   25  C   UNL     1      30.708  48.229  40.034  1.00  0.00     0.409 C 
HETATM   26  F   UNL     1      30.063  48.775  41.080  1.00  0.00    -0.169 F 
HETATM   27  F   UNL     1      30.252  46.962  39.894  1.00  0.00    -0.169 F 
HETATM   28  F   UNL     1      32.017  48.120  40.381  1.00  0.00    -0.169 F 
ENDBRANCH   8  25
BRANCH   1  29
HETATM   29  C   UNL     1      31.551  51.607  40.715  1.00  0.00    -0.035 A 
HETATM   30  C   UNL     1      30.682  52.228  41.627  1.00  0.00     0.010 A 
HETATM   31  C   UNL     1      31.016  52.345  42.979  1.00  0.00     0.007 A 
HETATM   32  C   UNL     1      32.236  51.858  43.453  1.00  0.00    -0.062 A 
HETATM   33  C   UNL     1      32.600  51.974  44.903  1.00  0.00     0.048 C 
HETATM   34  C   UNL     1      33.110  51.238  42.556  1.00  0.00     0.007 A 
HETATM   35  C   UNL     1      32.771  51.115  41.205  1.00  0.00     0.010 A 
ENDBRANCH   1  29
TORSDOF 6
ENDMDL
MODEL 7
REMARK VINA RESULT:      -8.3      3.552      9.833
REMARK  6 active torsions:
REMARK  status: ('A' for Active; 'I' for Inactive)
REMARK    1  A    between atoms: C_5  and  C_6 
REMARK    2  A    between atoms: C_11  and  C_12 
REMARK       I    between atoms: C_12  and  N_13 
REMARK    3  A    between atoms: N_13  and  C_14 
REMARK    4  A    between atoms: C_16  and  C_17 
REMARK    5  A    between atoms: C_17  and  O_18 
REMARK    6  A    between atoms: C_25  and  C_26 
ROOT
HETATM    1  C   UNL     1      26.553  42.353  52.988  1.00  0.00     0.118 C 
HETATM    2  N   UNL     1      26.939  41.202  52.177  1.00  0.00    -0.366 N 
HETATM    3  C   UNL     1      27.139  41.306  50.847  1.00  0.00     0.123 A 
HETATM    4  N   UNL     1      26.792  42.427  50.148  1.00  0.00    -0.240 N 
HETATM    5  N   UNL     1      27.003  42.327  48.820  1.00  0.00    -0.165 NA
HETATM    6  C   UNL     1      27.616  41.127  48.689  1.00  0.00     0.148 A 
HETATM    7  C   UNL     1      27.692  40.448  49.934  1.00  0.00     0.089 A 
HETATM    8  C   UNL     1      26.232  43.622  50.746  1.00  0.00     0.221 C 
HETATM    9  C   UNL     1      25.697  43.330  52.162  1.00  0.00     0.066 C 
HETATM   10  H   UNL     1      27.353  40.432  52.702  1.00  0.00     0.161 HD
ENDROOT
BRANCH   6  11
HETATM   11  C   UNL     1      28.135  40.640  47.398  1.00  0.00     0.276 C 
HETATM   12  N   UNL     1      27.816  39.315  47.174  1.00  0.00    -0.322 N 
HETATM   13  H   UNL     1      27.340  38.871  47.957  1.00  0.00     0.169 HD
HETATM   14  O   UNL     1      28.776  41.375  46.654  1.00  0.00    -0.266 OA
BRANCH  12  15
HETATM   15  C   UNL     1      28.066  38.546  46.026  1.00  0.00     0.035 A 
HETATM   16  C   UNL     1      28.995  37.503  45.983  1.00  0.00     0.039 A 
HETATM   17  C   UNL     1      29.230  36.780  44.798  1.00  0.00    -0.028 A 
HETATM   18  C   UNL     1      28.491  37.109  43.655  1.00  0.00     0.010 A 
HETATM   19  C   UNL     1      27.562  38.149  43.687  1.00  0.00     0.003 A 
HETATM   20  C   UNL     1      27.358  38.869  44.865  1.00  0.00     0.029 A 
BRANCH  17  21
HETATM   21  C   UNL     1      30.263  35.673  44.801  1.00  0.00     0.147 C 
HETATM   22  C   UNL     1      29.618  34.297  44.692  1.00  0.00     0.044 C 
BRANCH  21  23
HETATM   23  O   UNL     1      31.184  35.837  43.724  1.00  0.00    -0.391 OA
HETATM   24  H   UNL     1      31.564  34.961  43.543  1.00  0.00     0.210 HD
ENDBRANCH  21  23
ENDBRANCH  17  21
ENDBRANCH  12  15
ENDBRANCH   6  11
BRANCH   8  25
HETATM   25  C   UNL     1      27.234  44.756  50.695  1.00  0.00     0.409 C 
HETATM   26  F   UNL     1      27.325  45.352  49.494  1.00  0.00    -0.169 F 
HETATM   27  F   UNL     1      26.950  45.718  51.604  1.00  0.00    -0.169 F 
HETATM   28  F   UNL     1      28.473  44.297  51.012  1.00  0.00    -0.169 F 
ENDBRANCH   8  25
BRANCH   1  29
HETATM   29  C   UNL     1      27.725  42.977  53.724  1.00  0.00    -0.035 A 
HETATM   30  C   UNL     1      28.992  42.376  53.798  1.00  0.00     0.010 A 
HETATM   31  C   UNL     1      30.036  42.974  54.508  1.00  0.00     0.007 A 
HETATM   32  C   UNL     1      29.836  44.184  55.179  1.00  0.00    -0.062 A 
HETATM   33  C   UNL     1      30.952  44.835  55.939  1.00  0.00     0.048 C 
HETATM   34  C   UNL     1      28.580  44.792  55.114  1.00  0.00     0.007 A 
HETATM   35  C   UNL     1      27.538  44.196  54.396  1.00  0.00     0.010 A 
ENDBRANCH   1  29
TORSDOF 6
ENDMDL
MODEL 8
REMARK VINA RESULT:      -8.3     10.072     12.136
REMARK  6 active torsions:
REMARK  status: ('A' for Active; 'I' for Inactive)
REMARK    1  A    between atoms: C_5  and  C_6 
REMARK    2  A    between atoms: C_11  and  C_12 
REMARK       I    between atoms: C_12  and  N_13 
REMARK    3  A    between atoms: N_13  and  C_14 
REMARK    4  A    between atoms: C_16  and  C_17 
REMARK    5  A    between atoms: C_17  and  O_18 
REMARK    6  A    between atoms: C_25  and  C_26 
ROOT
HETATM    1  C   UNL     1      19.119  51.556  47.695  1.00  0.00     0.118 C 
HETATM    2  N   UNL     1      20.443  51.136  47.247  1.00  0.00    -0.366 N 
HETATM    3  C   UNL     1      21.303  50.503  48.072  1.00  0.00     0.123 A 
HETATM    4  N   UNL     1      21.079  50.406  49.416  1.00  0.00    -0.240 N 
HETATM    5  N   UNL     1      22.076  49.801  50.092  1.00  0.00    -0.165 NA
HETATM    6  C   UNL     1      22.918  49.396  49.113  1.00  0.00     0.148 A 
HETATM    7  C   UNL     1      22.480  49.844  47.838  1.00  0.00     0.089 A 
HETATM    8  C   UNL     1      19.898  50.913  50.086  1.00  0.00     0.221 C 
HETATM    9  C   UNL     1      19.146  51.917  49.191  1.00  0.00     0.066 C 
HETATM   10  H   UNL     1      20.544  51.052  46.236  1.00  0.00     0.161 HD
ENDROOT
BRANCH   6  11
HETATM   11  C   UNL     1      24.117  48.583  49.385  1.00  0.00     0.276 C 
HETATM   12  N   UNL     1      23.874  47.589  50.313  1.00  0.00    -0.322 N 
HETATM   13  H   UNL     1      22.937  47.620  50.709  1.00  0.00     0.169 HD
HETATM   14  O   UNL     1      25.182  48.815  48.824  1.00  0.00    -0.266 OA
BRANCH  12  15
HETATM   15  C   UNL     1      24.747  46.578  50.749  1.00  0.00     0.035 A 
HETATM   16  C   UNL     1      24.917  45.364  50.078  1.00  0.00     0.039 A 
HETATM   17  C   UNL     1      25.783  44.370  50.573  1.00  0.00    -0.028 A 
HETATM   18  C   UNL     1      26.499  44.630  51.748  1.00  0.00     0.010 A 
HETATM   19  C   UNL     1      26.335  45.838  52.425  1.00  0.00     0.003 A 
HETATM   20  C   UNL     1      25.456  46.803  51.932  1.00  0.00     0.029 A 
BRANCH  17  21
HETATM   21  C   UNL     1      25.916  43.065  49.818  1.00  0.00     0.147 C 
HETATM   22  C   UNL     1      24.613  42.673  49.131  1.00  0.00     0.044 C 
BRANCH  21  23
HETATM   23  O   UNL     1      26.947  43.150  48.835  1.00  0.00    -0.391 OA
HETATM   24  H   UNL     1      27.724  43.532  49.276  1.00  0.00     0.210 HD
ENDBRANCH  21  23
ENDBRANCH  17  21
ENDBRANCH  12  15
ENDBRANCH   6  11
BRANCH   8  25
HETATM   25  C   UNL     1      19.037  49.767  50.573  1.00  0.00     0.409 C 
HETATM   26  F   UNL     1      19.163  48.642  49.848  1.00  0.00    -0.169 F 
HETATM   27  F   UNL     1      19.308  49.449  51.861  1.00  0.00    -0.169 F 
HETATM   28  F   UNL     1      17.727  50.122  50.543  1.00  0.00    -0.169 F 
ENDBRANCH   8  25
BRANCH   1  29
HETATM   29  C   UNL     1      18.021  50.593  47.277  1.00  0.00    -0.035 A 
HETATM   30  C   UNL     1      18.271  49.401  46.580  1.00  0.00     0.010 A 
HETATM   31  C   UNL     1      17.227  48.556  46.193  1.00  0.00     0.007 A 
HETATM   32  C   UNL     1      15.901  48.890  46.480  1.00  0.00    -0.062 A 
HETATM   33  C   UNL     1      14.775  47.987  46.074  1.00  0.00     0.048 C 
HETATM   34  C   UNL     1      15.638  50.074  47.173  1.00  0.00     0.007 A 
HETATM   35  C   UNL     1      16.685  50.915  47.566  1.00  0.00     0.010 A 
ENDBRANCH   1  29
TORSDOF 6
ENDMDL
MODEL 9
REMARK VINA RESULT:      -8.2      3.583      9.872
REMARK  6 active torsions:
REMARK  status: ('A' for Active; 'I' for Inactive)
REMARK    1  A    between atoms: C_5  and  C_6 
REMARK    2  A    between atoms: C_11  and  C_12 
REMARK       I    between atoms: C_12  and  N_13 
REMARK    3  A    between atoms: N_13  and  C_14 
REMARK    4  A    between atoms: C_16  and  C_17 
REMARK    5  A    between atoms: C_17  and  O_18 
REMARK    6  A    between atoms: C_25  and  C_26 
ROOT
HETATM    1  C   UNL     1      26.511  42.425  53.072  1.00  0.00     0.118 C 
HETATM    2  N   UNL     1      26.887  41.254  52.285  1.00  0.00    -0.366 N 
HETATM    3  C   UNL     1      27.123  41.336  50.959  1.00  0.00     0.123 A 
HETATM    4  N   UNL     1      26.822  42.456  50.238  1.00  0.00    -0.240 N 
HETATM    5  N   UNL     1      27.062  42.335  48.917  1.00  0.00    -0.165 NA
HETATM    6  C   UNL     1      27.648  41.118  48.816  1.00  0.00     0.148 A 
HETATM    7  C   UNL     1      27.676  40.453  50.070  1.00  0.00     0.089 A 
HETATM    8  C   UNL     1      26.277  43.673  50.808  1.00  0.00     0.221 C 
HETATM    9  C   UNL     1      25.700  43.412  52.213  1.00  0.00     0.066 C 
HETATM   10  H   UNL     1      27.269  40.481  52.829  1.00  0.00     0.161 HD
ENDROOT
BRANCH   6  11
HETATM   11  C   UNL     1      28.186  40.602  47.545  1.00  0.00     0.276 C 
HETATM   12  N   UNL     1      27.944  39.251  47.386  1.00  0.00    -0.322 N 
HETATM   13  H   UNL     1      27.501  38.817  48.192  1.00  0.00     0.169 HD
HETATM   14  O   UNL     1      28.777  41.337  46.761  1.00  0.00    -0.266 OA
BRANCH  12  15
HETATM   15  C   UNL     1      28.231  38.444  46.272  1.00  0.00     0.035 A 
HETATM   16  C   UNL     1      27.841  38.763  44.968  1.00  0.00     0.039 A 
HETATM   17  C   UNL     1      28.128  37.905  43.888  1.00  0.00    -0.028 A 
HETATM   18  C   UNL     1      28.840  36.727  44.140  1.00  0.00     0.010 A 
HETATM   19  C   UNL     1      29.233  36.400  45.438  1.00  0.00     0.003 A 
HETATM   20  C   UNL     1      28.922  37.251  46.499  1.00  0.00     0.029 A 
BRANCH  17  21
HETATM   21  C   UNL     1      27.664  38.288  42.499  1.00  0.00     0.147 C 
HETATM   22  C   UNL     1      27.909  39.764  42.208  1.00  0.00     0.044 C 
BRANCH  21  23
HETATM   23  O   UNL     1      28.332  37.506  41.509  1.00  0.00    -0.391 OA
HETATM   24  H   UNL     1      27.766  37.509  40.720  1.00  0.00     0.210 HD
ENDBRANCH  21  23
ENDBRANCH  17  21
ENDBRANCH  12  15
ENDBRANCH   6  11
BRANCH   8  25
HETATM   25  C   UNL     1      27.308  44.780  50.767  1.00  0.00     0.409 C 
HETATM   26  F   UNL     1      28.549  44.383  51.097  1.00  0.00    -0.169 F 
HETATM   27  F   UNL     1      27.379  45.355  49.544  1.00  0.00    -0.169 F 
HETATM   28  F   UNL     1      26.960  45.773  51.627  1.00  0.00    -0.169 F 
ENDBRANCH   8  25
BRANCH   1  29
HETATM   29  C   UNL     1      27.680  43.029  53.829  1.00  0.00    -0.035 A 
HETATM   30  C   UNL     1      27.620  44.280  54.462  1.00  0.00     0.010 A 
HETATM   31  C   UNL     1      28.729  44.809  55.127  1.00  0.00     0.007 A 
HETATM   32  C   UNL     1      29.936  44.106  55.164  1.00  0.00    -0.062 A 
HETATM   33  C   UNL     1      31.130  44.663  55.880  1.00  0.00     0.048 C 
HETATM   34  C   UNL     1      30.009  42.859  54.538  1.00  0.00     0.007 A 
HETATM   35  C   UNL     1      28.896  42.328  53.879  1.00  0.00     0.010 A 
ENDBRANCH   1  29
TORSDOF 6
ENDMDL
MODEL 10
REMARK VINA RESULT:      -8.2      3.564      9.933
REMARK  6 active torsions:
REMARK  status: ('A' for Active; 'I' for Inactive)
REMARK    1  A    between atoms: C_5  and  C_6 
REMARK    2  A    between atoms: C_11  and  C_12 
REMARK       I    between atoms: C_12  and  N_13 
REMARK    3  A    between atoms: N_13  and  C_14 
REMARK    4  A    between atoms: C_16  and  C_17 
REMARK    5  A    between atoms: C_17  and  O_18 
REMARK    6  A    between atoms: C_25  and  C_26 
ROOT
HETATM    1  C   UNL     1      25.010  44.221  52.430  1.00  0.00     0.118 C 
HETATM    2  N   UNL     1      25.261  42.836  52.041  1.00  0.00    -0.366 N 
HETATM    3  C   UNL     1      25.882  42.526  50.884  1.00  0.00     0.123 A 
HETATM    4  N   UNL     1      26.120  43.460  49.916  1.00  0.00    -0.240 N 
HETATM    5  N   UNL     1      26.687  42.958  48.801  1.00  0.00    -0.165 NA
HETATM    6  C   UNL     1      26.921  41.664  49.124  1.00  0.00     0.148 A 
HETATM    7  C   UNL     1      26.403  41.352  50.409  1.00  0.00     0.089 A 
HETATM    8  C   UNL     1      25.789  44.866  50.039  1.00  0.00     0.221 C 
HETATM    9  C   UNL     1      24.784  45.097  51.185  1.00  0.00     0.066 C 
HETATM   10  H   UNL     1      25.244  42.168  52.810  1.00  0.00     0.161 HD
ENDROOT
BRANCH   6  11
HETATM   11  C   UNL     1      27.639  40.741  48.227  1.00  0.00     0.276 C 
HETATM   12  N   UNL     1      27.104  40.728  46.955  1.00  0.00    -0.322 N 
HETATM   13  H   UNL     1      26.266  41.297  46.857  1.00  0.00     0.169 HD
HETATM   14  O   UNL     1      28.593  40.082  48.627  1.00  0.00    -0.266 OA
BRANCH  12  15
HETATM   15  C   UNL     1      27.575  40.042  45.822  1.00  0.00     0.035 A 
HETATM   16  C   UNL     1      28.478  40.592  44.908  1.00  0.00     0.039 A 
HETATM   17  C   UNL     1      28.899  39.874  43.772  1.00  0.00    -0.028 A 
HETATM   18  C   UNL     1      28.412  38.575  43.584  1.00  0.00     0.010 A 
HETATM   19  C   UNL     1      27.510  38.018  44.490  1.00  0.00     0.003 A 
HETATM   20  C   UNL     1      27.088  38.752  45.599  1.00  0.00     0.029 A 
BRANCH  17  21
HETATM   21  C   UNL     1      29.862  40.525  42.803  1.00  0.00     0.147 C 
HETATM   22  C   UNL     1      30.767  39.500  42.130  1.00  0.00     0.044 C 
BRANCH  21  23
HETATM   23  O   UNL     1      29.156  41.248  41.795  1.00  0.00    -0.391 OA
HETATM   24  H   UNL     1      28.680  40.591  41.260  1.00  0.00     0.210 HD
ENDBRANCH  21  23
ENDBRANCH  17  21
ENDBRANCH  12  15
ENDBRANCH   6  11
BRANCH   8  25
HETATM   25  C   UNL     1      27.050  45.695  50.159  1.00  0.00     0.409 C 
HETATM   26  F   UNL     1      27.545  46.112  48.980  1.00  0.00    -0.169 F 
HETATM   27  F   UNL     1      26.859  46.793  50.928  1.00  0.00    -0.169 F 
HETATM   28  F   UNL     1      28.025  44.974  50.772  1.00  0.00    -0.169 F 
ENDBRANCH   8  25
BRANCH   1  29
HETATM   29  C   UNL     1      26.030  44.750  53.422  1.00  0.00    -0.035 A 
HETATM   30  C   UNL     1      27.111  43.987  53.892  1.00  0.00     0.010 A 
HETATM   31  C   UNL     1      28.012  44.507  54.824  1.00  0.00     0.007 A 
HETATM   32  C   UNL     1      27.847  45.800  55.326  1.00  0.00    -0.062 A 
HETATM   33  C   UNL     1      28.813  46.368  56.323  1.00  0.00     0.048 C 
HETATM   34  C   UNL     1      26.776  46.570  54.867  1.00  0.00     0.007 A 
HETATM   35  C   UNL     1      25.879  46.051  53.928  1.00  0.00     0.010 A 
ENDBRANCH   1  29
TORSDOF 6
ENDMDL
