MODEL 1
REMARK VINA RESULT:      -9.3      0.000      0.000
REMARK  2 active torsions:
REMARK  status: ('A' for Active; 'I' for Inactive)
REMARK    1  A    between atoms: C_4  and  C_5 
REMARK    2  A    between atoms: C_11  and  C_12 
ROOT
HETATM    1  C   UNL     1      28.166  43.079  52.768  1.00  0.00     0.098 A 
HETATM    2  N   UNL     1      29.189  42.261  52.442  1.00  0.00    -0.172 NA
HETATM    3  N   UNL     1      28.726  41.511  51.432  1.00  0.00    -0.261 N 
HETATM    4  H   UNL     1      29.345  40.821  51.021  1.00  0.00     0.191 HD
HETATM    5  C   UNL     1      27.450  41.818  51.091  1.00  0.00     0.133 A 
HETATM    6  C   UNL     1      27.037  42.815  51.937  1.00  0.00     0.028 A 
HETATM    7  C   UNL     1      25.681  43.412  51.806  1.00  0.00     0.067 C 
HETATM    8  C   UNL     1      24.758  42.534  50.941  1.00  0.00     0.117 C 
HETATM    9  C   UNL     1      25.441  41.722  49.843  1.00  0.00     0.224 C 
HETATM   10  O   UNL     1      24.832  41.358  48.837  1.00  0.00    -0.273 OA
HETATM   11  N   UNL     1      26.727  41.287  50.060  1.00  0.00    -0.312 N 
HETATM   12  H   UNL     1      27.128  40.660  49.373  1.00  0.00     0.170 HD
ENDROOT
BRANCH   7  13
HETATM   13  C   UNL     1      25.831  44.824  51.255  1.00  0.00    -0.046 A 
HETATM   14  C   UNL     1      26.873  45.068  50.338  1.00  0.00     0.047 A 
HETATM   15  C   UNL     1      27.048  46.350  49.860  1.00  0.00     0.105 A 
HETATM   16  C   UNL     1      26.236  47.386  50.251  1.00  0.00     0.105 A 
HETATM   17  O   UNL     1      28.009  46.745  48.983  1.00  0.00    -0.323 OA
HETATM   18  O   UNL     1      26.579  48.564  49.665  1.00  0.00    -0.323 OA
HETATM   19  C   UNL     1      25.210  47.198  51.148  1.00  0.00     0.040 A 
HETATM   20  C   UNL     1      27.710  48.151  48.870  1.00  0.00     0.352 A 
HETATM   21  C   UNL     1      25.016  45.910  51.663  1.00  0.00     0.011 A 
ENDBRANCH   7  13
BRANCH   1  22
HETATM   22  C   UNL     1      28.335  44.098  53.803  1.00  0.00    -0.005 A 
HETATM   23  C   UNL     1      29.445  44.037  54.661  1.00  0.00     0.014 A 
HETATM   24  C   UNL     1      29.645  45.009  55.643  1.00  0.00     0.001 A 
HETATM   25  C   UNL     1      28.733  46.053  55.782  1.00  0.00     0.000 A 
HETATM   26  C   UNL     1      27.619  46.118  54.947  1.00  0.00     0.001 A 
HETATM   27  C   UNL     1      27.417  45.142  53.966  1.00  0.00     0.014 A 
ENDBRANCH   1  22
TORSDOF 2
ENDMDL
MODEL 2
REMARK VINA RESULT:      -9.2      1.519      2.170
REMARK  2 active torsions:
REMARK  status: ('A' for Active; 'I' for Inactive)
REMARK    1  A    between atoms: C_4  and  C_5 
REMARK    2  A    between atoms: C_11  and  C_12 
ROOT
HETATM    1  C   UNL     1      26.593  44.141  53.000  1.00  0.00     0.098 A 
HETATM    2  N   UNL     1      27.329  43.016  53.119  1.00  0.00    -0.172 NA
HETATM    3  N   UNL     1      26.842  42.182  52.188  1.00  0.00    -0.261 N 
HETATM    4  H   UNL     1      27.263  41.264  52.096  1.00  0.00     0.191 HD
HETATM    5  C   UNL     1      25.828  42.728  51.473  1.00  0.00     0.133 A 
HETATM    6  C   UNL     1      25.618  43.988  51.970  1.00  0.00     0.028 A 
HETATM    7  C   UNL     1      24.587  44.880  51.374  1.00  0.00     0.067 C 
HETATM    8  C   UNL     1      23.606  44.094  50.485  1.00  0.00     0.117 C 
HETATM    9  C   UNL     1      24.175  42.863  49.784  1.00  0.00     0.224 C 
HETATM   10  O   UNL     1      23.681  42.428  48.744  1.00  0.00    -0.273 OA
HETATM   11  N   UNL     1      25.178  42.163  50.412  1.00  0.00    -0.312 N 
HETATM   12  H   UNL     1      25.470  41.290  49.989  1.00  0.00     0.170 HD
ENDROOT
BRANCH   7  13
HETATM   13  C   UNL     1      25.298  45.995  50.619  1.00  0.00    -0.046 A 
HETATM   14  C   UNL     1      24.564  47.159  50.314  1.00  0.00     0.047 A 
HETATM   15  C   UNL     1      25.181  48.163  49.597  1.00  0.00     0.105 A 
HETATM   16  C   UNL     1      26.484  48.057  49.178  1.00  0.00     0.105 A 
HETATM   17  O   UNL     1      24.606  49.335  49.217  1.00  0.00    -0.323 OA
HETATM   18  O   UNL     1      26.898  49.152  48.486  1.00  0.00    -0.323 OA
HETATM   19  C   UNL     1      27.239  46.938  49.446  1.00  0.00     0.040 A 
HETATM   20  C   UNL     1      25.698  49.953  48.508  1.00  0.00     0.352 A 
HETATM   21  C   UNL     1      26.635  45.895  50.160  1.00  0.00     0.011 A 
ENDBRANCH   7  13
BRANCH   1  22
HETATM   22  C   UNL     1      26.892  45.311  53.825  1.00  0.00    -0.005 A 
HETATM   23  C   UNL     1      28.124  45.391  54.493  1.00  0.00     0.014 A 
HETATM   24  C   UNL     1      28.447  46.506  55.269  1.00  0.00     0.001 A 
HETATM   25  C   UNL     1      27.538  47.554  55.389  1.00  0.00     0.000 A 
HETATM   26  C   UNL     1      26.304  47.482  54.743  1.00  0.00     0.001 A 
HETATM   27  C   UNL     1      25.980  46.363  53.970  1.00  0.00     0.014 A 
ENDBRANCH   1  22
TORSDOF 2
ENDMDL
MODEL 3
REMARK VINA RESULT:      -9.2      2.473      3.581
REMARK  2 active torsions:
REMARK  status: ('A' for Active; 'I' for Inactive)
REMARK    1  A    between atoms: C_4  and  C_5 
REMARK    2  A    between atoms: C_11  and  C_12 
ROOT
HETATM    1  C   UNL     1      26.902  42.142  50.079  1.00  0.00     0.098 A 
HETATM    2  N   UNL     1      27.423  41.870  48.864  1.00  0.00    -0.172 NA
HETATM    3  N   UNL     1      26.402  42.022  48.006  1.00  0.00    -0.261 N 
HETATM    4  H   UNL     1      26.577  41.871  47.019  1.00  0.00     0.191 HD
HETATM    5  C   UNL     1      25.250  42.386  48.621  1.00  0.00     0.133 A 
HETATM    6  C   UNL     1      25.516  42.462  49.963  1.00  0.00     0.028 A 
HETATM    7  C   UNL     1      24.461  42.878  50.927  1.00  0.00     0.067 C 
HETATM    8  C   UNL     1      23.059  42.804  50.296  1.00  0.00     0.117 C 
HETATM    9  C   UNL     1      22.986  43.056  48.792  1.00  0.00     0.224 C 
HETATM   10  O   UNL     1      21.956  43.467  48.257  1.00  0.00    -0.273 OA
HETATM   11  N   UNL     1      24.061  42.688  48.018  1.00  0.00    -0.312 N 
HETATM   12  H   UNL     1      23.957  42.761  47.013  1.00  0.00     0.170 HD
ENDROOT
BRANCH   7  13
HETATM   13  C   UNL     1      24.802  44.271  51.436  1.00  0.00    -0.046 A 
HETATM   14  C   UNL     1      25.264  44.396  52.762  1.00  0.00     0.047 A 
HETATM   15  C   UNL     1      25.539  45.656  53.252  1.00  0.00     0.105 A 
HETATM   16  C   UNL     1      25.379  46.783  52.484  1.00  0.00     0.105 A 
HETATM   17  O   UNL     1      25.979  45.940  54.507  1.00  0.00    -0.323 OA
HETATM   18  O   UNL     1      25.703  47.919  53.156  1.00  0.00    -0.323 OA
HETATM   19  C   UNL     1      24.925  46.712  51.187  1.00  0.00     0.040 A 
HETATM   20  C   UNL     1      26.073  47.377  54.441  1.00  0.00     0.352 A 
HETATM   21  C   UNL     1      24.623  45.448  50.666  1.00  0.00     0.011 A 
ENDBRANCH   7  13
BRANCH   1  22
HETATM   22  C   UNL     1      27.756  42.141  51.266  1.00  0.00    -0.005 A 
HETATM   23  C   UNL     1      28.500  43.288  51.585  1.00  0.00     0.014 A 
HETATM   24  C   UNL     1      29.305  43.324  52.725  1.00  0.00     0.001 A 
HETATM   25  C   UNL     1      29.379  42.211  53.558  1.00  0.00     0.000 A 
HETATM   26  C   UNL     1      28.657  41.060  53.246  1.00  0.00     0.001 A 
HETATM   27  C   UNL     1      27.854  41.023  52.102  1.00  0.00     0.014 A 
ENDBRANCH   1  22
TORSDOF 2
ENDMDL
MODEL 4
REMARK VINA RESULT:      -9.1      1.188      1.692
REMARK  2 active torsions:
REMARK  status: ('A' for Active; 'I' for Inactive)
REMARK    1  A    between atoms: C_4  and  C_5 
REMARK    2  A    between atoms: C_11  and  C_12 
ROOT
HETATM    1  C   UNL     1      27.455  42.010  51.327  1.00  0.00     0.098 A 
HETATM    2  N   UNL     1      28.150  41.155  50.547  1.00  0.00    -0.172 NA
HETATM    3  N   UNL     1      27.315  40.842  49.545  1.00  0.00    -0.261 N 
HETATM    4  H   UNL     1      27.642  40.206  48.826  1.00  0.00     0.191 HD
HETATM    5  C   UNL     1      26.115  41.466  49.646  1.00  0.00     0.133 A 
HETATM    6  C   UNL     1      26.150  42.221  50.790  1.00  0.00     0.028 A 
HETATM    7  C   UNL     1      24.991  43.069  51.179  1.00  0.00     0.067 C 
HETATM    8  C   UNL     1      23.720  42.677  50.403  1.00  0.00     0.117 C 
HETATM    9  C   UNL     1      23.935  42.122  48.998  1.00  0.00     0.224 C 
HETATM   10  O   UNL     1      23.061  42.196  48.134  1.00  0.00    -0.273 OA
HETATM   11  N   UNL     1      25.087  41.412  48.748  1.00  0.00    -0.312 N 
HETATM   12  H   UNL     1      25.167  40.959  47.846  1.00  0.00     0.170 HD
ENDROOT
BRANCH   7  13
HETATM   13  C   UNL     1      25.376  44.528  50.974  1.00  0.00    -0.046 A 
HETATM   14  C   UNL     1      26.340  44.825  49.990  1.00  0.00     0.047 A 
HETATM   15  C   UNL     1      26.729  46.138  49.818  1.00  0.00     0.105 A 
HETATM   16  C   UNL     1      26.201  47.154  50.576  1.00  0.00     0.105 A 
HETATM   17  O   UNL     1      27.651  46.580  48.923  1.00  0.00    -0.323 OA
HETATM   18  O   UNL     1      26.720  48.368  50.249  1.00  0.00    -0.323 OA
HETATM   19  C   UNL     1      25.263  46.913  51.553  1.00  0.00     0.040 A 
HETATM   20  C   UNL     1      27.645  47.994  49.207  1.00  0.00     0.352 A 
HETATM   21  C   UNL     1      24.858  45.587  51.760  1.00  0.00     0.011 A 
ENDBRANCH   7  13
BRANCH   1  22
HETATM   22  C   UNL     1      28.085  42.622  52.497  1.00  0.00    -0.005 A 
HETATM   23  C   UNL     1      29.477  42.543  52.655  1.00  0.00     0.014 A 
HETATM   24  C   UNL     1      30.108  43.137  53.750  1.00  0.00     0.001 A 
HETATM   25  C   UNL     1      29.351  43.814  54.703  1.00  0.00     0.000 A 
HETATM   26  C   UNL     1      27.966  43.887  54.567  1.00  0.00     0.001 A 
HETATM   27  C   UNL     1      27.334  43.289  53.473  1.00  0.00     0.014 A 
ENDBRANCH   1  22
TORSDOF 2
ENDMDL
MODEL 5
REMARK VINA RESULT:      -9.0     12.251     13.588
REMARK  2 active torsions:
REMARK  status: ('A' for Active; 'I' for Inactive)
REMARK    1  A    between atoms: C_4  and  C_5 
REMARK    2  A    between atoms: C_11  and  C_12 
ROOT
HETATM    1  C   UNL     1      27.948  49.564  40.172  1.00  0.00     0.098 A 
HETATM    2  N   UNL     1      26.860  49.233  40.898  1.00  0.00    -0.172 NA
HETATM    3  N   UNL     1      26.827  47.892  40.882  1.00  0.00    -0.261 N 
HETATM    4  H   UNL     1      26.080  47.422  41.383  1.00  0.00     0.191 HD
HETATM    5  C   UNL     1      27.853  47.349  40.182  1.00  0.00     0.133 A 
HETATM    6  C   UNL     1      28.598  48.389  39.689  1.00  0.00     0.028 A 
HETATM    7  C   UNL     1      29.831  48.135  38.896  1.00  0.00     0.067 C 
HETATM    8  C   UNL     1      29.897  46.677  38.407  1.00  0.00     0.117 C 
HETATM    9  C   UNL     1      29.233  45.637  39.305  1.00  0.00     0.224 C 
HETATM   10  O   UNL     1      29.581  44.456  39.291  1.00  0.00    -0.273 OA
HETATM   11  N   UNL     1      28.137  46.020  40.043  1.00  0.00    -0.312 N 
HETATM   12  H   UNL     1      27.642  45.296  40.550  1.00  0.00     0.170 HD
ENDROOT
BRANCH   7  13
HETATM   13  C   UNL     1      31.033  48.523  39.746  1.00  0.00    -0.046 A 
HETATM   14  C   UNL     1      31.547  49.829  39.608  1.00  0.00     0.047 A 
HETATM   15  C   UNL     1      32.660  50.184  40.342  1.00  0.00     0.105 A 
HETATM   16  C   UNL     1      33.273  49.304  41.198  1.00  0.00     0.105 A 
HETATM   17  O   UNL     1      33.276  51.395  40.310  1.00  0.00    -0.323 OA
HETATM   18  O   UNL     1      34.352  49.851  41.820  1.00  0.00    -0.323 OA
HETATM   19  C   UNL     1      32.813  48.017  41.362  1.00  0.00     0.040 A 
HETATM   20  C   UNL     1      34.352  51.174  41.245  1.00  0.00     0.352 A 
HETATM   21  C   UNL     1      31.693  47.622  40.619  1.00  0.00     0.011 A 
ENDBRANCH   7  13
BRANCH   1  22
HETATM   22  C   UNL     1      28.342  50.966  40.028  1.00  0.00    -0.005 A 
HETATM   23  C   UNL     1      28.711  51.702  41.165  1.00  0.00     0.014 A 
HETATM   24  C   UNL     1      29.113  53.034  41.055  1.00  0.00     0.001 A 
HETATM   25  C   UNL     1      29.147  53.648  39.805  1.00  0.00     0.000 A 
HETATM   26  C   UNL     1      28.770  52.933  38.669  1.00  0.00     0.001 A 
HETATM   27  C   UNL     1      28.363  51.600  38.781  1.00  0.00     0.014 A 
ENDBRANCH   1  22
TORSDOF 2
ENDMDL
MODEL 6
REMARK VINA RESULT:      -8.9      6.997      9.507
REMARK  2 active torsions:
REMARK  status: ('A' for Active; 'I' for Inactive)
REMARK    1  A    between atoms: C_4  and  C_5 
REMARK    2  A    between atoms: C_11  and  C_12 
ROOT
HETATM    1  C   UNL     1      18.096  48.293  48.368  1.00  0.00     0.098 A 
HETATM    2  N   UNL     1      17.099  47.746  49.094  1.00  0.00    -0.172 NA
HETATM    3  N   UNL     1      17.193  46.426  48.876  1.00  0.00    -0.261 N 
HETATM    4  H   UNL     1      16.533  45.813  49.340  1.00  0.00     0.191 HD
HETATM    5  C   UNL     1      18.215  46.103  48.045  1.00  0.00     0.133 A 
HETATM    6  C   UNL     1      18.820  47.276  47.676  1.00  0.00     0.028 A 
HETATM    7  C   UNL     1      20.013  47.272  46.788  1.00  0.00     0.067 C 
HETATM    8  C   UNL     1      20.184  45.917  46.079  1.00  0.00     0.117 C 
HETATM    9  C   UNL     1      19.688  44.692  46.844  1.00  0.00     0.224 C 
HETATM   10  O   UNL     1      20.146  43.569  46.631  1.00  0.00    -0.273 OA
HETATM   11  N   UNL     1      18.616  44.845  47.691  1.00  0.00    -0.312 N 
HETATM   12  H   UNL     1      18.229  44.007  48.108  1.00  0.00     0.170 HD
ENDROOT
BRANCH   7  13
HETATM   13  C   UNL     1      21.230  47.657  47.619  1.00  0.00    -0.046 A 
HETATM   14  C   UNL     1      21.941  46.626  48.266  1.00  0.00     0.047 A 
HETATM   15  C   UNL     1      23.022  46.961  49.055  1.00  0.00     0.105 A 
HETATM   16  C   UNL     1      23.421  48.264  49.221  1.00  0.00     0.105 A 
HETATM   17  O   UNL     1      23.798  46.086  49.748  1.00  0.00    -0.323 OA
HETATM   18  O   UNL     1      24.503  48.375  50.036  1.00  0.00    -0.323 OA
HETATM   19  C   UNL     1      22.755  49.305  48.615  1.00  0.00     0.040 A 
HETATM   20  C   UNL     1      24.730  46.991  50.374  1.00  0.00     0.352 A 
HETATM   21  C   UNL     1      21.644  48.997  47.819  1.00  0.00     0.011 A 
ENDBRANCH   7  13
BRANCH   1  22
HETATM   22  C   UNL     1      18.343  49.734  48.418  1.00  0.00    -0.005 A 
HETATM   23  C   UNL     1      18.707  50.333  49.634  1.00  0.00     0.014 A 
HETATM   24  C   UNL     1      18.971  51.702  49.706  1.00  0.00     0.001 A 
HETATM   25  C   UNL     1      18.869  52.490  48.562  1.00  0.00     0.000 A 
HETATM   26  C   UNL     1      18.494  51.911  47.351  1.00  0.00     0.001 A 
HETATM   27  C   UNL     1      18.226  50.541  47.280  1.00  0.00     0.014 A 
ENDBRANCH   1  22
TORSDOF 2
ENDMDL
MODEL 7
REMARK VINA RESULT:      -8.5     16.585     18.397
REMARK  2 active torsions:
REMARK  status: ('A' for Active; 'I' for Inactive)
REMARK    1  A    between atoms: C_4  and  C_5 
REMARK    2  A    between atoms: C_11  and  C_12 
ROOT
HETATM    1  C   UNL     1      37.332  44.638  64.997  1.00  0.00     0.098 A 
HETATM    2  N   UNL     1      36.385  44.179  65.841  1.00  0.00    -0.172 NA
HETATM    3  N   UNL     1      36.452  42.842  65.746  1.00  0.00    -0.261 N 
HETATM    4  H   UNL     1      35.822  42.286  66.312  1.00  0.00     0.191 HD
HETATM    5  C   UNL     1      37.409  42.425  64.880  1.00  0.00     0.133 A 
HETATM    6  C   UNL     1      37.996  43.549  64.358  1.00  0.00     0.028 A 
HETATM    7  C   UNL     1      39.122  43.441  63.392  1.00  0.00     0.067 C 
HETATM    8  C   UNL     1      39.231  42.021  62.807  1.00  0.00     0.117 C 
HETATM    9  C   UNL     1      38.780  40.883  63.720  1.00  0.00     0.224 C 
HETATM   10  O   UNL     1      39.212  39.739  63.585  1.00  0.00    -0.273 OA
HETATM   11  N   UNL     1      37.773  41.134  64.622  1.00  0.00    -0.312 N 
HETATM   12  H   UNL     1      37.410  40.345  65.144  1.00  0.00     0.170 HD
ENDROOT
BRANCH   7  13
HETATM   13  C   UNL     1      40.398  43.885  64.094  1.00  0.00    -0.046 A 
HETATM   14  C   UNL     1      41.245  44.788  63.419  1.00  0.00     0.047 A 
HETATM   15  C   UNL     1      42.424  45.170  64.024  1.00  0.00     0.105 A 
HETATM   16  C   UNL     1      42.789  44.697  65.260  1.00  0.00     0.105 A 
HETATM   17  O   UNL     1      43.345  46.020  63.499  1.00  0.00    -0.323 OA
HETATM   18  O   UNL     1      43.985  45.194  65.674  1.00  0.00    -0.323 OA
HETATM   19  C   UNL     1      42.000  43.809  65.955  1.00  0.00     0.040 A 
HETATM   20  C   UNL     1      44.336  46.025  64.547  1.00  0.00     0.352 A 
HETATM   21  C   UNL     1      40.803  43.392  65.360  1.00  0.00     0.011 A 
ENDBRANCH   7  13
BRANCH   1  22
HETATM   22  C   UNL     1      37.593  46.073  64.890  1.00  0.00    -0.005 A 
HETATM   23  C   UNL     1      38.759  46.609  65.458  1.00  0.00     0.014 A 
HETATM   24  C   UNL     1      39.047  47.972  65.351  1.00  0.00     0.001 A 
HETATM   25  C   UNL     1      38.167  48.815  64.677  1.00  0.00     0.000 A 
HETATM   26  C   UNL     1      36.998  48.299  64.119  1.00  0.00     0.001 A 
HETATM   27  C   UNL     1      36.709  46.935  64.231  1.00  0.00     0.014 A 
ENDBRANCH   1  22
TORSDOF 2
ENDMDL
MODEL 8
REMARK VINA RESULT:      -8.4      8.840     11.783
REMARK  2 active torsions:
REMARK  status: ('A' for Active; 'I' for Inactive)
REMARK    1  A    between atoms: C_4  and  C_5 
REMARK    2  A    between atoms: C_11  and  C_12 
ROOT
HETATM    1  C   UNL     1      19.369  47.918  47.690  1.00  0.00     0.098 A 
HETATM    2  N   UNL     1      19.697  46.804  48.377  1.00  0.00    -0.172 NA
HETATM    3  N   UNL     1      20.744  47.159  49.137  1.00  0.00    -0.261 N 
HETATM    4  H   UNL     1      21.153  46.463  49.750  1.00  0.00     0.191 HD
HETATM    5  C   UNL     1      21.097  48.458  48.970  1.00  0.00     0.133 A 
HETATM    6  C   UNL     1      20.249  48.988  48.033  1.00  0.00     0.028 A 
HETATM    7  C   UNL     1      20.344  50.421  47.643  1.00  0.00     0.067 C 
HETATM    8  C   UNL     1      21.678  51.041  48.094  1.00  0.00     0.117 C 
HETATM    9  C   UNL     1      22.291  50.463  49.367  1.00  0.00     0.224 C 
HETATM   10  O   UNL     1      23.061  51.120  50.068  1.00  0.00    -0.273 OA
HETATM   11  N   UNL     1      22.069  49.136  49.651  1.00  0.00    -0.312 N 
HETATM   12  H   UNL     1      22.568  48.739  50.438  1.00  0.00     0.170 HD
ENDROOT
BRANCH   7  13
HETATM   13  C   UNL     1      19.136  51.152  48.211  1.00  0.00    -0.046 A 
HETATM   14  C   UNL     1      18.040  51.385  47.355  1.00  0.00     0.047 A 
HETATM   15  C   UNL     1      16.954  52.081  47.843  1.00  0.00     0.105 A 
HETATM   16  C   UNL     1      16.913  52.546  49.134  1.00  0.00     0.105 A 
HETATM   17  O   UNL     1      15.832  52.393  47.141  1.00  0.00    -0.323 OA
HETATM   18  O   UNL     1      15.756  53.205  49.412  1.00  0.00    -0.323 OA
HETATM   19  C   UNL     1      17.959  52.349  50.006  1.00  0.00     0.040 A 
HETATM   20  C   UNL     1      15.081  53.112  48.140  1.00  0.00     0.352 A 
HETATM   21  C   UNL     1      19.083  51.658  49.534  1.00  0.00     0.011 A 
ENDBRANCH   7  13
BRANCH   1  22
HETATM   22  C   UNL     1      18.211  47.922  46.797  1.00  0.00    -0.005 A 
HETATM   23  C   UNL     1      16.917  47.891  47.341  1.00  0.00     0.014 A 
HETATM   24  C   UNL     1      15.792  47.917  46.514  1.00  0.00     0.001 A 
HETATM   25  C   UNL     1      15.949  47.970  45.131  1.00  0.00     0.000 A 
HETATM   26  C   UNL     1      17.228  47.986  44.577  1.00  0.00     0.001 A 
HETATM   27  C   UNL     1      18.354  47.956  45.405  1.00  0.00     0.014 A 
ENDBRANCH   1  22
TORSDOF 2
ENDMDL
MODEL 9
REMARK VINA RESULT:      -8.1      8.422     10.886
REMARK  2 active torsions:
REMARK  status: ('A' for Active; 'I' for Inactive)
REMARK    1  A    between atoms: C_4  and  C_5 
REMARK    2  A    between atoms: C_11  and  C_12 
ROOT
HETATM    1  C   UNL     1      20.141  50.886  48.818  1.00  0.00     0.098 A 
HETATM    2  N   UNL     1      19.836  51.698  49.852  1.00  0.00    -0.172 NA
HETATM    3  N   UNL     1      18.566  52.071  49.638  1.00  0.00    -0.261 N 
HETATM    4  H   UNL     1      18.125  52.688  50.311  1.00  0.00     0.191 HD
HETATM    5  C   UNL     1      18.041  51.526  48.513  1.00  0.00     0.133 A 
HETATM    6  C   UNL     1      19.024  50.764  47.938  1.00  0.00     0.028 A 
HETATM    7  C   UNL     1      18.761  49.992  46.694  1.00  0.00     0.067 C 
HETATM    8  C   UNL     1      17.477  50.471  45.993  1.00  0.00     0.117 C 
HETATM    9  C   UNL     1      16.380  51.019  46.903  1.00  0.00     0.224 C 
HETATM   10  O   UNL     1      15.197  51.007  46.566  1.00  0.00    -0.273 OA
HETATM   11  N   UNL     1      16.756  51.653  48.064  1.00  0.00    -0.312 N 
HETATM   12  H   UNL     1      16.027  52.106  48.603  1.00  0.00     0.170 HD
ENDROOT
BRANCH   7  13
HETATM   13  C   UNL     1      18.718  48.512  47.050  1.00  0.00    -0.046 A 
HETATM   14  C   UNL     1      19.432  47.614  46.232  1.00  0.00     0.047 A 
HETATM   15  C   UNL     1      19.371  46.265  46.518  1.00  0.00     0.105 A 
HETATM   16  C   UNL     1      18.639  45.782  47.573  1.00  0.00     0.105 A 
HETATM   17  O   UNL     1      19.993  45.279  45.819  1.00  0.00    -0.323 OA
HETATM   18  O   UNL     1      18.711  44.428  47.678  1.00  0.00    -0.323 OA
HETATM   19  C   UNL     1      17.920  46.618  48.396  1.00  0.00     0.040 A 
HETATM   20  C   UNL     1      19.564  44.116  46.556  1.00  0.00     0.352 A 
HETATM   21  C   UNL     1      17.951  47.992  48.123  1.00  0.00     0.011 A 
ENDBRANCH   7  13
BRANCH   1  22
HETATM   22  C   UNL     1      21.446  50.227  48.755  1.00  0.00    -0.005 A 
HETATM   23  C   UNL     1      22.571  50.958  48.343  1.00  0.00     0.014 A 
HETATM   24  C   UNL     1      23.833  50.362  48.295  1.00  0.00     0.001 A 
HETATM   25  C   UNL     1      23.983  49.025  48.656  1.00  0.00     0.000 A 
HETATM   26  C   UNL     1      22.872  48.284  49.054  1.00  0.00     0.001 A 
HETATM   27  C   UNL     1      21.608  48.880  49.097  1.00  0.00     0.014 A 
ENDBRANCH   1  22
TORSDOF 2
ENDMDL
MODEL 10
REMARK VINA RESULT:      -8.0      6.859      9.294
REMARK  2 active torsions:
REMARK  status: ('A' for Active; 'I' for Inactive)
REMARK    1  A    between atoms: C_4  and  C_5 
REMARK    2  A    between atoms: C_11  and  C_12 
ROOT
HETATM    1  C   UNL     1      21.354  50.171  49.203  1.00  0.00     0.098 A 
HETATM    2  N   UNL     1      20.990  50.893  50.283  1.00  0.00    -0.172 NA
HETATM    3  N   UNL     1      19.651  50.946  50.231  1.00  0.00    -0.261 N 
HETATM    4  H   UNL     1      19.159  51.444  50.965  1.00  0.00     0.191 HD
HETATM    5  C   UNL     1      19.140  50.281  49.165  1.00  0.00     0.133 A 
HETATM    6  C   UNL     1      20.201  49.775  48.460  1.00  0.00     0.028 A 
HETATM    7  C   UNL     1      19.983  48.952  47.240  1.00  0.00     0.067 C 
HETATM    8  C   UNL     1      18.546  49.100  46.709  1.00  0.00     0.117 C 
HETATM    9  C   UNL     1      17.468  49.374  47.756  1.00  0.00     0.224 C 
HETATM   10  O   UNL     1      16.290  49.073  47.562  1.00  0.00    -0.273 OA
HETATM   11  N   UNL     1      17.818  50.089  48.877  1.00  0.00    -0.312 N 
HETATM   12  H   UNL     1      17.073  50.356  49.509  1.00  0.00     0.170 HD
ENDROOT
BRANCH   7  13
HETATM   13  C   UNL     1      20.341  47.509  47.567  1.00  0.00    -0.046 A 
HETATM   14  C   UNL     1      21.408  46.917  46.862  1.00  0.00     0.047 A 
HETATM   15  C   UNL     1      21.721  45.598  47.117  1.00  0.00     0.105 A 
HETATM   16  C   UNL     1      21.024  44.854  48.037  1.00  0.00     0.105 A 
HETATM   17  O   UNL     1      22.710  44.886  46.514  1.00  0.00    -0.323 OA
HETATM   18  O   UNL     1      21.490  43.581  48.135  1.00  0.00    -0.323 OA
HETATM   19  C   UNL     1      19.971  45.386  48.746  1.00  0.00     0.040 A 
HETATM   20  C   UNL     1      22.553  43.606  47.160  1.00  0.00     0.352 A 
HETATM   21  C   UNL     1      19.621  46.719  48.498  1.00  0.00     0.011 A 
ENDBRANCH   7  13
BRANCH   1  22
HETATM   22  C   UNL     1      22.761  49.847  48.969  1.00  0.00    -0.005 A 
HETATM   23  C   UNL     1      23.539  50.687  48.157  1.00  0.00     0.014 A 
HETATM   24  C   UNL     1      24.891  50.416  47.935  1.00  0.00     0.001 A 
HETATM   25  C   UNL     1      25.480  49.298  48.521  1.00  0.00     0.000 A 
HETATM   26  C   UNL     1      24.715  48.447  49.318  1.00  0.00     0.001 A 
HETATM   27  C   UNL     1      23.361  48.717  49.536  1.00  0.00     0.014 A 
ENDBRANCH   1  22
TORSDOF 2
ENDMDL
