MODEL 1
REMARK VINA RESULT:     -10.6      0.000      0.000
REMARK  2 active torsions:
REMARK  status: ('A' for Active; 'I' for Inactive)
REMARK       I    between atoms: C_2  and  N_3 
REMARK       I    between atoms: C_2  and  N_21 
REMARK    1  A    between atoms: N_3  and  C_4 
REMARK    2  A    between atoms: C_7  and  C_10 
ROOT
HETATM    1  C   UNL     1      26.068  45.251  50.935  1.00  0.00     0.036 A 
HETATM    2  C   UNL     1      26.203  46.475  50.268  1.00  0.00     0.030 A 
HETATM    3  C   UNL     1      25.127  47.024  49.560  1.00  0.00     0.014 A 
HETATM    4  C   UNL     1      23.907  46.344  49.493  1.00  0.00    -0.024 A 
HETATM    5  C   UNL     1      23.784  45.104  50.127  1.00  0.00     0.014 A 
HETATM    6  C   UNL     1      24.856  44.563  50.844  1.00  0.00     0.030 A 
ENDROOT
BRANCH   1   7
HETATM    7  N   UNL     1      27.186  44.769  51.648  1.00  0.00    -0.309 N 
HETATM    8  C   UNL     1      27.510  45.046  52.967  1.00  0.00     0.327 C 
HETATM    9  O   UNL     1      26.910  45.874  53.649  1.00  0.00    -0.247 OA
HETATM   10  N   UNL     1      28.583  44.298  53.440  1.00  0.00    -0.299 N 
HETATM   11  C   UNL     1      29.223  43.154  52.768  1.00  0.00     0.138 C 
HETATM   12  C   UNL     1      29.228  44.492  54.679  1.00  0.00     0.045 A 
HETATM   13  C   UNL     1      30.185  42.503  53.770  1.00  0.00     0.061 C 
HETATM   14  C   UNL     1      30.187  43.498  54.884  1.00  0.00    -0.030 A 
HETATM   15  C   UNL     1      30.971  43.476  56.029  1.00  0.00     0.009 A 
HETATM   16  C   UNL     1      30.790  44.483  56.976  1.00  0.00     0.001 A 
HETATM   17  C   UNL     1      29.830  45.485  56.771  1.00  0.00     0.002 A 
HETATM   18  C   UNL     1      29.040  45.492  55.618  1.00  0.00     0.030 A 
HETATM   19  H   UNL     1      27.933  44.390  51.091  1.00  0.00     0.170 HD
ENDBRANCH   1   7
BRANCH   4  20
HETATM   20  C   UNL     1      22.752  46.927  48.780  1.00  0.00     0.001 A 
HETATM   21  C   UNL     1      21.907  46.064  48.188  1.00  0.00     0.104 A 
HETATM   22  N   UNL     1      20.785  46.471  47.517  1.00  0.00    -0.332 N 
HETATM   23  C   UNL     1      20.389  47.782  47.384  1.00  0.00     0.256 A 
HETATM   24  H   UNL     1      20.172  45.787  47.088  1.00  0.00     0.168 HD
HETATM   25  O   UNL     1      19.370  48.089  46.777  1.00  0.00    -0.267 OA
HETATM   26  C   UNL     1      21.268  48.796  48.015  1.00  0.00     0.043 A 
HETATM   27  C   UNL     1      20.935  50.152  47.925  1.00  0.00     0.018 A 
HETATM   28  C   UNL     1      22.426  48.375  48.691  1.00  0.00    -0.008 A 
HETATM   29  C   UNL     1      21.762  51.110  48.509  1.00  0.00     0.001 A 
HETATM   30  C   UNL     1      22.921  50.710  49.174  1.00  0.00     0.001 A 
HETATM   31  C   UNL     1      23.252  49.355  49.263  1.00  0.00     0.013 A 
ENDBRANCH   4  20
TORSDOF 2
ENDMDL
MODEL 2
REMARK VINA RESULT:     -10.5      1.889     10.007
REMARK  2 active torsions:
REMARK  status: ('A' for Active; 'I' for Inactive)
REMARK       I    between atoms: C_2  and  N_3 
REMARK       I    between atoms: C_2  and  N_21 
REMARK    1  A    between atoms: N_3  and  C_4 
REMARK    2  A    between atoms: C_7  and  C_10 
ROOT
HETATM    1  C   UNL     1      24.301  45.782  50.058  1.00  0.00     0.036 A 
HETATM    2  C   UNL     1      24.080  44.822  51.053  1.00  0.00     0.030 A 
HETATM    3  C   UNL     1      25.153  44.265  51.759  1.00  0.00     0.014 A 
HETATM    4  C   UNL     1      26.466  44.647  51.463  1.00  0.00    -0.024 A 
HETATM    5  C   UNL     1      26.689  45.578  50.444  1.00  0.00     0.014 A 
HETATM    6  C   UNL     1      25.615  46.142  49.748  1.00  0.00     0.030 A 
ENDROOT
BRANCH   1   7
HETATM    7  N   UNL     1      23.172  46.318  49.405  1.00  0.00    -0.309 N 
HETATM    8  C   UNL     1      22.854  47.660  49.265  1.00  0.00     0.327 C 
HETATM    9  O   UNL     1      23.472  48.561  49.827  1.00  0.00    -0.247 OA
HETATM   10  N   UNL     1      21.763  47.884  48.433  1.00  0.00    -0.299 N 
HETATM   11  C   UNL     1      21.096  46.894  47.569  1.00  0.00     0.138 C 
HETATM   12  C   UNL     1      21.121  49.126  48.247  1.00  0.00     0.045 A 
HETATM   13  C   UNL     1      20.118  47.651  46.661  1.00  0.00     0.061 C 
HETATM   14  C   UNL     1      20.139  49.019  47.260  1.00  0.00    -0.030 A 
HETATM   15  C   UNL     1      19.354  50.105  46.902  1.00  0.00     0.009 A 
HETATM   16  C   UNL     1      19.558  51.317  47.562  1.00  0.00     0.001 A 
HETATM   17  C   UNL     1      20.541  51.427  48.555  1.00  0.00     0.002 A 
HETATM   18  C   UNL     1      21.332  50.328  48.902  1.00  0.00     0.030 A 
HETATM   19  H   UNL     1      22.417  45.675  49.235  1.00  0.00     0.170 HD
ENDBRANCH   1   7
BRANCH   4  20
HETATM   20  C   UNL     1      27.606  44.095  52.224  1.00  0.00     0.001 A 
HETATM   21  C   UNL     1      28.255  43.054  51.670  1.00  0.00     0.104 A 
HETATM   22  N   UNL     1      29.343  42.466  52.257  1.00  0.00    -0.332 N 
HETATM   23  C   UNL     1      29.899  42.870  53.449  1.00  0.00     0.256 A 
HETATM   24  H   UNL     1      29.806  41.686  51.805  1.00  0.00     0.168 HD
HETATM   25  O   UNL     1      30.879  42.309  53.926  1.00  0.00    -0.267 OA
HETATM   26  C   UNL     1      29.241  44.017  54.120  1.00  0.00     0.043 A 
HETATM   27  C   UNL     1      29.746  44.488  55.338  1.00  0.00     0.018 A 
HETATM   28  C   UNL     1      28.116  44.609  53.521  1.00  0.00    -0.008 A 
HETATM   29  C   UNL     1      29.126  45.560  55.977  1.00  0.00     0.001 A 
HETATM   30  C   UNL     1      28.002  46.153  55.402  1.00  0.00     0.001 A 
HETATM   31  C   UNL     1      27.499  45.680  54.186  1.00  0.00     0.013 A 
ENDBRANCH   4  20
TORSDOF 2
ENDMDL
MODEL 3
REMARK VINA RESULT:     -10.0      1.603      2.393
REMARK  2 active torsions:
REMARK  status: ('A' for Active; 'I' for Inactive)
REMARK       I    between atoms: C_2  and  N_3 
REMARK       I    between atoms: C_2  and  N_21 
REMARK    1  A    between atoms: N_3  and  C_4 
REMARK    2  A    between atoms: C_7  and  C_10 
ROOT
HETATM    1  C   UNL     1      24.937  45.742  51.467  1.00  0.00     0.036 A 
HETATM    2  C   UNL     1      24.915  46.923  50.715  1.00  0.00     0.030 A 
HETATM    3  C   UNL     1      24.109  47.029  49.576  1.00  0.00     0.014 A 
HETATM    4  C   UNL     1      23.328  45.945  49.162  1.00  0.00    -0.024 A 
HETATM    5  C   UNL     1      23.378  44.754  49.891  1.00  0.00     0.014 A 
HETATM    6  C   UNL     1      24.175  44.654  51.036  1.00  0.00     0.030 A 
ENDROOT
BRANCH   1   7
HETATM    7  N   UNL     1      25.754  45.715  52.616  1.00  0.00    -0.309 N 
HETATM    8  C   UNL     1      26.955  45.038  52.764  1.00  0.00     0.327 C 
HETATM    9  O   UNL     1      27.394  44.253  51.926  1.00  0.00    -0.247 OA
HETATM   10  N   UNL     1      27.610  45.330  53.955  1.00  0.00    -0.299 N 
HETATM   11  C   UNL     1      27.265  46.395  54.912  1.00  0.00     0.138 C 
HETATM   12  C   UNL     1      28.756  44.665  54.440  1.00  0.00     0.045 A 
HETATM   13  C   UNL     1      28.404  46.493  55.934  1.00  0.00     0.061 C 
HETATM   14  C   UNL     1      29.218  45.285  55.603  1.00  0.00    -0.030 A 
HETATM   15  C   UNL     1      30.329  44.809  56.282  1.00  0.00     0.009 A 
HETATM   16  C   UNL     1      30.978  43.679  55.783  1.00  0.00     0.001 A 
HETATM   17  C   UNL     1      30.515  43.052  54.617  1.00  0.00     0.002 A 
HETATM   18  C   UNL     1      29.399  43.546  53.937  1.00  0.00     0.030 A 
HETATM   19  H   UNL     1      25.318  46.011  53.473  1.00  0.00     0.170 HD
ENDBRANCH   1   7
BRANCH   4  20
HETATM   20  C   UNL     1      22.445  46.054  47.982  1.00  0.00     0.001 A 
HETATM   21  C   UNL     1      22.653  45.173  46.987  1.00  0.00     0.104 A 
HETATM   22  N   UNL     1      21.889  45.147  45.851  1.00  0.00    -0.332 N 
HETATM   23  C   UNL     1      20.832  45.993  45.604  1.00  0.00     0.256 A 
HETATM   24  H   UNL     1      22.076  44.464  45.127  1.00  0.00     0.168 HD
HETATM   25  O   UNL     1      20.177  45.921  44.570  1.00  0.00    -0.267 OA
HETATM   26  C   UNL     1      20.536  46.993  46.658  1.00  0.00     0.043 A 
HETATM   27  C   UNL     1      19.476  47.890  46.483  1.00  0.00     0.018 A 
HETATM   28  C   UNL     1      21.331  47.024  47.817  1.00  0.00    -0.008 A 
HETATM   29  C   UNL     1      19.199  48.837  47.467  1.00  0.00     0.001 A 
HETATM   30  C   UNL     1      19.984  48.889  48.618  1.00  0.00     0.001 A 
HETATM   31  C   UNL     1      21.043  47.993  48.791  1.00  0.00     0.013 A 
ENDBRANCH   4  20
TORSDOF 2
ENDMDL
MODEL 4
REMARK VINA RESULT:     -10.0      3.049     10.085
REMARK  2 active torsions:
REMARK  status: ('A' for Active; 'I' for Inactive)
REMARK       I    between atoms: C_2  and  N_3 
REMARK       I    between atoms: C_2  and  N_21 
REMARK    1  A    between atoms: N_3  and  C_4 
REMARK    2  A    between atoms: C_7  and  C_10 
ROOT
HETATM    1  C   UNL     1      24.467  45.409  51.115  1.00  0.00     0.036 A 
HETATM    2  C   UNL     1      25.230  46.572  51.274  1.00  0.00     0.030 A 
HETATM    3  C   UNL     1      26.182  46.667  52.296  1.00  0.00     0.014 A 
HETATM    4  C   UNL     1      26.369  45.604  53.186  1.00  0.00    -0.024 A 
HETATM    5  C   UNL     1      25.580  44.458  53.050  1.00  0.00     0.014 A 
HETATM    6  C   UNL     1      24.638  44.361  52.021  1.00  0.00     0.030 A 
ENDROOT
BRANCH   1   7
HETATM    7  N   UNL     1      23.544  45.375  50.049  1.00  0.00    -0.309 N 
HETATM    8  C   UNL     1      23.616  44.582  48.914  1.00  0.00     0.327 C 
HETATM    9  O   UNL     1      24.594  43.891  48.636  1.00  0.00    -0.247 OA
HETATM   10  N   UNL     1      22.477  44.651  48.119  1.00  0.00    -0.299 N 
HETATM   11  C   UNL     1      21.195  45.286  48.471  1.00  0.00     0.138 C 
HETATM   12  C   UNL     1      22.345  44.087  46.833  1.00  0.00     0.045 A 
HETATM   13  C   UNL     1      20.172  44.896  47.397  1.00  0.00     0.061 C 
HETATM   14  C   UNL     1      21.038  44.245  46.369  1.00  0.00    -0.030 A 
HETATM   15  C   UNL     1      20.655  43.784  45.118  1.00  0.00     0.009 A 
HETATM   16  C   UNL     1      21.615  43.164  44.318  1.00  0.00     0.001 A 
HETATM   17  C   UNL     1      22.929  43.006  44.780  1.00  0.00     0.002 A 
HETATM   18  C   UNL     1      23.301  43.466  46.046  1.00  0.00     0.030 A 
HETATM   19  H   UNL     1      22.910  46.154  49.991  1.00  0.00     0.170 HD
ENDBRANCH   1   7
BRANCH   4  20
HETATM   20  C   UNL     1      27.394  45.676  54.247  1.00  0.00     0.001 A 
HETATM   21  C   UNL     1      27.235  46.633  55.179  1.00  0.00     0.104 A 
HETATM   22  N   UNL     1      28.098  46.790  56.231  1.00  0.00    -0.332 N 
HETATM   23  C   UNL     1      29.198  45.997  56.462  1.00  0.00     0.256 A 
HETATM   24  H   UNL     1      27.940  47.522  56.914  1.00  0.00     0.168 HD
HETATM   25  O   UNL     1      29.934  46.181  57.424  1.00  0.00    -0.267 OA
HETATM   26  C   UNL     1      29.440  44.914  55.477  1.00  0.00     0.043 A 
HETATM   27  C   UNL     1      30.539  44.063  55.641  1.00  0.00     0.018 A 
HETATM   28  C   UNL     1      28.559  44.764  54.393  1.00  0.00    -0.008 A 
HETATM   29  C   UNL     1      30.776  43.050  54.715  1.00  0.00     0.001 A 
HETATM   30  C   UNL     1      29.918  42.893  53.627  1.00  0.00     0.001 A 
HETATM   31  C   UNL     1      28.821  43.744  53.464  1.00  0.00     0.013 A 
ENDBRANCH   4  20
TORSDOF 2
ENDMDL
MODEL 5
REMARK VINA RESULT:     -10.0      2.174     10.251
REMARK  2 active torsions:
REMARK  status: ('A' for Active; 'I' for Inactive)
REMARK       I    between atoms: C_2  and  N_3 
REMARK       I    between atoms: C_2  and  N_21 
REMARK    1  A    between atoms: N_3  and  C_4 
REMARK    2  A    between atoms: C_7  and  C_10 
ROOT
HETATM    1  C   UNL     1      24.337  45.533  49.958  1.00  0.00     0.036 A 
HETATM    2  C   UNL     1      24.175  44.618  51.006  1.00  0.00     0.030 A 
HETATM    3  C   UNL     1      25.017  44.657  52.124  1.00  0.00     0.014 A 
HETATM    4  C   UNL     1      26.048  45.600  52.198  1.00  0.00    -0.024 A 
HETATM    5  C   UNL     1      26.233  46.488  51.134  1.00  0.00     0.014 A 
HETATM    6  C   UNL     1      25.383  46.456  50.024  1.00  0.00     0.030 A 
ENDROOT
BRANCH   1   7
HETATM    7  N   UNL     1      23.438  45.451  48.875  1.00  0.00    -0.309 N 
HETATM    8  C   UNL     1      22.528  46.419  48.477  1.00  0.00     0.327 C 
HETATM    9  O   UNL     1      22.304  47.439  49.124  1.00  0.00    -0.247 OA
HETATM   10  N   UNL     1      21.892  46.118  47.278  1.00  0.00    -0.299 N 
HETATM   11  C   UNL     1      22.239  45.032  46.344  1.00  0.00     0.138 C 
HETATM   12  C   UNL     1      20.808  46.834  46.728  1.00  0.00     0.045 A 
HETATM   13  C   UNL     1      21.430  45.245  45.059  1.00  0.00     0.061 C 
HETATM   14  C   UNL     1      20.489  46.332  45.465  1.00  0.00    -0.030 A 
HETATM   15  C   UNL     1      19.445  46.861  44.720  1.00  0.00     0.009 A 
HETATM   16  C   UNL     1      18.704  47.908  45.268  1.00  0.00     0.001 A 
HETATM   17  C   UNL     1      19.020  48.412  46.537  1.00  0.00     0.002 A 
HETATM   18  C   UNL     1      20.079  47.877  47.275  1.00  0.00     0.030 A 
HETATM   19  H   UNL     1      23.274  44.528  48.509  1.00  0.00     0.170 HD
ENDBRANCH   1   7
BRANCH   4  20
HETATM   20  C   UNL     1      26.922  45.676  53.387  1.00  0.00     0.001 A 
HETATM   21  C   UNL     1      26.629  46.626  54.293  1.00  0.00     0.104 A 
HETATM   22  N   UNL     1      27.343  46.787  55.450  1.00  0.00    -0.332 N 
HETATM   23  C   UNL     1      28.411  46.004  55.823  1.00  0.00     0.256 A 
HETATM   24  H   UNL     1      27.087  47.514  56.109  1.00  0.00     0.168 HD
HETATM   25  O   UNL     1      29.010  46.190  56.876  1.00  0.00    -0.267 OA
HETATM   26  C   UNL     1      28.793  44.929  54.876  1.00  0.00     0.043 A 
HETATM   27  C   UNL     1      29.869  44.088  55.181  1.00  0.00     0.018 A 
HETATM   28  C   UNL     1      28.066  44.775  53.682  1.00  0.00    -0.008 A 
HETATM   29  C   UNL     1      30.238  43.082  54.291  1.00  0.00     0.001 A 
HETATM   30  C   UNL     1      29.535  42.922  53.098  1.00  0.00     0.001 A 
HETATM   31  C   UNL     1      28.460  43.763  52.794  1.00  0.00     0.013 A 
ENDBRANCH   4  20
TORSDOF 2
ENDMDL
MODEL 6
REMARK VINA RESULT:      -9.8      5.568      9.889
REMARK  2 active torsions:
REMARK  status: ('A' for Active; 'I' for Inactive)
REMARK       I    between atoms: C_2  and  N_3 
REMARK       I    between atoms: C_2  and  N_21 
REMARK    1  A    between atoms: N_3  and  C_4 
REMARK    2  A    between atoms: C_7  and  C_10 
ROOT
HETATM    1  C   UNL     1      27.761  41.064  50.340  1.00  0.00     0.036 A 
HETATM    2  C   UNL     1      27.148  42.303  50.119  1.00  0.00     0.030 A 
HETATM    3  C   UNL     1      27.198  43.308  51.092  1.00  0.00     0.014 A 
HETATM    4  C   UNL     1      27.846  43.078  52.311  1.00  0.00    -0.024 A 
HETATM    5  C   UNL     1      28.425  41.827  52.547  1.00  0.00     0.014 A 
HETATM    6  C   UNL     1      28.384  40.828  51.568  1.00  0.00     0.030 A 
ENDROOT
BRANCH   1   7
HETATM    7  N   UNL     1      27.691  40.107  49.306  1.00  0.00    -0.309 N 
HETATM    8  C   UNL     1      28.011  40.303  47.972  1.00  0.00     0.327 C 
HETATM    9  O   UNL     1      28.277  41.405  47.498  1.00  0.00    -0.247 OA
HETATM   10  N   UNL     1      27.996  39.131  47.223  1.00  0.00    -0.299 N 
HETATM   11  C   UNL     1      27.890  37.756  47.741  1.00  0.00     0.138 C 
HETATM   12  C   UNL     1      28.117  39.059  45.820  1.00  0.00     0.045 A 
HETATM   13  C   UNL     1      28.165  36.796  46.577  1.00  0.00     0.061 C 
HETATM   14  C   UNL     1      28.177  37.726  45.409  1.00  0.00    -0.030 A 
HETATM   15  C   UNL     1      28.282  37.388  44.067  1.00  0.00     0.009 A 
HETATM   16  C   UNL     1      28.316  38.416  43.125  1.00  0.00     0.001 A 
HETATM   17  C   UNL     1      28.253  39.756  43.535  1.00  0.00     0.002 A 
HETATM   18  C   UNL     1      28.155  40.084  44.890  1.00  0.00     0.030 A 
HETATM   19  H   UNL     1      27.141  39.288  49.502  1.00  0.00     0.170 HD
ENDBRANCH   1   7
BRANCH   4  20
HETATM   20  C   UNL     1      27.938  44.140  53.333  1.00  0.00     0.001 A 
HETATM   21  C   UNL     1      26.989  45.093  53.302  1.00  0.00     0.104 A 
HETATM   22  N   UNL     1      26.943  46.119  54.208  1.00  0.00    -0.332 N 
HETATM   23  C   UNL     1      27.833  46.285  55.244  1.00  0.00     0.256 A 
HETATM   24  H   UNL     1      26.209  46.815  54.152  1.00  0.00     0.168 HD
HETATM   25  O   UNL     1      27.740  47.220  56.030  1.00  0.00    -0.267 OA
HETATM   26  C   UNL     1      28.909  45.269  55.348  1.00  0.00     0.043 A 
HETATM   27  C   UNL     1      29.856  45.367  56.374  1.00  0.00     0.018 A 
HETATM   28  C   UNL     1      28.961  44.226  54.408  1.00  0.00    -0.008 A 
HETATM   29  C   UNL     1      30.874  44.421  56.471  1.00  0.00     0.001 A 
HETATM   30  C   UNL     1      30.946  43.384  55.541  1.00  0.00     0.001 A 
HETATM   31  C   UNL     1      30.000  43.288  54.516  1.00  0.00     0.013 A 
ENDBRANCH   4  20
TORSDOF 2
ENDMDL
MODEL 7
REMARK VINA RESULT:      -9.8      2.124     10.176
REMARK  2 active torsions:
REMARK  status: ('A' for Active; 'I' for Inactive)
REMARK       I    between atoms: C_2  and  N_3 
REMARK       I    between atoms: C_2  and  N_21 
REMARK    1  A    between atoms: N_3  and  C_4 
REMARK    2  A    between atoms: C_7  and  C_10 
ROOT
HETATM    1  C   UNL     1      24.511  46.630  49.881  1.00  0.00     0.036 A 
HETATM    2  C   UNL     1      25.900  46.795  49.965  1.00  0.00     0.030 A 
HETATM    3  C   UNL     1      26.711  45.768  50.460  1.00  0.00     0.014 A 
HETATM    4  C   UNL     1      26.142  44.568  50.898  1.00  0.00    -0.024 A 
HETATM    5  C   UNL     1      24.752  44.418  50.850  1.00  0.00     0.014 A 
HETATM    6  C   UNL     1      23.944  45.441  50.343  1.00  0.00     0.030 A 
ENDROOT
BRANCH   1   7
HETATM    7  N   UNL     1      23.758  47.698  49.350  1.00  0.00    -0.309 N 
HETATM    8  C   UNL     1      22.502  47.617  48.769  1.00  0.00     0.327 C 
HETATM    9  O   UNL     1      21.939  46.552  48.525  1.00  0.00    -0.247 OA
HETATM   10  N   UNL     1      21.945  48.860  48.485  1.00  0.00    -0.299 N 
HETATM   11  C   UNL     1      22.452  50.173  48.921  1.00  0.00     0.138 C 
HETATM   12  C   UNL     1      20.763  49.074  47.746  1.00  0.00     0.045 A 
HETATM   13  C   UNL     1      21.384  51.221  48.583  1.00  0.00     0.061 C 
HETATM   14  C   UNL     1      20.431  50.430  47.748  1.00  0.00    -0.030 A 
HETATM   15  C   UNL     1      19.313  50.901  47.075  1.00  0.00     0.009 A 
HETATM   16  C   UNL     1      18.524  49.986  46.379  1.00  0.00     0.001 A 
HETATM   17  C   UNL     1      18.855  48.623  46.373  1.00  0.00     0.002 A 
HETATM   18  C   UNL     1      19.980  48.159  47.061  1.00  0.00     0.030 A 
HETATM   19  H   UNL     1      24.268  48.544  49.160  1.00  0.00     0.170 HD
ENDBRANCH   1   7
BRANCH   4  20
HETATM   20  C   UNL     1      26.989  43.461  51.390  1.00  0.00     0.001 A 
HETATM   21  C   UNL     1      26.980  42.326  50.668  1.00  0.00     0.104 A 
HETATM   22  N   UNL     1      27.740  41.236  50.998  1.00  0.00    -0.332 N 
HETATM   23  C   UNL     1      28.593  41.177  52.076  1.00  0.00     0.256 A 
HETATM   24  H   UNL     1      27.707  40.401  50.425  1.00  0.00     0.168 HD
HETATM   25  O   UNL     1      29.254  40.175  52.321  1.00  0.00    -0.267 OA
HETATM   26  C   UNL     1      28.661  42.395  52.920  1.00  0.00     0.043 A 
HETATM   27  C   UNL     1      29.506  42.416  54.036  1.00  0.00     0.018 A 
HETATM   28  C   UNL     1      27.870  43.507  52.585  1.00  0.00    -0.008 A 
HETATM   29  C   UNL     1      29.567  43.554  54.838  1.00  0.00     0.001 A 
HETATM   30  C   UNL     1      28.782  44.663  54.526  1.00  0.00     0.001 A 
HETATM   31  C   UNL     1      27.938  44.640  53.412  1.00  0.00     0.013 A 
ENDBRANCH   4  20
TORSDOF 2
ENDMDL
MODEL 8
REMARK VINA RESULT:      -9.7      2.516      3.660
REMARK  2 active torsions:
REMARK  status: ('A' for Active; 'I' for Inactive)
REMARK       I    between atoms: C_2  and  N_3 
REMARK       I    between atoms: C_2  and  N_21 
REMARK    1  A    between atoms: N_3  and  C_4 
REMARK    2  A    between atoms: C_7  and  C_10 
ROOT
HETATM    1  C   UNL     1      25.374  44.197  50.624  1.00  0.00     0.036 A 
HETATM    2  C   UNL     1      24.400  43.201  50.774  1.00  0.00     0.030 A 
HETATM    3  C   UNL     1      23.174  43.296  50.108  1.00  0.00     0.014 A 
HETATM    4  C   UNL     1      22.896  44.401  49.295  1.00  0.00    -0.024 A 
HETATM    5  C   UNL     1      23.853  45.414  49.175  1.00  0.00     0.014 A 
HETATM    6  C   UNL     1      25.084  45.311  49.834  1.00  0.00     0.030 A 
ENDROOT
BRANCH   1   7
HETATM    7  N   UNL     1      26.596  44.024  51.307  1.00  0.00    -0.309 N 
HETATM    8  C   UNL     1      26.906  44.477  52.580  1.00  0.00     0.327 C 
HETATM    9  O   UNL     1      26.171  45.217  53.229  1.00  0.00    -0.247 OA
HETATM   10  N   UNL     1      28.132  44.014  53.046  1.00  0.00    -0.299 N 
HETATM   11  C   UNL     1      28.974  42.975  52.429  1.00  0.00     0.138 C 
HETATM   12  C   UNL     1      28.770  44.447  54.228  1.00  0.00     0.045 A 
HETATM   13  C   UNL     1      30.092  42.630  53.421  1.00  0.00     0.061 C 
HETATM   14  C   UNL     1      29.926  43.697  54.454  1.00  0.00    -0.030 A 
HETATM   15  C   UNL     1      30.741  43.939  55.549  1.00  0.00     0.009 A 
HETATM   16  C   UNL     1      30.388  44.966  56.425  1.00  0.00     0.001 A 
HETATM   17  C   UNL     1      29.229  45.723  56.199  1.00  0.00     0.002 A 
HETATM   18  C   UNL     1      28.411  45.464  55.096  1.00  0.00     0.030 A 
HETATM   19  H   UNL     1      27.384  43.762  50.739  1.00  0.00     0.170 HD
ENDBRANCH   1   7
BRANCH   4  20
HETATM   20  C   UNL     1      21.620  44.498  48.557  1.00  0.00     0.001 A 
HETATM   21  C   UNL     1      20.614  45.146  49.171  1.00  0.00     0.104 A 
HETATM   22  N   UNL     1      19.389  45.330  48.587  1.00  0.00    -0.332 N 
HETATM   23  C   UNL     1      19.054  44.895  47.325  1.00  0.00     0.256 A 
HETATM   24  H   UNL     1      18.658  45.827  49.082  1.00  0.00     0.168 HD
HETATM   25  O   UNL     1      17.942  45.093  46.850  1.00  0.00    -0.267 OA
HETATM   26  C   UNL     1      20.115  44.174  46.581  1.00  0.00     0.043 A 
HETATM   27  C   UNL     1      19.853  43.699  45.290  1.00  0.00     0.018 A 
HETATM   28  C   UNL     1      21.366  43.976  47.189  1.00  0.00    -0.008 A 
HETATM   29  C   UNL     1      20.844  43.013  44.590  1.00  0.00     0.001 A 
HETATM   30  C   UNL     1      22.088  42.799  45.182  1.00  0.00     0.001 A 
HETATM   31  C   UNL     1      22.347  43.273  46.472  1.00  0.00     0.013 A 
ENDBRANCH   4  20
TORSDOF 2
ENDMDL
MODEL 9
REMARK VINA RESULT:      -9.7      5.017      8.481
REMARK  2 active torsions:
REMARK  status: ('A' for Active; 'I' for Inactive)
REMARK       I    between atoms: C_2  and  N_3 
REMARK       I    between atoms: C_2  and  N_21 
REMARK    1  A    between atoms: N_3  and  C_4 
REMARK    2  A    between atoms: C_7  and  C_10 
ROOT
HETATM    1  C   UNL     1      20.251  50.092  47.994  1.00  0.00     0.036 A 
HETATM    2  C   UNL     1      20.043  51.304  48.664  1.00  0.00     0.030 A 
HETATM    3  C   UNL     1      18.901  52.072  48.412  1.00  0.00     0.014 A 
HETATM    4  C   UNL     1      17.958  51.646  47.470  1.00  0.00    -0.024 A 
HETATM    5  C   UNL     1      18.184  50.454  46.774  1.00  0.00     0.014 A 
HETATM    6  C   UNL     1      19.321  49.682  47.036  1.00  0.00     0.030 A 
ENDROOT
BRANCH   1   7
HETATM    7  N   UNL     1      21.412  49.358  48.316  1.00  0.00    -0.309 N 
HETATM    8  C   UNL     1      22.709  49.845  48.379  1.00  0.00     0.327 C 
HETATM    9  O   UNL     1      23.021  50.979  48.024  1.00  0.00    -0.247 OA
HETATM   10  N   UNL     1      23.620  48.920  48.879  1.00  0.00    -0.299 N 
HETATM   11  C   UNL     1      23.307  47.626  49.510  1.00  0.00     0.138 C 
HETATM   12  C   UNL     1      25.021  49.085  48.896  1.00  0.00     0.045 A 
HETATM   13  C   UNL     1      24.603  47.079  50.119  1.00  0.00     0.061 C 
HETATM   14  C   UNL     1      25.623  48.020  49.569  1.00  0.00    -0.030 A 
HETATM   15  C   UNL     1      27.001  47.942  49.709  1.00  0.00     0.009 A 
HETATM   16  C   UNL     1      27.784  48.952  49.149  1.00  0.00     0.001 A 
HETATM   17  C   UNL     1      27.182  50.021  48.470  1.00  0.00     0.002 A 
HETATM   18  C   UNL     1      25.792  50.093  48.342  1.00  0.00     0.030 A 
HETATM   19  H   UNL     1      21.329  48.357  48.260  1.00  0.00     0.170 HD
ENDBRANCH   1   7
BRANCH   4  20
HETATM   20  C   UNL     1      16.730  52.428  47.219  1.00  0.00     0.001 A 
HETATM   21  C   UNL     1      16.466  52.746  45.939  1.00  0.00     0.104 A 
HETATM   22  N   UNL     1      15.349  53.444  45.567  1.00  0.00    -0.332 N 
HETATM   23  C   UNL     1      14.377  53.881  46.437  1.00  0.00     0.256 A 
HETATM   24  H   UNL     1      15.185  53.660  44.590  1.00  0.00     0.168 HD
HETATM   25  O   UNL     1      13.392  54.497  46.047  1.00  0.00    -0.267 OA
HETATM   26  C   UNL     1      14.594  53.564  47.870  1.00  0.00     0.043 A 
HETATM   27  C   UNL     1      13.651  53.974  48.819  1.00  0.00     0.018 A 
HETATM   28  C   UNL     1      15.749  52.859  48.249  1.00  0.00    -0.008 A 
HETATM   29  C   UNL     1      13.855  53.687  50.168  1.00  0.00     0.001 A 
HETATM   30  C   UNL     1      15.001  52.997  50.563  1.00  0.00     0.001 A 
HETATM   31  C   UNL     1      15.942  52.589  49.613  1.00  0.00     0.013 A 
ENDBRANCH   4  20
TORSDOF 2
ENDMDL
MODEL 10
REMARK VINA RESULT:      -9.6      5.908      8.063
REMARK  2 active torsions:
REMARK  status: ('A' for Active; 'I' for Inactive)
REMARK       I    between atoms: C_2  and  N_3 
REMARK       I    between atoms: C_2  and  N_21 
REMARK    1  A    between atoms: N_3  and  C_4 
REMARK    2  A    between atoms: C_7  and  C_10 
ROOT
HETATM    1  C   UNL     1      27.915  42.573  51.706  1.00  0.00     0.036 A 
HETATM    2  C   UNL     1      28.465  41.285  51.657  1.00  0.00     0.030 A 
HETATM    3  C   UNL     1      28.376  40.516  50.491  1.00  0.00     0.014 A 
HETATM    4  C   UNL     1      27.718  41.017  49.363  1.00  0.00    -0.024 A 
HETATM    5  C   UNL     1      27.136  42.288  49.425  1.00  0.00     0.014 A 
HETATM    6  C   UNL     1      27.236  43.060  50.588  1.00  0.00     0.030 A 
ENDROOT
BRANCH   1   7
HETATM    7  N   UNL     1      28.063  43.300  52.906  1.00  0.00    -0.309 N 
HETATM    8  C   UNL     1      29.163  43.295  53.749  1.00  0.00     0.327 C 
HETATM    9  O   UNL     1      30.115  42.531  53.610  1.00  0.00    -0.247 OA
HETATM   10  N   UNL     1      29.080  44.237  54.769  1.00  0.00    -0.299 N 
HETATM   11  C   UNL     1      28.086  45.317  54.893  1.00  0.00     0.138 C 
HETATM   12  C   UNL     1      29.969  44.337  55.860  1.00  0.00     0.045 A 
HETATM   13  C   UNL     1      28.539  46.241  56.030  1.00  0.00     0.061 C 
HETATM   14  C   UNL     1      29.662  45.460  56.631  1.00  0.00    -0.030 A 
HETATM   15  C   UNL     1      30.386  45.772  57.772  1.00  0.00     0.009 A 
HETATM   16  C   UNL     1      31.431  44.928  58.146  1.00  0.00     0.001 A 
HETATM   17  C   UNL     1      31.741  43.798  57.375  1.00  0.00     0.002 A 
HETATM   18  C   UNL     1      31.009  43.498  56.223  1.00  0.00     0.030 A 
HETATM   19  H   UNL     1      27.214  43.664  53.306  1.00  0.00     0.170 HD
ENDBRANCH   1   7
BRANCH   4  20
HETATM   20  C   UNL     1      27.647  40.232  48.114  1.00  0.00     0.001 A 
HETATM   21  C   UNL     1      27.986  40.869  46.979  1.00  0.00     0.104 A 
HETATM   22  N   UNL     1      27.990  40.249  45.758  1.00  0.00    -0.332 N 
HETATM   23  C   UNL     1      27.667  38.927  45.553  1.00  0.00     0.256 A 
HETATM   24  H   UNL     1      28.255  40.764  44.927  1.00  0.00     0.168 HD
HETATM   25  O   UNL     1      27.693  38.423  44.437  1.00  0.00    -0.267 OA
HETATM   26  C   UNL     1      27.286  38.155  46.761  1.00  0.00     0.043 A 
HETATM   27  C   UNL     1      26.944  36.803  46.637  1.00  0.00     0.018 A 
HETATM   28  C   UNL     1      27.271  38.798  48.010  1.00  0.00    -0.008 A 
HETATM   29  C   UNL     1      26.576  36.075  47.767  1.00  0.00     0.001 A 
HETATM   30  C   UNL     1      26.546  36.699  49.013  1.00  0.00     0.001 A 
HETATM   31  C   UNL     1      26.887  38.050  49.135  1.00  0.00     0.013 A 
ENDBRANCH   4  20
TORSDOF 2
ENDMDL
