MODEL 1
REMARK VINA RESULT:      -9.1      0.000      0.000
REMARK  5 active torsions:
REMARK  status: ('A' for Active; 'I' for Inactive)
REMARK    1  A    between atoms: O_2  and  C_3 
REMARK    2  A    between atoms: C_7  and  C_9 
REMARK    3  A    between atoms: C_9  and  N_11 
REMARK       I    between atoms: N_11  and  C_12 
REMARK       I    between atoms: C_12  and  N_14 
REMARK    4  A    between atoms: N_14  and  C_15 
REMARK    5  A    between atoms: C_18  and  C_21 
ROOT
HETATM    1  N   UNL     1      25.991  45.615  50.331  1.00  0.00    -0.335 N 
HETATM    2  C   UNL     1      26.519  45.182  51.496  1.00  0.00     0.322 C 
HETATM    3  O   UNL     1      26.211  45.469  52.637  1.00  0.00    -0.247 OA
HETATM    4  N   UNL     1      27.566  44.290  51.257  1.00  0.00    -0.289 N 
HETATM    5  H   UNL     1      26.355  45.305  49.441  1.00  0.00     0.165 HD
HETATM    6  H   UNL     1      27.902  44.042  50.342  1.00  0.00     0.172 HD
ENDROOT
BRANCH   1   7
HETATM    7  C   UNL     1      24.949  46.634  50.270  1.00  0.00     0.115 C 
HETATM    8  C   UNL     1      23.692  46.141  49.549  1.00  0.00     0.037 C 
BRANCH   7   9
HETATM    9  C   UNL     1      25.537  47.872  49.619  1.00  0.00    -0.033 A 
HETATM   10  C   UNL     1      26.912  48.126  49.693  1.00  0.00     0.009 A 
HETATM   11  C   UNL     1      27.462  49.232  49.043  1.00  0.00     0.003 A 
HETATM   12  C   UNL     1      26.650  50.095  48.302  1.00  0.00     0.037 A 
HETATM   13  C   UNL     1      25.281  49.857  48.211  1.00  0.00     0.068 A 
HETATM   14  C   UNL     1      24.735  48.751  48.871  1.00  0.00     0.046 A 
BRANCH  13  15
HETATM   15  O   UNL     1      24.374  50.602  47.512  1.00  0.00    -0.356 OA
HETATM   16  C   UNL     1      22.998  50.308  47.724  1.00  0.00     0.210 C 
ENDBRANCH  13  15
ENDBRANCH   7   9
ENDBRANCH   1   7
BRANCH   4  17
HETATM   17  C   UNL     1      28.228  43.717  52.247  1.00  0.00     0.153 A 
HETATM   18  N   UNL     1      28.760  44.329  53.308  1.00  0.00    -0.335 N 
HETATM   19  H   UNL     1      28.660  45.343  53.388  1.00  0.00     0.168 HD
HETATM   20  C   UNL     1      29.388  43.480  54.202  1.00  0.00     0.051 A 
HETATM   21  C   UNL     1      29.343  42.168  53.774  1.00  0.00     0.083 A 
HETATM   22  S   UNL     1      28.486  42.010  52.288  1.00  0.00    -0.063 SA
BRANCH  20  23
HETATM   23  C   UNL     1      30.016  43.936  55.440  1.00  0.00    -0.006 A 
HETATM   24  C   UNL     1      30.958  43.150  56.115  1.00  0.00     0.033 A 
HETATM   25  C   UNL     1      31.510  43.632  57.292  1.00  0.00     0.117 A 
HETATM   26  N   UNL     1      31.184  44.821  57.832  1.00  0.00    -0.273 NA
HETATM   27  C   UNL     1      30.277  45.568  57.177  1.00  0.00     0.117 A 
HETATM   28  C   UNL     1      29.673  45.175  55.992  1.00  0.00     0.033 A 
ENDBRANCH  20  23
ENDBRANCH   4  17
TORSDOF 5
ENDMDL
MODEL 2
REMARK VINA RESULT:      -8.7      2.674      8.538
REMARK  5 active torsions:
REMARK  status: ('A' for Active; 'I' for Inactive)
REMARK    1  A    between atoms: O_2  and  C_3 
REMARK    2  A    between atoms: C_7  and  C_9 
REMARK    3  A    between atoms: C_9  and  N_11 
REMARK       I    between atoms: N_11  and  C_12 
REMARK       I    between atoms: C_12  and  N_14 
REMARK    4  A    between atoms: N_14  and  C_15 
REMARK    5  A    between atoms: C_18  and  C_21 
ROOT
HETATM    1  N   UNL     1      27.104  43.368  52.979  1.00  0.00    -0.335 N 
HETATM    2  C   UNL     1      26.648  43.955  51.852  1.00  0.00     0.322 C 
HETATM    3  O   UNL     1      27.212  44.127  50.788  1.00  0.00    -0.247 OA
HETATM    4  N   UNL     1      25.339  44.407  52.032  1.00  0.00    -0.289 N 
HETATM    5  H   UNL     1      26.531  43.303  53.808  1.00  0.00     0.165 HD
HETATM    6  H   UNL     1      24.829  44.339  52.896  1.00  0.00     0.172 HD
ENDROOT
BRANCH   1   7
HETATM    7  C   UNL     1      28.476  42.893  53.119  1.00  0.00     0.115 C 
HETATM    8  C   UNL     1      28.553  41.374  53.289  1.00  0.00     0.037 C 
BRANCH   7   9
HETATM    9  C   UNL     1      29.117  43.634  54.278  1.00  0.00    -0.033 A 
HETATM   10  C   UNL     1      30.327  43.186  54.822  1.00  0.00     0.009 A 
HETATM   11  C   UNL     1      30.948  43.901  55.847  1.00  0.00     0.003 A 
HETATM   12  C   UNL     1      30.376  45.078  56.338  1.00  0.00     0.037 A 
HETATM   13  C   UNL     1      29.176  45.543  55.806  1.00  0.00     0.068 A 
HETATM   14  C   UNL     1      28.555  44.819  54.784  1.00  0.00     0.046 A 
BRANCH  13  15
HETATM   15  O   UNL     1      28.514  46.681  56.174  1.00  0.00    -0.356 OA
HETATM   16  C   UNL     1      27.652  47.267  55.205  1.00  0.00     0.210 C 
ENDBRANCH  13  15
ENDBRANCH   7   9
ENDBRANCH   1   7
BRANCH   4  17
HETATM   17  C   UNL     1      24.672  45.002  51.058  1.00  0.00     0.153 A 
HETATM   18  N   UNL     1      24.812  46.267  50.655  1.00  0.00    -0.335 N 
HETATM   19  H   UNL     1      25.498  46.859  51.130  1.00  0.00     0.168 HD
HETATM   20  C   UNL     1      23.992  46.624  49.599  1.00  0.00     0.051 A 
HETATM   21  C   UNL     1      23.181  45.578  49.210  1.00  0.00     0.083 A 
HETATM   22  S   UNL     1      23.481  44.157  50.136  1.00  0.00    -0.063 SA
BRANCH  20  23
HETATM   23  C   UNL     1      23.999  47.951  48.988  1.00  0.00    -0.006 A 
HETATM   24  C   UNL     1      22.855  48.482  48.380  1.00  0.00     0.033 A 
HETATM   25  C   UNL     1      22.928  49.742  47.806  1.00  0.00     0.117 A 
HETATM   26  N   UNL     1      24.047  50.489  47.793  1.00  0.00    -0.273 NA
HETATM   27  C   UNL     1      25.141  49.969  48.379  1.00  0.00     0.117 A 
HETATM   28  C   UNL     1      25.168  48.721  48.983  1.00  0.00     0.033 A 
ENDBRANCH  20  23
ENDBRANCH   4  17
TORSDOF 5
ENDMDL
MODEL 3
REMARK VINA RESULT:      -8.4      2.631      9.068
REMARK  5 active torsions:
REMARK  status: ('A' for Active; 'I' for Inactive)
REMARK    1  A    between atoms: O_2  and  C_3 
REMARK    2  A    between atoms: C_7  and  C_9 
REMARK    3  A    between atoms: C_9  and  N_11 
REMARK       I    between atoms: N_11  and  C_12 
REMARK       I    between atoms: C_12  and  N_14 
REMARK    4  A    between atoms: N_14  and  C_15 
REMARK    5  A    between atoms: C_18  and  C_21 
ROOT
HETATM    1  N   UNL     1      26.997  43.884  53.186  1.00  0.00    -0.335 N 
HETATM    2  C   UNL     1      26.583  44.423  52.019  1.00  0.00     0.322 C 
HETATM    3  O   UNL     1      27.218  44.655  51.007  1.00  0.00    -0.247 OA
HETATM    4  N   UNL     1      25.223  44.733  52.078  1.00  0.00    -0.289 N 
HETATM    5  H   UNL     1      26.362  43.758  53.961  1.00  0.00     0.165 HD
HETATM    6  H   UNL     1      24.648  44.610  52.894  1.00  0.00     0.172 HD
ENDROOT
BRANCH   1   7
HETATM    7  C   UNL     1      28.393  43.557  53.450  1.00  0.00     0.115 C 
HETATM    8  C   UNL     1      28.603  42.064  53.713  1.00  0.00     0.037 C 
BRANCH   7   9
HETATM    9  C   UNL     1      28.869  44.416  54.607  1.00  0.00    -0.033 A 
HETATM   10  C   UNL     1      28.114  45.518  55.028  1.00  0.00     0.009 A 
HETATM   11  C   UNL     1      28.520  46.272  56.130  1.00  0.00     0.003 A 
HETATM   12  C   UNL     1      29.679  45.933  56.833  1.00  0.00     0.037 A 
HETATM   13  C   UNL     1      30.441  44.838  56.433  1.00  0.00     0.068 A 
HETATM   14  C   UNL     1      30.034  44.091  55.324  1.00  0.00     0.046 A 
BRANCH  13  15
HETATM   15  O   UNL     1      31.582  44.383  57.033  1.00  0.00    -0.356 OA
HETATM   16  C   UNL     1      31.729  42.972  57.151  1.00  0.00     0.210 C 
ENDBRANCH  13  15
ENDBRANCH   7   9
ENDBRANCH   1   7
BRANCH   4  17
HETATM   17  C   UNL     1      24.586  45.256  51.045  1.00  0.00     0.153 A 
HETATM   18  N   UNL     1      24.647  46.524  50.631  1.00  0.00    -0.335 N 
HETATM   19  H   UNL     1      25.239  47.179  51.147  1.00  0.00     0.168 HD
HETATM   20  C   UNL     1      23.886  46.796  49.507  1.00  0.00     0.051 A 
HETATM   21  C   UNL     1      23.203  45.677  49.075  1.00  0.00     0.083 A 
HETATM   22  S   UNL     1      23.551  44.299  50.048  1.00  0.00    -0.063 SA
BRANCH  20  23
HETATM   23  C   UNL     1      23.826  48.111  48.875  1.00  0.00    -0.006 A 
HETATM   24  C   UNL     1      24.945  48.952  48.830  1.00  0.00     0.033 A 
HETATM   25  C   UNL     1      24.823  50.195  48.227  1.00  0.00     0.117 A 
HETATM   26  N   UNL     1      23.678  50.646  47.682  1.00  0.00    -0.273 NA
HETATM   27  C   UNL     1      22.609  49.831  47.731  1.00  0.00     0.117 A 
HETATM   28  C   UNL     1      22.632  48.570  48.308  1.00  0.00     0.033 A 
ENDBRANCH  20  23
ENDBRANCH   4  17
TORSDOF 5
ENDMDL
MODEL 4
REMARK VINA RESULT:      -8.2      0.984      2.092
REMARK  5 active torsions:
REMARK  status: ('A' for Active; 'I' for Inactive)
REMARK    1  A    between atoms: O_2  and  C_3 
REMARK    2  A    between atoms: C_7  and  C_9 
REMARK    3  A    between atoms: C_9  and  N_11 
REMARK       I    between atoms: N_11  and  C_12 
REMARK       I    between atoms: C_12  and  N_14 
REMARK    4  A    between atoms: N_14  and  C_15 
REMARK    5  A    between atoms: C_18  and  C_21 
ROOT
HETATM    1  N   UNL     1      25.361  45.512  50.027  1.00  0.00    -0.335 N 
HETATM    2  C   UNL     1      25.832  44.899  51.134  1.00  0.00     0.322 C 
HETATM    3  O   UNL     1      25.265  44.651  52.181  1.00  0.00    -0.247 OA
HETATM    4  N   UNL     1      27.172  44.544  50.963  1.00  0.00    -0.289 N 
HETATM    5  H   UNL     1      25.950  45.671  49.222  1.00  0.00     0.165 HD
HETATM    6  H   UNL     1      27.715  44.757  50.144  1.00  0.00     0.172 HD
ENDROOT
BRANCH   1   7
HETATM    7  C   UNL     1      24.022  46.085  49.956  1.00  0.00     0.115 C 
HETATM    8  C   UNL     1      23.055  45.209  49.155  1.00  0.00     0.037 C 
BRANCH   7   9
HETATM    9  C   UNL     1      24.137  47.486  49.383  1.00  0.00    -0.033 A 
HETATM   10  C   UNL     1      22.986  48.230  49.095  1.00  0.00     0.009 A 
HETATM   11  C   UNL     1      23.092  49.540  48.625  1.00  0.00     0.003 A 
HETATM   12  C   UNL     1      24.346  50.130  48.445  1.00  0.00     0.037 A 
HETATM   13  C   UNL     1      25.502  49.409  48.731  1.00  0.00     0.068 A 
HETATM   14  C   UNL     1      25.390  48.094  49.194  1.00  0.00     0.046 A 
BRANCH  13  15
HETATM   15  O   UNL     1      26.787  49.861  48.619  1.00  0.00    -0.356 OA
HETATM   16  C   UNL     1      27.806  49.057  49.203  1.00  0.00     0.210 C 
ENDBRANCH  13  15
ENDBRANCH   7   9
ENDBRANCH   1   7
BRANCH   4  17
HETATM   17  C   UNL     1      27.848  43.913  51.908  1.00  0.00     0.153 A 
HETATM   18  N   UNL     1      28.427  44.466  52.976  1.00  0.00    -0.335 N 
HETATM   19  H   UNL     1      28.358  45.479  53.101  1.00  0.00     0.168 HD
HETATM   20  C   UNL     1      29.058  43.565  53.815  1.00  0.00     0.051 A 
HETATM   21  C   UNL     1      28.965  42.274  53.335  1.00  0.00     0.083 A 
HETATM   22  S   UNL     1      28.059  42.200  51.872  1.00  0.00    -0.063 SA
BRANCH  20  23
HETATM   23  C   UNL     1      29.735  43.952  55.050  1.00  0.00    -0.006 A 
HETATM   24  C   UNL     1      29.465  45.174  55.679  1.00  0.00     0.033 A 
HETATM   25  C   UNL     1      30.149  45.492  56.843  1.00  0.00     0.117 A 
HETATM   26  N   UNL     1      31.071  44.689  57.405  1.00  0.00    -0.273 NA
HETATM   27  C   UNL     1      31.324  43.518  56.792  1.00  0.00     0.117 A 
HETATM   28  C   UNL     1      30.690  43.109  55.629  1.00  0.00     0.033 A 
ENDBRANCH  20  23
ENDBRANCH   4  17
TORSDOF 5
ENDMDL
MODEL 5
REMARK VINA RESULT:      -8.1      2.973      9.504
REMARK  5 active torsions:
REMARK  status: ('A' for Active; 'I' for Inactive)
REMARK    1  A    between atoms: O_2  and  C_3 
REMARK    2  A    between atoms: C_7  and  C_9 
REMARK    3  A    between atoms: C_9  and  N_11 
REMARK       I    between atoms: N_11  and  C_12 
REMARK       I    between atoms: C_12  and  N_14 
REMARK    4  A    between atoms: N_14  and  C_15 
REMARK    5  A    between atoms: C_18  and  C_21 
ROOT
HETATM    1  N   UNL     1      26.765  45.335  51.512  1.00  0.00    -0.335 N 
HETATM    2  C   UNL     1      26.200  45.969  50.462  1.00  0.00     0.322 C 
HETATM    3  O   UNL     1      25.882  45.530  49.374  1.00  0.00    -0.247 OA
HETATM    4  N   UNL     1      25.999  47.319  50.758  1.00  0.00    -0.289 N 
HETATM    5  H   UNL     1      26.995  45.828  52.363  1.00  0.00     0.165 HD
HETATM    6  H   UNL     1      26.277  47.760  51.618  1.00  0.00     0.172 HD
ENDROOT
BRANCH   1   7
HETATM    7  C   UNL     1      27.185  43.940  51.454  1.00  0.00     0.115 C 
HETATM    8  C   UNL     1      26.005  42.971  51.554  1.00  0.00     0.037 C 
BRANCH   7   9
HETATM    9  C   UNL     1      28.212  43.710  52.548  1.00  0.00    -0.033 A 
HETATM   10  C   UNL     1      29.248  42.786  52.364  1.00  0.00     0.009 A 
HETATM   11  C   UNL     1      30.227  42.618  53.345  1.00  0.00     0.003 A 
HETATM   12  C   UNL     1      30.191  43.376  54.519  1.00  0.00     0.037 A 
HETATM   13  C   UNL     1      29.172  44.303  54.719  1.00  0.00     0.068 A 
HETATM   14  C   UNL     1      28.191  44.462  53.736  1.00  0.00     0.046 A 
BRANCH  13  15
HETATM   15  O   UNL     1      29.022  45.121  55.804  1.00  0.00    -0.356 OA
HETATM   16  C   UNL     1      30.211  45.644  56.386  1.00  0.00     0.210 C 
ENDBRANCH  13  15
ENDBRANCH   7   9
ENDBRANCH   1   7
BRANCH   4  17
HETATM   17  C   UNL     1      25.440  48.143  49.888  1.00  0.00     0.153 A 
HETATM   18  N   UNL     1      24.133  48.350  49.713  1.00  0.00    -0.335 N 
HETATM   19  H   UNL     1      23.473  47.830  50.297  1.00  0.00     0.168 HD
HETATM   20  C   UNL     1      23.827  49.283  48.738  1.00  0.00     0.051 A 
HETATM   21  C   UNL     1      24.965  49.782  48.138  1.00  0.00     0.083 A 
HETATM   22  S   UNL     1      26.396  49.111  48.825  1.00  0.00    -0.063 SA
BRANCH  20  23
HETATM   23  C   UNL     1      22.461  49.676  48.401  1.00  0.00    -0.006 A 
HETATM   24  C   UNL     1      21.589  48.800  47.742  1.00  0.00     0.033 A 
HETATM   25  C   UNL     1      20.309  49.235  47.438  1.00  0.00     0.117 A 
HETATM   26  N   UNL     1      19.852  50.465  47.736  1.00  0.00    -0.273 NA
HETATM   27  C   UNL     1      20.697  51.299  48.368  1.00  0.00     0.117 A 
HETATM   28  C   UNL     1      21.994  50.956  48.719  1.00  0.00     0.033 A 
ENDBRANCH  20  23
ENDBRANCH   4  17
TORSDOF 5
ENDMDL
MODEL 6
REMARK VINA RESULT:      -8.1      2.439      3.634
REMARK  5 active torsions:
REMARK  status: ('A' for Active; 'I' for Inactive)
REMARK    1  A    between atoms: O_2  and  C_3 
REMARK    2  A    between atoms: C_7  and  C_9 
REMARK    3  A    between atoms: C_9  and  N_11 
REMARK       I    between atoms: N_11  and  C_12 
REMARK       I    between atoms: C_12  and  N_14 
REMARK    4  A    between atoms: N_14  and  C_15 
REMARK    5  A    between atoms: C_18  and  C_21 
ROOT
HETATM    1  N   UNL     1      24.291  47.957  50.282  1.00  0.00    -0.335 N 
HETATM    2  C   UNL     1      25.192  46.987  50.546  1.00  0.00     0.322 C 
HETATM    3  O   UNL     1      26.062  46.526  49.832  1.00  0.00    -0.247 OA
HETATM    4  N   UNL     1      25.018  46.497  51.841  1.00  0.00    -0.289 N 
HETATM    5  H   UNL     1      23.604  48.239  50.968  1.00  0.00     0.165 HD
HETATM    6  H   UNL     1      24.293  46.799  52.470  1.00  0.00     0.172 HD
ENDROOT
BRANCH   1   7
HETATM    7  C   UNL     1      24.169  48.582  48.970  1.00  0.00     0.115 C 
HETATM    8  C   UNL     1      25.308  49.563  48.682  1.00  0.00     0.037 C 
BRANCH   7   9
HETATM    9  C   UNL     1      22.806  49.244  48.887  1.00  0.00    -0.033 A 
HETATM   10  C   UNL     1      22.700  50.616  48.625  1.00  0.00     0.009 A 
HETATM   11  C   UNL     1      21.446  51.213  48.488  1.00  0.00     0.003 A 
HETATM   12  C   UNL     1      20.280  50.450  48.601  1.00  0.00     0.037 A 
HETATM   13  C   UNL     1      20.364  49.084  48.856  1.00  0.00     0.068 A 
HETATM   14  C   UNL     1      21.623  48.492  48.999  1.00  0.00     0.046 A 
BRANCH  13  15
HETATM   15  O   UNL     1      19.315  48.216  48.974  1.00  0.00    -0.356 OA
HETATM   16  C   UNL     1      18.030  48.785  49.197  1.00  0.00     0.210 C 
ENDBRANCH  13  15
ENDBRANCH   7   9
ENDBRANCH   1   7
BRANCH   4  17
HETATM   17  C   UNL     1      25.797  45.550  52.335  1.00  0.00     0.153 A 
HETATM   18  N   UNL     1      26.861  45.725  53.122  1.00  0.00    -0.335 N 
HETATM   19  H   UNL     1      27.123  46.678  53.385  1.00  0.00     0.168 HD
HETATM   20  C   UNL     1      27.487  44.552  53.506  1.00  0.00     0.051 A 
HETATM   21  C   UNL     1      26.871  43.446  52.957  1.00  0.00     0.083 A 
HETATM   22  S   UNL     1      25.502  43.881  52.008  1.00  0.00    -0.063 SA
BRANCH  20  23
HETATM   23  C   UNL     1      28.655  44.513  54.383  1.00  0.00    -0.006 A 
HETATM   24  C   UNL     1      29.535  43.424  54.381  1.00  0.00     0.033 A 
HETATM   25  C   UNL     1      30.619  43.439  55.245  1.00  0.00     0.117 A 
HETATM   26  N   UNL     1      30.873  44.447  56.099  1.00  0.00    -0.273 NA
HETATM   27  C   UNL     1      30.021  45.488  56.095  1.00  0.00     0.117 A 
HETATM   28  C   UNL     1      28.913  45.568  55.265  1.00  0.00     0.033 A 
ENDBRANCH  20  23
ENDBRANCH   4  17
TORSDOF 5
ENDMDL
MODEL 7
REMARK VINA RESULT:      -8.0      3.558      5.800
REMARK  5 active torsions:
REMARK  status: ('A' for Active; 'I' for Inactive)
REMARK    1  A    between atoms: O_2  and  C_3 
REMARK    2  A    between atoms: C_7  and  C_9 
REMARK    3  A    between atoms: C_9  and  N_11 
REMARK       I    between atoms: N_11  and  C_12 
REMARK       I    between atoms: C_12  and  N_14 
REMARK    4  A    between atoms: N_14  and  C_15 
REMARK    5  A    between atoms: C_18  and  C_21 
ROOT
HETATM    1  N   UNL     1      22.167  48.691  48.587  1.00  0.00    -0.335 N 
HETATM    2  C   UNL     1      23.311  48.352  49.219  1.00  0.00     0.322 C 
HETATM    3  O   UNL     1      24.290  49.031  49.462  1.00  0.00    -0.247 OA
HETATM    4  N   UNL     1      23.278  47.010  49.604  1.00  0.00    -0.289 N 
HETATM    5  H   UNL     1      21.430  48.018  48.436  1.00  0.00     0.165 HD
HETATM    6  H   UNL     1      22.522  46.379  49.398  1.00  0.00     0.172 HD
ENDROOT
BRANCH   1   7
HETATM    7  C   UNL     1      21.962  50.003  47.983  1.00  0.00     0.115 C 
HETATM    8  C   UNL     1      23.198  50.898  48.098  1.00  0.00     0.037 C 
BRANCH   7   9
HETATM    9  C   UNL     1      20.736  50.630  48.621  1.00  0.00    -0.033 A 
HETATM   10  C   UNL     1      20.282  51.886  48.198  1.00  0.00     0.009 A 
HETATM   11  C   UNL     1      19.120  52.436  48.741  1.00  0.00     0.003 A 
HETATM   12  C   UNL     1      18.390  51.739  49.708  1.00  0.00     0.037 A 
HETATM   13  C   UNL     1      18.823  50.488  50.139  1.00  0.00     0.068 A 
HETATM   14  C   UNL     1      19.991  49.944  49.596  1.00  0.00     0.046 A 
BRANCH  13  15
HETATM   15  O   UNL     1      18.204  49.689  51.060  1.00  0.00    -0.356 OA
HETATM   16  C   UNL     1      18.693  48.360  51.193  1.00  0.00     0.210 C 
ENDBRANCH  13  15
ENDBRANCH   7   9
ENDBRANCH   1   7
BRANCH   4  17
HETATM   17  C   UNL     1      24.282  46.451  50.257  1.00  0.00     0.153 A 
HETATM   18  N   UNL     1      24.754  46.814  51.452  1.00  0.00    -0.335 N 
HETATM   19  H   UNL     1      24.314  47.602  51.933  1.00  0.00     0.168 HD
HETATM   20  C   UNL     1      25.808  46.041  51.909  1.00  0.00     0.051 A 
HETATM   21  C   UNL     1      26.154  45.065  50.996  1.00  0.00     0.083 A 
HETATM   22  S   UNL     1      25.138  45.101  49.606  1.00  0.00    -0.063 SA
BRANCH  20  23
HETATM   23  C   UNL     1      26.459  46.251  53.199  1.00  0.00    -0.006 A 
HETATM   24  C   UNL     1      26.215  47.399  53.964  1.00  0.00     0.033 A 
HETATM   25  C   UNL     1      26.872  47.546  55.175  1.00  0.00     0.117 A 
HETATM   26  N   UNL     1      27.745  46.645  55.661  1.00  0.00    -0.273 NA
HETATM   27  C   UNL     1      27.973  45.546  54.919  1.00  0.00     0.117 A 
HETATM   28  C   UNL     1      27.362  45.305  53.698  1.00  0.00     0.033 A 
ENDBRANCH  20  23
ENDBRANCH   4  17
TORSDOF 5
ENDMDL
MODEL 8
REMARK VINA RESULT:      -7.8      3.151      9.087
REMARK  5 active torsions:
REMARK  status: ('A' for Active; 'I' for Inactive)
REMARK    1  A    between atoms: O_2  and  C_3 
REMARK    2  A    between atoms: C_7  and  C_9 
REMARK    3  A    between atoms: C_9  and  N_11 
REMARK       I    between atoms: N_11  and  C_12 
REMARK       I    between atoms: C_12  and  N_14 
REMARK    4  A    between atoms: N_14  and  C_15 
REMARK    5  A    between atoms: C_18  and  C_21 
ROOT
HETATM    1  N   UNL     1      27.081  43.493  52.967  1.00  0.00    -0.335 N 
HETATM    2  C   UNL     1      26.688  44.138  51.847  1.00  0.00     0.322 C 
HETATM    3  O   UNL     1      27.276  44.281  50.792  1.00  0.00    -0.247 OA
HETATM    4  N   UNL     1      25.420  44.695  52.023  1.00  0.00    -0.289 N 
HETATM    5  H   UNL     1      26.495  43.462  53.789  1.00  0.00     0.165 HD
HETATM    6  H   UNL     1      24.897  44.655  52.881  1.00  0.00     0.172 HD
ENDROOT
BRANCH   1   7
HETATM    7  C   UNL     1      28.406  42.901  53.110  1.00  0.00     0.115 C 
HETATM    8  C   UNL     1      28.351  41.380  53.276  1.00  0.00     0.037 C 
BRANCH   7   9
HETATM    9  C   UNL     1      29.104  43.581  54.273  1.00  0.00    -0.033 A 
HETATM   10  C   UNL     1      30.309  43.071  54.772  1.00  0.00     0.009 A 
HETATM   11  C   UNL     1      30.983  43.731  55.801  1.00  0.00     0.003 A 
HETATM   12  C   UNL     1      30.469  44.913  56.341  1.00  0.00     0.037 A 
HETATM   13  C   UNL     1      29.275  45.439  55.856  1.00  0.00     0.068 A 
HETATM   14  C   UNL     1      28.601  44.770  54.829  1.00  0.00     0.046 A 
BRANCH  13  15
HETATM   15  O   UNL     1      28.667  46.590  56.275  1.00  0.00    -0.356 OA
HETATM   16  C   UNL     1      27.675  47.142  55.418  1.00  0.00     0.210 C 
ENDBRANCH  13  15
ENDBRANCH   7   9
ENDBRANCH   1   7
BRANCH   4  17
HETATM   17  C   UNL     1      24.816  45.363  51.055  1.00  0.00     0.153 A 
HETATM   18  N   UNL     1      24.000  44.856  50.128  1.00  0.00    -0.335 N 
HETATM   19  H   UNL     1      23.806  43.852  50.144  1.00  0.00     0.168 HD
HETATM   20  C   UNL     1      23.493  45.789  49.241  1.00  0.00     0.051 A 
HETATM   21  C   UNL     1      23.975  47.055  49.507  1.00  0.00     0.083 A 
HETATM   22  S   UNL     1      25.017  47.068  50.878  1.00  0.00    -0.063 SA
BRANCH  20  23
HETATM   23  C   UNL     1      22.565  45.454  48.164  1.00  0.00    -0.006 A 
HETATM   24  C   UNL     1      22.209  44.128  47.892  1.00  0.00     0.033 A 
HETATM   25  C   UNL     1      21.334  43.872  46.848  1.00  0.00     0.117 A 
HETATM   26  N   UNL     1      20.806  44.834  46.069  1.00  0.00    -0.273 NA
HETATM   27  C   UNL     1      21.155  46.105  46.337  1.00  0.00     0.117 A 
HETATM   28  C   UNL     1      22.019  46.462  47.362  1.00  0.00     0.033 A 
ENDBRANCH  20  23
ENDBRANCH   4  17
TORSDOF 5
ENDMDL
MODEL 9
REMARK VINA RESULT:      -7.6      2.305      3.220
REMARK  5 active torsions:
REMARK  status: ('A' for Active; 'I' for Inactive)
REMARK    1  A    between atoms: O_2  and  C_3 
REMARK    2  A    between atoms: C_7  and  C_9 
REMARK    3  A    between atoms: C_9  and  N_11 
REMARK       I    between atoms: N_11  and  C_12 
REMARK       I    between atoms: C_12  and  N_14 
REMARK    4  A    between atoms: N_14  and  C_15 
REMARK    5  A    between atoms: C_18  and  C_21 
ROOT
HETATM    1  N   UNL     1      23.752  46.141  48.650  1.00  0.00    -0.335 N 
HETATM    2  C   UNL     1      24.342  45.361  49.581  1.00  0.00     0.322 C 
HETATM    3  O   UNL     1      23.916  44.986  50.657  1.00  0.00    -0.247 OA
HETATM    4  N   UNL     1      25.622  44.988  49.166  1.00  0.00    -0.289 N 
HETATM    5  H   UNL     1      24.228  46.392  47.795  1.00  0.00     0.165 HD
HETATM    6  H   UNL     1      26.054  45.296  48.312  1.00  0.00     0.172 HD
ENDROOT
BRANCH   1   7
HETATM    7  C   UNL     1      22.449  46.764  48.856  1.00  0.00     0.115 C 
HETATM    8  C   UNL     1      21.426  46.340  47.800  1.00  0.00     0.037 C 
BRANCH   7   9
HETATM    9  C   UNL     1      22.646  48.268  48.895  1.00  0.00    -0.033 A 
HETATM   10  C   UNL     1      23.861  48.834  48.491  1.00  0.00     0.009 A 
HETATM   11  C   UNL     1      24.022  50.220  48.468  1.00  0.00     0.003 A 
HETATM   12  C   UNL     1      22.970  51.062  48.840  1.00  0.00     0.037 A 
HETATM   13  C   UNL     1      21.752  50.519  49.240  1.00  0.00     0.068 A 
HETATM   14  C   UNL     1      21.599  49.129  49.267  1.00  0.00     0.046 A 
BRANCH  13  15
HETATM   15  O   UNL     1      20.637  51.217  49.611  1.00  0.00    -0.356 OA
HETATM   16  C   UNL     1      19.908  51.865  48.575  1.00  0.00     0.210 C 
ENDBRANCH  13  15
ENDBRANCH   7   9
ENDBRANCH   1   7
BRANCH   4  17
HETATM   17  C   UNL     1      26.390  44.207  49.906  1.00  0.00     0.153 A 
HETATM   18  N   UNL     1      27.046  44.555  51.015  1.00  0.00    -0.335 N 
HETATM   19  H   UNL     1      26.965  45.519  51.349  1.00  0.00     0.168 HD
HETATM   20  C   UNL     1      27.767  43.529  51.600  1.00  0.00     0.051 A 
HETATM   21  C   UNL     1      27.661  42.359  50.875  1.00  0.00     0.083 A 
HETATM   22  S   UNL     1      26.636  42.546  49.504  1.00  0.00    -0.063 SA
BRANCH  20  23
HETATM   23  C   UNL     1      28.538  43.686  52.831  1.00  0.00    -0.006 A 
HETATM   24  C   UNL     1      29.713  42.958  53.055  1.00  0.00     0.033 A 
HETATM   25  C   UNL     1      30.394  43.141  54.248  1.00  0.00     0.117 A 
HETATM   26  N   UNL     1      29.984  43.982  55.216  1.00  0.00    -0.273 NA
HETATM   27  C   UNL     1      28.853  44.675  54.991  1.00  0.00     0.117 A 
HETATM   28  C   UNL     1      28.105  44.565  53.829  1.00  0.00     0.033 A 
ENDBRANCH  20  23
ENDBRANCH   4  17
TORSDOF 5
ENDMDL
MODEL 10
REMARK VINA RESULT:      -7.5      2.953      9.317
REMARK  5 active torsions:
REMARK  status: ('A' for Active; 'I' for Inactive)
REMARK    1  A    between atoms: O_2  and  C_3 
REMARK    2  A    between atoms: C_7  and  C_9 
REMARK    3  A    between atoms: C_9  and  N_11 
REMARK       I    between atoms: N_11  and  C_12 
REMARK       I    between atoms: C_12  and  N_14 
REMARK    4  A    between atoms: N_14  and  C_15 
REMARK    5  A    between atoms: C_18  and  C_21 
ROOT
HETATM    1  N   UNL     1      26.736  45.127  52.736  1.00  0.00    -0.335 N 
HETATM    2  C   UNL     1      25.730  45.766  52.102  1.00  0.00     0.322 C 
HETATM    3  O   UNL     1      25.039  46.690  52.484  1.00  0.00    -0.247 OA
HETATM    4  N   UNL     1      25.519  45.210  50.838  1.00  0.00    -0.289 N 
HETATM    5  H   UNL     1      27.224  44.355  52.306  1.00  0.00     0.165 HD
HETATM    6  H   UNL     1      26.021  44.418  50.475  1.00  0.00     0.172 HD
ENDROOT
BRANCH   1   7
HETATM    7  C   UNL     1      27.111  45.425  54.114  1.00  0.00     0.115 C 
HETATM    8  C   UNL     1      27.277  46.926  54.362  1.00  0.00     0.037 C 
BRANCH   7   9
HETATM    9  C   UNL     1      28.373  44.646  54.439  1.00  0.00    -0.033 A 
HETATM   10  C   UNL     1      28.846  43.665  53.559  1.00  0.00     0.009 A 
HETATM   11  C   UNL     1      30.038  42.991  53.827  1.00  0.00     0.003 A 
HETATM   12  C   UNL     1      30.780  43.293  54.972  1.00  0.00     0.037 A 
HETATM   13  C   UNL     1      30.330  44.268  55.857  1.00  0.00     0.068 A 
HETATM   14  C   UNL     1      29.131  44.935  55.587  1.00  0.00     0.046 A 
BRANCH  13  15
HETATM   15  O   UNL     1      30.958  44.676  57.001  1.00  0.00    -0.356 OA
HETATM   16  C   UNL     1      30.484  45.876  57.603  1.00  0.00     0.210 C 
ENDBRANCH  13  15
ENDBRANCH   7   9
ENDBRANCH   1   7
BRANCH   4  17
HETATM   17  C   UNL     1      24.594  45.681  50.019  1.00  0.00     0.153 A 
HETATM   18  N   UNL     1      24.132  46.933  49.976  1.00  0.00    -0.335 N 
HETATM   19  H   UNL     1      24.515  47.618  50.632  1.00  0.00     0.168 HD
HETATM   20  C   UNL     1      23.171  47.155  49.006  1.00  0.00     0.051 A 
HETATM   21  C   UNL     1      22.884  46.002  48.304  1.00  0.00     0.083 A 
HETATM   22  S   UNL     1      23.843  44.674  48.836  1.00  0.00    -0.063 SA
BRANCH  20  23
HETATM   23  C   UNL     1      22.549  48.456  48.771  1.00  0.00    -0.006 A 
HETATM   24  C   UNL     1      23.030  49.618  49.388  1.00  0.00     0.033 A 
HETATM   25  C   UNL     1      22.391  50.821  49.136  1.00  0.00     0.117 A 
HETATM   26  N   UNL     1      21.319  50.938  48.330  1.00  0.00    -0.273 NA
HETATM   27  C   UNL     1      20.864  49.816  47.744  1.00  0.00     0.117 A 
HETATM   28  C   UNL     1      21.438  48.567  47.929  1.00  0.00     0.033 A 
ENDBRANCH  20  23
ENDBRANCH   4  17
TORSDOF 5
ENDMDL
