MODEL 1
REMARK VINA RESULT:      -9.2      0.000      0.000
REMARK  10 active torsions:
REMARK  status: ('A' for Active; 'I' for Inactive)
REMARK    1  A    between atoms: C_2  and  C_3 
REMARK    2  A    between atoms: C_3  and  C_4 
REMARK    3  A    between atoms: C_4  and  O_5 
REMARK    4  A    between atoms: O_5  and  C_6 
REMARK    5  A    between atoms: C_8  and  C_9 
REMARK       I    between atoms: C_9  and  N_10 
REMARK    6  A    between atoms: N_10  and  C_11 
REMARK    7  A    between atoms: C_11  and  N_12 
REMARK    8  A    between atoms: N_12  and  C_13 
REMARK    9  A    between atoms: C_15  and  O_16 
REMARK   10  A    between atoms: C_17  and  C_18 
ROOT
HETATM    1  N   UNL     1      26.660  42.497  51.319  1.00  0.00    -0.333 N 
HETATM    2  H   UNL     1      25.938  41.809  51.522  1.00  0.00     0.168 HD
ENDROOT
BRANCH   1   3
HETATM    3  C   UNL     1      27.895  41.916  51.210  1.00  0.00     0.179 C 
HETATM    4  S   UNL     1      28.081  40.762  50.011  1.00  0.00    -0.040 SA
BRANCH   3   5
HETATM    5  N   UNL     1      28.839  42.268  52.142  1.00  0.00    -0.299 N 
HETATM    6  C   UNL     1      28.737  42.089  53.516  1.00  0.00     0.257 C 
HETATM    7  O   UNL     1      28.356  41.049  54.043  1.00  0.00    -0.267 OA
HETATM    8  H   UNL     1      29.451  43.004  51.818  1.00  0.00     0.171 HD
BRANCH   6   9
HETATM    9  C   UNL     1      29.336  43.154  54.359  1.00  0.00     0.035 A 
HETATM   10  C   UNL     1      28.855  44.467  54.328  1.00  0.00     0.053 A 
HETATM   11  C   UNL     1      29.428  45.447  55.146  1.00  0.00     0.069 A 
HETATM   12  C   UNL     1      30.479  45.103  55.997  1.00  0.00     0.037 A 
HETATM   13  C   UNL     1      30.946  43.788  56.045  1.00  0.00     0.004 A 
HETATM   14  C   UNL     1      30.373  42.812  55.232  1.00  0.00     0.017 A 
BRANCH  11  15
HETATM   15  O   UNL     1      28.844  46.677  55.040  1.00  0.00    -0.351 OA
BRANCH  15  16
HETATM   16  C   UNL     1      27.570  46.895  55.640  1.00  0.00     0.175 C 
BRANCH  16  17
HETATM   17  C   UNL     1      26.538  47.505  54.687  1.00  0.00     0.026 C 
BRANCH  17  18
HETATM   18  C   UNL     1      25.932  46.518  53.686  1.00  0.00    -0.002 C 
HETATM   19  C   UNL     1      25.363  45.263  54.332  1.00  0.00     0.005 C 
ENDBRANCH  17  18
ENDBRANCH  16  17
ENDBRANCH  15  16
ENDBRANCH  11  15
ENDBRANCH   6   9
ENDBRANCH   3   5
ENDBRANCH   1   3
BRANCH   1  20
HETATM   20  C   UNL     1      26.176  43.772  50.950  1.00  0.00     0.036 A 
HETATM   21  C   UNL     1      26.937  44.777  50.351  1.00  0.00     0.067 A 
HETATM   22  C   UNL     1      26.334  45.974  49.923  1.00  0.00     0.082 A 
HETATM   23  C   UNL     1      24.953  46.188  50.060  1.00  0.00     0.050 A 
HETATM   24  C   UNL     1      24.205  45.174  50.682  1.00  0.00     0.021 A 
HETATM   25  C   UNL     1      24.805  43.988  51.121  1.00  0.00     0.030 A 
BRANCH  22  26
HETATM   26  O   UNL     1      27.126  46.924  49.335  1.00  0.00    -0.360 OA
HETATM   27  H   UNL     1      28.027  46.880  49.692  1.00  0.00     0.217 HD
ENDBRANCH  22  26
BRANCH  23  28
HETATM   28  C   UNL     1      24.224  47.350  49.539  1.00  0.00     0.183 A 
HETATM   29  O   UNL     1      22.996  47.138  48.964  1.00  0.00    -0.289 OA
HETATM   30  C   UNL     1      22.540  48.389  48.677  1.00  0.00     0.106 A 
HETATM   31  C   UNL     1      23.509  49.295  49.071  1.00  0.00     0.093 A 
HETATM   32  C   UNL     1      21.321  48.732  48.106  1.00  0.00     0.040 A 
HETATM   33  N   UNL     1      24.582  48.624  49.600  1.00  0.00    -0.221 NA
HETATM   34  C   UNL     1      23.268  50.664  48.900  1.00  0.00     0.034 A 
HETATM   35  C   UNL     1      22.044  51.054  48.335  1.00  0.00     0.002 A 
HETATM   36  C   UNL     1      21.090  50.104  47.945  1.00  0.00     0.003 A 
ENDBRANCH  23  28
ENDBRANCH   1  20
TORSDOF 10
ENDMDL
MODEL 2
REMARK VINA RESULT:      -9.1      2.399      9.691
REMARK  10 active torsions:
REMARK  status: ('A' for Active; 'I' for Inactive)
REMARK    1  A    between atoms: C_2  and  C_3 
REMARK    2  A    between atoms: C_3  and  C_4 
REMARK    3  A    between atoms: C_4  and  O_5 
REMARK    4  A    between atoms: O_5  and  C_6 
REMARK    5  A    between atoms: C_8  and  C_9 
REMARK       I    between atoms: C_9  and  N_10 
REMARK    6  A    between atoms: N_10  and  C_11 
REMARK    7  A    between atoms: C_11  and  N_12 
REMARK    8  A    between atoms: N_12  and  C_13 
REMARK    9  A    between atoms: C_15  and  O_16 
REMARK   10  A    between atoms: C_17  and  C_18 
ROOT
HETATM    1  N   UNL     1      24.119  45.544  51.088  1.00  0.00    -0.333 N 
HETATM    2  H   UNL     1      23.329  46.085  51.435  1.00  0.00     0.168 HD
ENDROOT
BRANCH   1   3
HETATM    3  C   UNL     1      24.143  45.507  49.719  1.00  0.00     0.179 C 
HETATM    4  S   UNL     1      24.592  44.057  49.014  1.00  0.00    -0.040 SA
BRANCH   3   5
HETATM    5  N   UNL     1      23.880  46.678  49.054  1.00  0.00    -0.299 N 
HETATM    6  C   UNL     1      24.160  47.959  49.514  1.00  0.00     0.257 C 
HETATM    7  O   UNL     1      25.229  48.286  50.019  1.00  0.00    -0.267 OA
HETATM    8  H   UNL     1      23.133  46.585  48.380  1.00  0.00     0.171 HD
BRANCH   6   9
HETATM    9  C   UNL     1      23.172  49.010  49.160  1.00  0.00     0.035 A 
HETATM   10  C   UNL     1      21.796  48.785  49.267  1.00  0.00     0.053 A 
HETATM   11  C   UNL     1      20.889  49.799  48.942  1.00  0.00     0.069 A 
HETATM   12  C   UNL     1      21.367  51.039  48.516  1.00  0.00     0.037 A 
HETATM   13  C   UNL     1      22.742  51.273  48.430  1.00  0.00     0.004 A 
HETATM   14  C   UNL     1      23.644  50.263  48.757  1.00  0.00     0.017 A 
BRANCH  11  15
HETATM   15  O   UNL     1      19.578  49.457  49.120  1.00  0.00    -0.351 OA
BRANCH  15  16
HETATM   16  C   UNL     1      18.844  50.054  50.186  1.00  0.00     0.175 C 
BRANCH  16  17
HETATM   17  C   UNL     1      17.639  50.874  49.717  1.00  0.00     0.026 C 
BRANCH  17  18
HETATM   18  C   UNL     1      17.870  52.386  49.683  1.00  0.00    -0.002 C 
HETATM   19  C   UNL     1      16.613  53.205  49.940  1.00  0.00     0.005 C 
ENDBRANCH  17  18
ENDBRANCH  16  17
ENDBRANCH  15  16
ENDBRANCH  11  15
ENDBRANCH   6   9
ENDBRANCH   3   5
ENDBRANCH   1   3
BRANCH   1  20
HETATM   20  C   UNL     1      25.088  45.219  52.062  1.00  0.00     0.036 A 
HETATM   21  C   UNL     1      25.522  43.927  52.364  1.00  0.00     0.067 A 
HETATM   22  C   UNL     1      26.572  43.718  53.276  1.00  0.00     0.082 A 
HETATM   23  C   UNL     1      27.230  44.793  53.893  1.00  0.00     0.050 A 
HETATM   24  C   UNL     1      26.769  46.086  53.594  1.00  0.00     0.021 A 
HETATM   25  C   UNL     1      25.715  46.295  52.696  1.00  0.00     0.030 A 
BRANCH  22  26
HETATM   26  O   UNL     1      26.963  42.430  53.529  1.00  0.00    -0.360 OA
HETATM   27  H   UNL     1      26.232  41.926  53.920  1.00  0.00     0.217 HD
ENDBRANCH  22  26
BRANCH  23  28
HETATM   28  C   UNL     1      28.406  44.674  54.764  1.00  0.00     0.183 A 
HETATM   29  O   UNL     1      28.517  45.542  55.822  1.00  0.00    -0.289 OA
HETATM   30  C   UNL     1      29.634  45.125  56.481  1.00  0.00     0.106 A 
HETATM   31  C   UNL     1      30.154  44.044  55.793  1.00  0.00     0.093 A 
HETATM   32  C   UNL     1      30.172  45.655  57.647  1.00  0.00     0.040 A 
HETATM   33  N   UNL     1      29.378  43.777  54.694  1.00  0.00    -0.221 NA
HETATM   34  C   UNL     1      31.304  43.414  56.287  1.00  0.00     0.034 A 
HETATM   35  C   UNL     1      31.874  43.913  57.468  1.00  0.00     0.002 A 
HETATM   36  C   UNL     1      31.318  45.013  58.133  1.00  0.00     0.003 A 
ENDBRANCH  23  28
ENDBRANCH   1  20
TORSDOF 10
ENDMDL
MODEL 3
REMARK VINA RESULT:      -9.0      1.496      3.063
REMARK  10 active torsions:
REMARK  status: ('A' for Active; 'I' for Inactive)
REMARK    1  A    between atoms: C_2  and  C_3 
REMARK    2  A    between atoms: C_3  and  C_4 
REMARK    3  A    between atoms: C_4  and  O_5 
REMARK    4  A    between atoms: O_5  and  C_6 
REMARK    5  A    between atoms: C_8  and  C_9 
REMARK       I    between atoms: C_9  and  N_10 
REMARK    6  A    between atoms: N_10  and  C_11 
REMARK    7  A    between atoms: C_11  and  N_12 
REMARK    8  A    between atoms: N_12  and  C_13 
REMARK    9  A    between atoms: C_15  and  O_16 
REMARK   10  A    between atoms: C_17  and  C_18 
ROOT
HETATM    1  N   UNL     1      26.888  43.824  50.221  1.00  0.00    -0.333 N 
HETATM    2  H   UNL     1      27.587  43.706  49.492  1.00  0.00     0.168 HD
ENDROOT
BRANCH   1   3
HETATM    3  C   UNL     1      27.106  42.975  51.273  1.00  0.00     0.179 C 
HETATM    4  S   UNL     1      27.149  41.338  50.921  1.00  0.00    -0.040 SA
BRANCH   3   5
HETATM    5  N   UNL     1      27.186  43.531  52.525  1.00  0.00    -0.299 N 
HETATM    6  C   UNL     1      26.167  44.208  53.183  1.00  0.00     0.257 C 
HETATM    7  O   UNL     1      25.009  43.808  53.247  1.00  0.00    -0.267 OA
HETATM    8  H   UNL     1      28.134  43.752  52.794  1.00  0.00     0.171 HD
BRANCH   6   9
HETATM    9  C   UNL     1      26.585  45.358  54.024  1.00  0.00     0.035 A 
HETATM   10  C   UNL     1      27.528  45.210  55.047  1.00  0.00     0.053 A 
HETATM   11  C   UNL     1      27.916  46.315  55.812  1.00  0.00     0.069 A 
HETATM   12  C   UNL     1      27.361  47.567  55.544  1.00  0.00     0.037 A 
HETATM   13  C   UNL     1      26.436  47.721  54.508  1.00  0.00     0.004 A 
HETATM   14  C   UNL     1      26.053  46.620  53.745  1.00  0.00     0.017 A 
BRANCH  11  15
HETATM   15  O   UNL     1      28.863  46.038  56.757  1.00  0.00    -0.351 OA
BRANCH  15  16
HETATM   16  C   UNL     1      30.190  45.729  56.338  1.00  0.00     0.175 C 
BRANCH  16  17
HETATM   17  C   UNL     1      30.899  44.718  57.244  1.00  0.00     0.026 C 
BRANCH  17  18
HETATM   18  C   UNL     1      31.269  43.399  56.561  1.00  0.00    -0.002 C 
HETATM   19  C   UNL     1      30.582  43.189  55.219  1.00  0.00     0.005 C 
ENDBRANCH  17  18
ENDBRANCH  16  17
ENDBRANCH  15  16
ENDBRANCH  11  15
ENDBRANCH   6   9
ENDBRANCH   3   5
ENDBRANCH   1   3
BRANCH   1  20
HETATM   20  C   UNL     1      26.074  44.971  50.082  1.00  0.00     0.036 A 
HETATM   21  C   UNL     1      26.532  46.289  50.111  1.00  0.00     0.067 A 
HETATM   22  C   UNL     1      25.655  47.358  49.853  1.00  0.00     0.082 A 
HETATM   23  C   UNL     1      24.304  47.138  49.538  1.00  0.00     0.050 A 
HETATM   24  C   UNL     1      23.856  45.807  49.533  1.00  0.00     0.021 A 
HETATM   25  C   UNL     1      24.724  44.742  49.801  1.00  0.00     0.030 A 
BRANCH  22  26
HETATM   26  O   UNL     1      26.159  48.631  49.887  1.00  0.00    -0.360 OA
HETATM   27  H   UNL     1      27.115  48.612  50.052  1.00  0.00     0.217 HD
ENDBRANCH  22  26
BRANCH  23  28
HETATM   28  C   UNL     1      23.350  48.180  49.144  1.00  0.00     0.183 A 
HETATM   29  O   UNL     1      22.294  47.820  48.344  1.00  0.00    -0.289 OA
HETATM   30  C   UNL     1      21.551  48.958  48.237  1.00  0.00     0.106 A 
HETATM   31  C   UNL     1      22.192  49.951  48.955  1.00  0.00     0.093 A 
HETATM   32  C   UNL     1      20.354  49.122  47.552  1.00  0.00     0.040 A 
HETATM   33  N   UNL     1      23.343  49.453  49.511  1.00  0.00    -0.221 NA
HETATM   34  C   UNL     1      21.611  51.225  49.020  1.00  0.00     0.034 A 
HETATM   35  C   UNL     1      20.396  51.431  48.349  1.00  0.00     0.002 A 
HETATM   36  C   UNL     1      19.781  50.398  47.629  1.00  0.00     0.003 A 
ENDBRANCH  23  28
ENDBRANCH   1  20
TORSDOF 10
ENDMDL
MODEL 4
REMARK VINA RESULT:      -9.0      2.564      9.674
REMARK  10 active torsions:
REMARK  status: ('A' for Active; 'I' for Inactive)
REMARK    1  A    between atoms: C_2  and  C_3 
REMARK    2  A    between atoms: C_3  and  C_4 
REMARK    3  A    between atoms: C_4  and  O_5 
REMARK    4  A    between atoms: O_5  and  C_6 
REMARK    5  A    between atoms: C_8  and  C_9 
REMARK       I    between atoms: C_9  and  N_10 
REMARK    6  A    between atoms: N_10  and  C_11 
REMARK    7  A    between atoms: C_11  and  N_12 
REMARK    8  A    between atoms: N_12  and  C_13 
REMARK    9  A    between atoms: C_15  and  O_16 
REMARK   10  A    between atoms: C_17  and  C_18 
ROOT
HETATM    1  N   UNL     1      24.179  45.650  51.130  1.00  0.00    -0.333 N 
HETATM    2  H   UNL     1      23.287  45.947  51.519  1.00  0.00     0.168 HD
ENDROOT
BRANCH   1   3
HETATM    3  C   UNL     1      24.129  45.559  49.765  1.00  0.00     0.179 C 
HETATM    4  S   UNL     1      24.571  44.091  49.092  1.00  0.00    -0.040 SA
BRANCH   3   5
HETATM    5  N   UNL     1      23.804  46.697  49.071  1.00  0.00    -0.299 N 
HETATM    6  C   UNL     1      24.135  47.997  49.433  1.00  0.00     0.257 C 
HETATM    7  O   UNL     1      25.252  48.339  49.808  1.00  0.00    -0.267 OA
HETATM    8  H   UNL     1      22.992  46.576  48.482  1.00  0.00     0.171 HD
BRANCH   6   9
HETATM    9  C   UNL     1      23.121  49.037  49.128  1.00  0.00     0.035 A 
HETATM   10  C   UNL     1      21.751  48.766  49.201  1.00  0.00     0.053 A 
HETATM   11  C   UNL     1      20.818  49.771  48.925  1.00  0.00     0.069 A 
HETATM   12  C   UNL     1      21.264  51.048  48.581  1.00  0.00     0.037 A 
HETATM   13  C   UNL     1      22.632  51.326  48.529  1.00  0.00     0.004 A 
HETATM   14  C   UNL     1      23.560  50.325  48.807  1.00  0.00     0.017 A 
BRANCH  11  15
HETATM   15  O   UNL     1      19.516  49.380  49.062  1.00  0.00    -0.351 OA
BRANCH  15  16
HETATM   16  C   UNL     1      18.759  49.866  50.168  1.00  0.00     0.175 C 
BRANCH  16  17
HETATM   17  C   UNL     1      17.604  50.786  49.763  1.00  0.00     0.026 C 
BRANCH  17  18
HETATM   18  C   UNL     1      17.934  52.281  49.803  1.00  0.00    -0.002 C 
HETATM   19  C   UNL     1      16.706  53.178  49.854  1.00  0.00     0.005 C 
ENDBRANCH  17  18
ENDBRANCH  16  17
ENDBRANCH  15  16
ENDBRANCH  11  15
ENDBRANCH   6   9
ENDBRANCH   3   5
ENDBRANCH   1   3
BRANCH   1  20
HETATM   20  C   UNL     1      25.259  45.673  52.040  1.00  0.00     0.036 A 
HETATM   21  C   UNL     1      25.652  46.780  52.793  1.00  0.00     0.067 A 
HETATM   22  C   UNL     1      26.674  46.668  53.754  1.00  0.00     0.082 A 
HETATM   23  C   UNL     1      27.315  45.444  54.002  1.00  0.00     0.050 A 
HETATM   24  C   UNL     1      26.921  44.344  53.221  1.00  0.00     0.021 A 
HETATM   25  C   UNL     1      25.913  44.456  52.257  1.00  0.00     0.030 A 
BRANCH  22  26
HETATM   26  O   UNL     1      27.014  47.785  54.470  1.00  0.00    -0.360 OA
HETATM   27  H   UNL     1      27.347  48.478  53.878  1.00  0.00     0.217 HD
ENDBRANCH  22  26
BRANCH  23  28
HETATM   28  C   UNL     1      28.305  45.210  55.059  1.00  0.00     0.183 A 
HETATM   29  O   UNL     1      29.198  44.180  54.892  1.00  0.00    -0.289 OA
HETATM   30  C   UNL     1      30.029  44.279  55.967  1.00  0.00     0.106 A 
HETATM   31  C   UNL     1      29.598  45.343  56.739  1.00  0.00     0.093 A 
HETATM   32  C   UNL     1      31.129  43.483  56.259  1.00  0.00     0.040 A 
HETATM   33  N   UNL     1      28.492  45.916  56.164  1.00  0.00    -0.221 NA
HETATM   34  C   UNL     1      30.308  45.669  57.902  1.00  0.00     0.034 A 
HETATM   35  C   UNL     1      31.432  44.896  58.228  1.00  0.00     0.002 A 
HETATM   36  C   UNL     1      31.833  43.823  57.421  1.00  0.00     0.003 A 
ENDBRANCH  23  28
ENDBRANCH   1  20
TORSDOF 10
ENDMDL
MODEL 5
REMARK VINA RESULT:      -8.9      2.765     10.163
REMARK  10 active torsions:
REMARK  status: ('A' for Active; 'I' for Inactive)
REMARK    1  A    between atoms: C_2  and  C_3 
REMARK    2  A    between atoms: C_3  and  C_4 
REMARK    3  A    between atoms: C_4  and  O_5 
REMARK    4  A    between atoms: O_5  and  C_6 
REMARK    5  A    between atoms: C_8  and  C_9 
REMARK       I    between atoms: C_9  and  N_10 
REMARK    6  A    between atoms: N_10  and  C_11 
REMARK    7  A    between atoms: C_11  and  N_12 
REMARK    8  A    between atoms: N_12  and  C_13 
REMARK    9  A    between atoms: C_15  and  O_16 
REMARK   10  A    between atoms: C_17  and  C_18 
ROOT
HETATM    1  N   UNL     1      24.657  47.245  51.054  1.00  0.00    -0.333 N 
HETATM    2  H   UNL     1      23.719  47.496  51.360  1.00  0.00     0.168 HD
ENDROOT
BRANCH   1   3
HETATM    3  C   UNL     1      24.955  47.793  49.836  1.00  0.00     0.179 C 
HETATM    4  S   UNL     1      26.568  48.131  49.537  1.00  0.00    -0.040 SA
BRANCH   3   5
HETATM    5  N   UNL     1      23.904  48.092  49.007  1.00  0.00    -0.299 N 
HETATM    6  C   UNL     1      22.799  48.868  49.337  1.00  0.00     0.257 C 
HETATM    7  O   UNL     1      22.869  49.945  49.921  1.00  0.00    -0.267 OA
HETATM    8  H   UNL     1      23.785  47.416  48.266  1.00  0.00     0.171 HD
BRANCH   6   9
HETATM    9  C   UNL     1      21.505  48.445  48.745  1.00  0.00     0.035 A 
HETATM   10  C   UNL     1      20.283  48.855  49.289  1.00  0.00     0.053 A 
HETATM   11  C   UNL     1      19.079  48.455  48.699  1.00  0.00     0.069 A 
HETATM   12  C   UNL     1      19.106  47.649  47.561  1.00  0.00     0.037 A 
HETATM   13  C   UNL     1      20.325  47.257  47.003  1.00  0.00     0.004 A 
HETATM   14  C   UNL     1      21.523  47.658  47.590  1.00  0.00     0.017 A 
BRANCH  11  15
HETATM   15  O   UNL     1      17.964  48.950  49.313  1.00  0.00    -0.351 OA
BRANCH  15  16
HETATM   16  C   UNL     1      17.292  50.067  48.735  1.00  0.00     0.175 C 
BRANCH  16  17
HETATM   17  C   UNL     1      17.285  51.309  49.631  1.00  0.00     0.026 C 
BRANCH  17  18
HETATM   18  C   UNL     1      18.636  52.019  49.748  1.00  0.00    -0.002 C 
HETATM   19  C   UNL     1      19.266  52.363  48.406  1.00  0.00     0.005 C 
ENDBRANCH  17  18
ENDBRANCH  16  17
ENDBRANCH  15  16
ENDBRANCH  11  15
ENDBRANCH   6   9
ENDBRANCH   3   5
ENDBRANCH   1   3
BRANCH   1  20
HETATM   20  C   UNL     1      25.464  46.648  52.049  1.00  0.00     0.036 A 
HETATM   21  C   UNL     1      26.001  45.362  51.982  1.00  0.00     0.067 A 
HETATM   22  C   UNL     1      26.884  44.901  52.977  1.00  0.00     0.082 A 
HETATM   23  C   UNL     1      27.268  45.720  54.050  1.00  0.00     0.050 A 
HETATM   24  C   UNL     1      26.703  47.004  54.113  1.00  0.00     0.021 A 
HETATM   25  C   UNL     1      25.816  47.460  53.131  1.00  0.00     0.030 A 
BRANCH  22  26
HETATM   26  O   UNL     1      27.387  43.633  52.858  1.00  0.00    -0.360 OA
HETATM   27  H   UNL     1      28.353  43.642  52.952  1.00  0.00     0.217 HD
ENDBRANCH  22  26
BRANCH  23  28
HETATM   28  C   UNL     1      28.267  45.365  55.065  1.00  0.00     0.183 A 
HETATM   29  O   UNL     1      29.125  44.328  54.793  1.00  0.00    -0.289 OA
HETATM   30  C   UNL     1      29.976  44.308  55.857  1.00  0.00     0.106 A 
HETATM   31  C   UNL     1      29.591  45.314  56.725  1.00  0.00     0.093 A 
HETATM   32  C   UNL     1      31.055  43.458  56.058  1.00  0.00     0.040 A 
HETATM   33  N   UNL     1      28.495  45.967  56.223  1.00  0.00    -0.221 NA
HETATM   34  C   UNL     1      30.330  45.516  57.899  1.00  0.00     0.034 A 
HETATM   35  C   UNL     1      31.434  44.684  58.136  1.00  0.00     0.002 A 
HETATM   36  C   UNL     1      31.788  43.674  57.232  1.00  0.00     0.003 A 
ENDBRANCH  23  28
ENDBRANCH   1  20
TORSDOF 10
ENDMDL
MODEL 6
REMARK VINA RESULT:      -8.9      2.307      8.879
REMARK  10 active torsions:
REMARK  status: ('A' for Active; 'I' for Inactive)
REMARK    1  A    between atoms: C_2  and  C_3 
REMARK    2  A    between atoms: C_3  and  C_4 
REMARK    3  A    between atoms: C_4  and  O_5 
REMARK    4  A    between atoms: O_5  and  C_6 
REMARK    5  A    between atoms: C_8  and  C_9 
REMARK       I    between atoms: C_9  and  N_10 
REMARK    6  A    between atoms: N_10  and  C_11 
REMARK    7  A    between atoms: C_11  and  N_12 
REMARK    8  A    between atoms: N_12  and  C_13 
REMARK    9  A    between atoms: C_15  and  O_16 
REMARK   10  A    between atoms: C_17  and  C_18 
ROOT
HETATM    1  N   UNL     1      23.879  44.159  49.740  1.00  0.00    -0.333 N 
HETATM    2  H   UNL     1      23.343  43.299  49.832  1.00  0.00     0.168 HD
ENDROOT
BRANCH   1   3
HETATM    3  C   UNL     1      23.327  45.002  48.813  1.00  0.00     0.179 C 
HETATM    4  S   UNL     1      23.205  44.422  47.247  1.00  0.00    -0.040 SA
BRANCH   3   5
HETATM    5  N   UNL     1      23.002  46.268  49.230  1.00  0.00    -0.299 N 
HETATM    6  C   UNL     1      21.952  47.041  48.750  1.00  0.00     0.257 C 
HETATM    7  O   UNL     1      20.813  46.618  48.583  1.00  0.00    -0.267 OA
HETATM    8  H   UNL     1      23.787  46.759  49.635  1.00  0.00     0.171 HD
BRANCH   6   9
HETATM    9  C   UNL     1      22.206  48.500  48.655  1.00  0.00     0.035 A 
HETATM   10  C   UNL     1      23.448  49.000  48.249  1.00  0.00     0.053 A 
HETATM   11  C   UNL     1      23.654  50.381  48.151  1.00  0.00     0.069 A 
HETATM   12  C   UNL     1      22.610  51.255  48.457  1.00  0.00     0.037 A 
HETATM   13  C   UNL     1      21.363  50.757  48.840  1.00  0.00     0.004 A 
HETATM   14  C   UNL     1      21.158  49.382  48.934  1.00  0.00     0.017 A 
BRANCH  11  15
HETATM   15  O   UNL     1      24.900  50.732  47.716  1.00  0.00    -0.351 OA
BRANCH  15  16
HETATM   16  C   UNL     1      25.927  49.744  47.683  1.00  0.00     0.175 C 
BRANCH  16  17
HETATM   17  C   UNL     1      27.030  49.969  48.721  1.00  0.00     0.026 C 
BRANCH  17  18
HETATM   18  C   UNL     1      27.568  48.691  49.368  1.00  0.00    -0.002 C 
HETATM   19  C   UNL     1      26.490  47.825  50.004  1.00  0.00     0.005 C 
ENDBRANCH  17  18
ENDBRANCH  16  17
ENDBRANCH  15  16
ENDBRANCH  11  15
ENDBRANCH   6   9
ENDBRANCH   3   5
ENDBRANCH   1   3
BRANCH   1  20
HETATM   20  C   UNL     1      24.852  44.360  50.745  1.00  0.00     0.036 A 
HETATM   21  C   UNL     1      24.581  44.737  52.061  1.00  0.00     0.067 A 
HETATM   22  C   UNL     1      25.613  44.805  53.014  1.00  0.00     0.082 A 
HETATM   23  C   UNL     1      26.938  44.478  52.683  1.00  0.00     0.050 A 
HETATM   24  C   UNL     1      27.197  44.120  51.350  1.00  0.00     0.021 A 
HETATM   25  C   UNL     1      26.173  44.063  50.397  1.00  0.00     0.030 A 
BRANCH  22  26
HETATM   26  O   UNL     1      25.290  45.173  54.293  1.00  0.00    -0.360 OA
HETATM   27  H   UNL     1      26.021  45.667  54.698  1.00  0.00     0.217 HD
ENDBRANCH  22  26
BRANCH  23  28
HETATM   28  C   UNL     1      28.052  44.409  53.635  1.00  0.00     0.183 A 
HETATM   29  O   UNL     1      28.176  45.416  54.560  1.00  0.00    -0.289 OA
HETATM   30  C   UNL     1      29.219  45.026  55.344  1.00  0.00     0.106 A 
HETATM   31  C   UNL     1      29.688  43.819  54.856  1.00  0.00     0.093 A 
HETATM   32  C   UNL     1      29.736  45.686  56.451  1.00  0.00     0.040 A 
HETATM   33  N   UNL     1      28.953  43.445  53.760  1.00  0.00    -0.221 NA
HETATM   34  C   UNL     1      30.757  43.191  55.509  1.00  0.00     0.034 A 
HETATM   35  C   UNL     1      31.301  43.821  56.639  1.00  0.00     0.002 A 
HETATM   36  C   UNL     1      30.800  45.045  57.099  1.00  0.00     0.003 A 
ENDBRANCH  23  28
ENDBRANCH   1  20
TORSDOF 10
ENDMDL
MODEL 7
REMARK VINA RESULT:      -8.7      2.641     10.203
REMARK  10 active torsions:
REMARK  status: ('A' for Active; 'I' for Inactive)
REMARK    1  A    between atoms: C_2  and  C_3 
REMARK    2  A    between atoms: C_3  and  C_4 
REMARK    3  A    between atoms: C_4  and  O_5 
REMARK    4  A    between atoms: O_5  and  C_6 
REMARK    5  A    between atoms: C_8  and  C_9 
REMARK       I    between atoms: C_9  and  N_10 
REMARK    6  A    between atoms: N_10  and  C_11 
REMARK    7  A    between atoms: C_11  and  N_12 
REMARK    8  A    between atoms: N_12  and  C_13 
REMARK    9  A    between atoms: C_15  and  O_16 
REMARK   10  A    between atoms: C_17  and  C_18 
ROOT
HETATM    1  N   UNL     1      24.318  46.834  51.154  1.00  0.00    -0.333 N 
HETATM    2  H   UNL     1      23.364  46.877  51.507  1.00  0.00     0.168 HD
ENDROOT
BRANCH   1   3
HETATM    3  C   UNL     1      24.466  47.567  50.007  1.00  0.00     0.179 C 
HETATM    4  S   UNL     1      26.025  48.021  49.600  1.00  0.00    -0.040 SA
BRANCH   3   5
HETATM    5  N   UNL     1      23.322  47.932  49.343  1.00  0.00    -0.299 N 
HETATM    6  C   UNL     1      23.128  49.116  48.642  1.00  0.00     0.257 C 
HETATM    7  O   UNL     1      23.941  49.584  47.852  1.00  0.00    -0.267 OA
HETATM    8  H   UNL     1      22.498  47.469  49.701  1.00  0.00     0.171 HD
BRANCH   6   9
HETATM    9  C   UNL     1      21.765  49.700  48.712  1.00  0.00     0.035 A 
HETATM   10  C   UNL     1      20.662  48.936  49.109  1.00  0.00     0.053 A 
HETATM   11  C   UNL     1      19.392  49.518  49.183  1.00  0.00     0.069 A 
HETATM   12  C   UNL     1      19.234  50.867  48.863  1.00  0.00     0.037 A 
HETATM   13  C   UNL     1      20.338  51.637  48.487  1.00  0.00     0.004 A 
HETATM   14  C   UNL     1      21.603  51.057  48.417  1.00  0.00     0.017 A 
BRANCH  11  15
HETATM   15  O   UNL     1      18.411  48.670  49.612  1.00  0.00    -0.351 OA
BRANCH  15  16
HETATM   16  C   UNL     1      17.233  48.518  48.825  1.00  0.00     0.175 C 
BRANCH  16  17
HETATM   17  C   UNL     1      16.929  47.065  48.449  1.00  0.00     0.026 C 
BRANCH  17  18
HETATM   18  C   UNL     1      18.160  46.228  48.089  1.00  0.00    -0.002 C 
HETATM   19  C   UNL     1      18.758  46.572  46.732  1.00  0.00     0.005 C 
ENDBRANCH  17  18
ENDBRANCH  16  17
ENDBRANCH  15  16
ENDBRANCH  11  15
ENDBRANCH   6   9
ENDBRANCH   3   5
ENDBRANCH   1   3
BRANCH   1  20
HETATM   20  C   UNL     1      25.257  46.276  52.051  1.00  0.00     0.036 A 
HETATM   21  C   UNL     1      25.798  44.994  51.952  1.00  0.00     0.067 A 
HETATM   22  C   UNL     1      26.809  44.572  52.835  1.00  0.00     0.082 A 
HETATM   23  C   UNL     1      27.321  45.428  53.823  1.00  0.00     0.050 A 
HETATM   24  C   UNL     1      26.752  46.708  53.922  1.00  0.00     0.021 A 
HETATM   25  C   UNL     1      25.737  47.125  53.053  1.00  0.00     0.030 A 
BRANCH  22  26
HETATM   26  O   UNL     1      27.310  43.306  52.688  1.00  0.00    -0.360 OA
HETATM   27  H   UNL     1      26.644  42.723  52.289  1.00  0.00     0.217 HD
ENDBRANCH  22  26
BRANCH  23  28
HETATM   28  C   UNL     1      28.450  45.114  54.707  1.00  0.00     0.183 A 
HETATM   29  O   UNL     1      28.616  45.874  55.838  1.00  0.00    -0.289 OA
HETATM   30  C   UNL     1      29.663  45.289  56.484  1.00  0.00     0.106 A 
HETATM   31  C   UNL     1      30.091  44.221  55.717  1.00  0.00     0.093 A 
HETATM   32  C   UNL     1      30.216  45.661  57.703  1.00  0.00     0.040 A 
HETATM   33  N   UNL     1      29.327  44.130  54.582  1.00  0.00    -0.221 NA
HETATM   34  C   UNL     1      31.154  43.435  56.181  1.00  0.00     0.034 A 
HETATM   35  C   UNL     1      31.735  43.771  57.414  1.00  0.00     0.002 A 
HETATM   36  C   UNL     1      31.274  44.865  58.158  1.00  0.00     0.003 A 
ENDBRANCH  23  28
ENDBRANCH   1  20
TORSDOF 10
ENDMDL
MODEL 8
REMARK VINA RESULT:      -8.4      2.919     10.097
REMARK  10 active torsions:
REMARK  status: ('A' for Active; 'I' for Inactive)
REMARK    1  A    between atoms: C_2  and  C_3 
REMARK    2  A    between atoms: C_3  and  C_4 
REMARK    3  A    between atoms: C_4  and  O_5 
REMARK    4  A    between atoms: O_5  and  C_6 
REMARK    5  A    between atoms: C_8  and  C_9 
REMARK       I    between atoms: C_9  and  N_10 
REMARK    6  A    between atoms: N_10  and  C_11 
REMARK    7  A    between atoms: C_11  and  N_12 
REMARK    8  A    between atoms: N_12  and  C_13 
REMARK    9  A    between atoms: C_15  and  O_16 
REMARK   10  A    between atoms: C_17  and  C_18 
ROOT
HETATM    1  N   UNL     1      24.708  46.242  49.606  1.00  0.00    -0.333 N 
HETATM    2  H   UNL     1      25.339  46.382  48.819  1.00  0.00     0.168 HD
ENDROOT
BRANCH   1   3
HETATM    3  C   UNL     1      23.405  46.145  49.197  1.00  0.00     0.179 C 
HETATM    4  S   UNL     1      22.694  44.633  49.302  1.00  0.00    -0.040 SA
BRANCH   3   5
HETATM    5  N   UNL     1      22.828  47.270  48.663  1.00  0.00    -0.299 N 
HETATM    6  C   UNL     1      22.868  48.546  49.212  1.00  0.00     0.257 C 
HETATM    7  O   UNL     1      23.885  49.069  49.655  1.00  0.00    -0.267 OA
HETATM    8  H   UNL     1      22.057  47.059  48.046  1.00  0.00     0.171 HD
BRANCH   6   9
HETATM    9  C   UNL     1      21.645  49.370  49.035  1.00  0.00     0.035 A 
HETATM   10  C   UNL     1      20.367  48.817  49.161  1.00  0.00     0.053 A 
HETATM   11  C   UNL     1      19.232  49.621  49.006  1.00  0.00     0.069 A 
HETATM   12  C   UNL     1      19.385  50.980  48.730  1.00  0.00     0.037 A 
HETATM   13  C   UNL     1      20.662  51.539  48.626  1.00  0.00     0.004 A 
HETATM   14  C   UNL     1      21.790  50.738  48.783  1.00  0.00     0.017 A 
BRANCH  11  15
HETATM   15  O   UNL     1      18.050  48.961  49.184  1.00  0.00    -0.351 OA
BRANCH  15  16
HETATM   16  C   UNL     1      17.221  48.707  48.053  1.00  0.00     0.175 C 
BRANCH  16  17
HETATM   17  C   UNL     1      15.826  49.328  48.161  1.00  0.00     0.026 C 
BRANCH  17  18
HETATM   18  C   UNL     1      15.626  50.599  47.331  1.00  0.00    -0.002 C 
HETATM   19  C   UNL     1      15.803  51.884  48.127  1.00  0.00     0.005 C 
ENDBRANCH  17  18
ENDBRANCH  16  17
ENDBRANCH  15  16
ENDBRANCH  11  15
ENDBRANCH   6   9
ENDBRANCH   3   5
ENDBRANCH   1   3
BRANCH   1  20
HETATM   20  C   UNL     1      25.345  45.928  50.827  1.00  0.00     0.036 A 
HETATM   21  C   UNL     1      25.593  44.636  51.294  1.00  0.00     0.067 A 
HETATM   22  C   UNL     1      26.332  44.430  52.473  1.00  0.00     0.082 A 
HETATM   23  C   UNL     1      26.859  45.507  53.204  1.00  0.00     0.050 A 
HETATM   24  C   UNL     1      26.583  46.800  52.732  1.00  0.00     0.021 A 
HETATM   25  C   UNL     1      25.838  47.008  51.565  1.00  0.00     0.030 A 
BRANCH  22  26
HETATM   26  O   UNL     1      26.553  43.142  52.882  1.00  0.00    -0.360 OA
HETATM   27  H   UNL     1      26.424  43.064  53.840  1.00  0.00     0.217 HD
ENDBRANCH  22  26
BRANCH  23  28
HETATM   28  C   UNL     1      27.735  45.382  54.375  1.00  0.00     0.183 A 
HETATM   29  O   UNL     1      28.780  44.494  54.310  1.00  0.00    -0.289 OA
HETATM   30  C   UNL     1      29.449  44.676  55.482  1.00  0.00     0.106 A 
HETATM   31  C   UNL     1      28.779  45.645  56.207  1.00  0.00     0.093 A 
HETATM   32  C   UNL     1      30.608  44.035  55.900  1.00  0.00     0.040 A 
HETATM   33  N   UNL     1      27.682  46.073  55.504  1.00  0.00    -0.221 NA
HETATM   34  C   UNL     1      29.286  46.032  57.454  1.00  0.00     0.034 A 
HETATM   35  C   UNL     1      30.461  45.415  57.910  1.00  0.00     0.002 A 
HETATM   36  C   UNL     1      31.108  44.434  57.146  1.00  0.00     0.003 A 
ENDBRANCH  23  28
ENDBRANCH   1  20
TORSDOF 10
ENDMDL
MODEL 9
REMARK VINA RESULT:      -8.3      2.349      4.128
REMARK  10 active torsions:
REMARK  status: ('A' for Active; 'I' for Inactive)
REMARK    1  A    between atoms: C_2  and  C_3 
REMARK    2  A    between atoms: C_3  and  C_4 
REMARK    3  A    between atoms: C_4  and  O_5 
REMARK    4  A    between atoms: O_5  and  C_6 
REMARK    5  A    between atoms: C_8  and  C_9 
REMARK       I    between atoms: C_9  and  N_10 
REMARK    6  A    between atoms: N_10  and  C_11 
REMARK    7  A    between atoms: C_11  and  N_12 
REMARK    8  A    between atoms: N_12  and  C_13 
REMARK    9  A    between atoms: C_15  and  O_16 
REMARK   10  A    between atoms: C_17  and  C_18 
ROOT
HETATM    1  N   UNL     1      24.844  44.533  49.029  1.00  0.00    -0.333 N 
HETATM    2  H   UNL     1      25.611  44.610  48.365  1.00  0.00     0.168 HD
ENDROOT
BRANCH   1   3
HETATM    3  C   UNL     1      25.126  43.635  50.023  1.00  0.00     0.179 C 
HETATM    4  S   UNL     1      24.350  42.153  49.941  1.00  0.00    -0.040 SA
BRANCH   3   5
HETATM    5  N   UNL     1      25.950  44.056  51.037  1.00  0.00    -0.299 N 
HETATM    6  C   UNL     1      27.306  44.338  50.923  1.00  0.00     0.257 C 
HETATM    7  O   UNL     1      27.792  45.007  50.018  1.00  0.00    -0.267 OA
HETATM    8  H   UNL     1      25.610  43.794  51.951  1.00  0.00     0.171 HD
BRANCH   6   9
HETATM    9  C   UNL     1      28.146  43.977  52.093  1.00  0.00     0.035 A 
HETATM   10  C   UNL     1      28.061  44.681  53.299  1.00  0.00     0.053 A 
HETATM   11  C   UNL     1      28.853  44.308  54.390  1.00  0.00     0.069 A 
HETATM   12  C   UNL     1      29.726  43.226  54.268  1.00  0.00     0.037 A 
HETATM   13  C   UNL     1      29.797  42.508  53.071  1.00  0.00     0.004 A 
HETATM   14  C   UNL     1      29.005  42.879  51.987  1.00  0.00     0.017 A 
BRANCH  11  15
HETATM   15  O   UNL     1      28.649  45.058  55.513  1.00  0.00    -0.351 OA
BRANCH  15  16
HETATM   16  C   UNL     1      29.751  45.753  56.092  1.00  0.00     0.175 C 
BRANCH  16  17
HETATM   17  C   UNL     1      29.742  45.750  57.623  1.00  0.00     0.026 C 
BRANCH  17  18
HETATM   18  C   UNL     1      30.953  45.070  58.267  1.00  0.00    -0.002 C 
HETATM   19  C   UNL     1      31.419  43.822  57.531  1.00  0.00     0.005 C 
ENDBRANCH  17  18
ENDBRANCH  16  17
ENDBRANCH  15  16
ENDBRANCH  11  15
ENDBRANCH   6   9
ENDBRANCH   3   5
ENDBRANCH   1   3
BRANCH   1  20
HETATM   20  C   UNL     1      23.851  45.530  48.906  1.00  0.00     0.036 A 
HETATM   21  C   UNL     1      22.554  45.316  48.436  1.00  0.00     0.067 A 
HETATM   22  C   UNL     1      21.605  46.355  48.455  1.00  0.00     0.082 A 
HETATM   23  C   UNL     1      21.920  47.626  48.962  1.00  0.00     0.050 A 
HETATM   24  C   UNL     1      23.235  47.829  49.413  1.00  0.00     0.021 A 
HETATM   25  C   UNL     1      24.184  46.800  49.384  1.00  0.00     0.030 A 
BRANCH  22  26
HETATM   26  O   UNL     1      20.345  46.089  47.988  1.00  0.00    -0.360 OA
HETATM   27  H   UNL     1      19.704  46.108  48.717  1.00  0.00     0.217 HD
ENDBRANCH  22  26
BRANCH  23  28
HETATM   28  C   UNL     1      20.966  48.728  49.127  1.00  0.00     0.183 A 
HETATM   29  O   UNL     1      21.267  49.936  48.548  1.00  0.00    -0.289 OA
HETATM   30  C   UNL     1      20.169  50.706  48.788  1.00  0.00     0.106 A 
HETATM   31  C   UNL     1      19.266  49.944  49.508  1.00  0.00     0.093 A 
HETATM   32  C   UNL     1      19.953  52.017  48.384  1.00  0.00     0.040 A 
HETATM   33  N   UNL     1      19.789  48.696  49.735  1.00  0.00    -0.221 NA
HETATM   34  C   UNL     1      18.034  50.508  49.865  1.00  0.00     0.034 A 
HETATM   35  C   UNL     1      17.772  51.828  49.467  1.00  0.00     0.002 A 
HETATM   36  C   UNL     1      18.716  52.567  48.741  1.00  0.00     0.003 A 
ENDBRANCH  23  28
ENDBRANCH   1  20
TORSDOF 10
ENDMDL
MODEL 10
REMARK VINA RESULT:      -8.2      2.277      9.030
REMARK  10 active torsions:
REMARK  status: ('A' for Active; 'I' for Inactive)
REMARK    1  A    between atoms: C_2  and  C_3 
REMARK    2  A    between atoms: C_3  and  C_4 
REMARK    3  A    between atoms: C_4  and  O_5 
REMARK    4  A    between atoms: O_5  and  C_6 
REMARK    5  A    between atoms: C_8  and  C_9 
REMARK       I    between atoms: C_9  and  N_10 
REMARK    6  A    between atoms: N_10  and  C_11 
REMARK    7  A    between atoms: C_11  and  N_12 
REMARK    8  A    between atoms: N_12  and  C_13 
REMARK    9  A    between atoms: C_15  and  O_16 
REMARK   10  A    between atoms: C_17  and  C_18 
ROOT
HETATM    1  N   UNL     1      26.019  43.131  49.217  1.00  0.00    -0.333 N 
HETATM    2  H   UNL     1      26.592  43.080  48.378  1.00  0.00     0.168 HD
ENDROOT
BRANCH   1   3
HETATM    3  C   UNL     1      24.695  42.925  48.938  1.00  0.00     0.179 C 
HETATM    4  S   UNL     1      24.290  41.447  48.261  1.00  0.00    -0.040 SA
BRANCH   3   5
HETATM    5  N   UNL     1      23.835  43.971  49.158  1.00  0.00    -0.299 N 
HETATM    6  C   UNL     1      23.368  44.860  48.197  1.00  0.00     0.257 C 
HETATM    7  O   UNL     1      22.945  44.519  47.098  1.00  0.00    -0.267 OA
HETATM    8  H   UNL     1      23.850  44.295  50.115  1.00  0.00     0.171 HD
BRANCH   6   9
HETATM    9  C   UNL     1      23.185  46.264  48.643  1.00  0.00     0.035 A 
HETATM   10  C   UNL     1      22.002  46.965  48.384  1.00  0.00     0.053 A 
HETATM   11  C   UNL     1      21.850  48.281  48.831  1.00  0.00     0.069 A 
HETATM   12  C   UNL     1      22.885  48.890  49.542  1.00  0.00     0.037 A 
HETATM   13  C   UNL     1      24.058  48.184  49.821  1.00  0.00     0.004 A 
HETATM   14  C   UNL     1      24.207  46.872  49.378  1.00  0.00     0.017 A 
BRANCH  11  15
HETATM   15  O   UNL     1      20.637  48.837  48.536  1.00  0.00    -0.351 OA
BRANCH  15  16
HETATM   16  C   UNL     1      20.260  50.055  49.172  1.00  0.00     0.175 C 
BRANCH  16  17
HETATM   17  C   UNL     1      20.306  51.272  48.244  1.00  0.00     0.026 C 
BRANCH  17  18
HETATM   18  C   UNL     1      19.238  52.332  48.526  1.00  0.00    -0.002 C 
HETATM   19  C   UNL     1      18.395  52.039  49.759  1.00  0.00     0.005 C 
ENDBRANCH  17  18
ENDBRANCH  16  17
ENDBRANCH  15  16
ENDBRANCH  11  15
ENDBRANCH   6   9
ENDBRANCH   3   5
ENDBRANCH   1   3
BRANCH   1  20
HETATM   20  C   UNL     1      26.743  43.132  50.430  1.00  0.00     0.036 A 
HETATM   21  C   UNL     1      27.650  42.146  50.824  1.00  0.00     0.067 A 
HETATM   22  C   UNL     1      28.403  42.295  52.003  1.00  0.00     0.082 A 
HETATM   23  C   UNL     1      28.285  43.440  52.807  1.00  0.00     0.050 A 
HETATM   24  C   UNL     1      27.354  44.412  52.407  1.00  0.00     0.021 A 
HETATM   25  C   UNL     1      26.595  44.261  51.241  1.00  0.00     0.030 A 
BRANCH  22  26
HETATM   26  O   UNL     1      29.284  41.301  52.338  1.00  0.00    -0.360 OA
HETATM   27  H   UNL     1      28.936  40.437  52.070  1.00  0.00     0.217 HD
ENDBRANCH  22  26
BRANCH  23  28
HETATM   28  C   UNL     1      29.110  43.731  53.985  1.00  0.00     0.183 A 
HETATM   29  O   UNL     1      28.815  44.852  54.720  1.00  0.00    -0.289 OA
HETATM   30  C   UNL     1      29.671  44.795  55.778  1.00  0.00     0.106 A 
HETATM   31  C   UNL     1      30.451  43.662  55.632  1.00  0.00     0.093 A 
HETATM   32  C   UNL     1      29.762  45.687  56.840  1.00  0.00     0.040 A 
HETATM   33  N   UNL     1      30.100  43.003  54.481  1.00  0.00    -0.221 NA
HETATM   34  C   UNL     1      31.406  43.363  56.613  1.00  0.00     0.034 A 
HETATM   35  C   UNL     1      31.523  44.233  57.707  1.00  0.00     0.002 A 
HETATM   36  C   UNL     1      30.716  45.374  57.816  1.00  0.00     0.003 A 
ENDBRANCH  23  28
ENDBRANCH   1  20
TORSDOF 10
ENDMDL
