MODEL 1
REMARK VINA RESULT:      -8.7      0.000      0.000
REMARK  5 active torsions:
REMARK  status: ('A' for Active; 'I' for Inactive)
REMARK    1  A    between atoms: C_2  and  C_3 
REMARK    2  A    between atoms: C_3  and  N_4 
REMARK    3  A    between atoms: C_3  and  C_18 
REMARK    4  A    between atoms: N_4  and  C_7 
REMARK    5  A    between atoms: C_7  and  C_8 
ROOT
HETATM    1  N   UNL     1      23.512  47.763  50.026  1.00  0.00    -0.056 N 
HETATM    2  H   UNL     1      24.081  48.340  50.660  1.00  0.00     0.278 HD
HETATM    3  H   UNL     1      22.575  47.707  50.439  1.00  0.00     0.278 HD
ENDROOT
BRANCH   1   4
HETATM    4  C   UNL     1      23.448  48.491  48.714  1.00  0.00     0.292 C 
BRANCH   4   5
HETATM    5  C   UNL     1      22.315  49.504  48.703  1.00  0.00    -0.020 A 
HETATM    6  C   UNL     1      22.095  50.396  49.772  1.00  0.00     0.011 A 
HETATM    7  C   UNL     1      21.034  51.307  49.734  1.00  0.00     0.024 A 
HETATM    8  C   UNL     1      20.182  51.339  48.635  1.00  0.00     0.034 A 
HETATM    9  C   UNL     1      20.382  50.468  47.568  1.00  0.00     0.024 A 
HETATM   10 CL   UNL     1      18.880  52.460  48.593  1.00  0.00    -0.084 Cl
HETATM   11  C   UNL     1      21.442  49.556  47.600  1.00  0.00     0.011 A 
ENDBRANCH   4   5
BRANCH   4  12
HETATM   12  C   UNL     1      24.697  49.269  48.414  1.00  0.00     0.190 A 
HETATM   13  N   UNL     1      24.818  50.090  47.365  1.00  0.00    -0.109 NA
HETATM   14  O   UNL     1      26.141  50.532  47.461  1.00  0.00    -0.205 OA
HETATM   15  C   UNL     1      26.685  49.894  48.531  1.00  0.00     0.288 A 
HETATM   16  N   UNL     1      25.857  49.073  49.137  1.00  0.00    -0.215 NA
ENDBRANCH   4  12
ENDBRANCH   1   4
BRANCH   1  17
HETATM   17  C   UNL     1      24.125  46.413  49.961  1.00  0.00     0.272 C 
BRANCH  17  18
HETATM   18  C   UNL     1      25.039  46.189  51.130  1.00  0.00    -0.030 A 
HETATM   19  C   UNL     1      25.215  47.199  52.090  1.00  0.00     0.048 A 
HETATM   20  C   UNL     1      26.032  46.981  53.200  1.00  0.00     0.102 A 
HETATM   21  C   UNL     1      26.702  45.766  53.349  1.00  0.00     0.102 A 
HETATM   22  O   UNL     1      26.130  48.010  54.098  1.00  0.00    -0.346 OA
HETATM   23  O   UNL     1      27.548  45.499  54.392  1.00  0.00    -0.346 OA
HETATM   24  C   UNL     1      26.520  44.752  52.414  1.00  0.00     0.040 A 
HETATM   25  C   UNL     1      27.941  46.701  55.067  1.00  0.00     0.202 C 
HETATM   26  C   UNL     1      26.732  47.584  55.330  1.00  0.00     0.202 C 
HETATM   27  C   UNL     1      25.689  44.959  51.308  1.00  0.00     0.012 A 
ENDBRANCH  17  18
ENDBRANCH   1  17
TORSDOF 5
ENDMDL
MODEL 2
REMARK VINA RESULT:      -8.5      3.628      7.348
REMARK  5 active torsions:
REMARK  status: ('A' for Active; 'I' for Inactive)
REMARK    1  A    between atoms: C_2  and  C_3 
REMARK    2  A    between atoms: C_3  and  N_4 
REMARK    3  A    between atoms: C_3  and  C_18 
REMARK    4  A    between atoms: N_4  and  C_7 
REMARK    5  A    between atoms: C_7  and  C_8 
ROOT
HETATM    1  N   UNL     1      23.622  46.843  49.773  1.00  0.00    -0.056 N 
HETATM    2  H   UNL     1      23.872  45.858  49.614  1.00  0.00     0.278 HD
HETATM    3  H   UNL     1      22.742  46.843  50.300  1.00  0.00     0.278 HD
ENDROOT
BRANCH   1   4
HETATM    4  C   UNL     1      24.716  47.441  50.609  1.00  0.00     0.292 C 
BRANCH   4   5
HETATM    5  C   UNL     1      25.119  46.505  51.737  1.00  0.00    -0.020 A 
HETATM    6  C   UNL     1      25.831  46.953  52.868  1.00  0.00     0.011 A 
HETATM    7  C   UNL     1      26.197  46.061  53.881  1.00  0.00     0.024 A 
HETATM    8  C   UNL     1      25.859  44.716  53.780  1.00  0.00     0.034 A 
HETATM    9  C   UNL     1      25.154  44.252  52.673  1.00  0.00     0.024 A 
HETATM   10 CL   UNL     1      26.309  43.624  55.028  1.00  0.00    -0.084 Cl
HETATM   11  C   UNL     1      24.786  45.139  51.657  1.00  0.00     0.011 A 
ENDBRANCH   4   5
BRANCH   4  12
HETATM   12  C   UNL     1      25.971  47.707  49.828  1.00  0.00     0.190 A 
HETATM   13  N   UNL     1      26.788  46.739  49.399  1.00  0.00    -0.109 NA
HETATM   14  O   UNL     1      27.827  47.450  48.790  1.00  0.00    -0.205 OA
HETATM   15  C   UNL     1      27.543  48.768  48.959  1.00  0.00     0.288 A 
HETATM   16  N   UNL     1      26.432  48.992  49.624  1.00  0.00    -0.215 NA
ENDBRANCH   4  12
ENDBRANCH   1   4
BRANCH   1  17
HETATM   17  C   UNL     1      23.427  47.485  48.449  1.00  0.00     0.272 C 
BRANCH  17  18
HETATM   18  C   UNL     1      22.513  48.671  48.567  1.00  0.00    -0.030 A 
HETATM   19  C   UNL     1      21.201  48.505  49.039  1.00  0.00     0.048 A 
HETATM   20  C   UNL     1      20.361  49.609  49.189  1.00  0.00     0.102 A 
HETATM   21  C   UNL     1      20.812  50.884  48.843  1.00  0.00     0.102 A 
HETATM   22  O   UNL     1      19.106  49.361  49.675  1.00  0.00    -0.346 OA
HETATM   23  O   UNL     1      20.030  52.005  48.928  1.00  0.00    -0.346 OA
HETATM   24  C   UNL     1      22.117  51.062  48.393  1.00  0.00     0.040 A 
HETATM   25  C   UNL     1      18.642  51.666  49.040  1.00  0.00     0.202 C 
HETATM   26  C   UNL     1      18.442  50.570  50.074  1.00  0.00     0.202 C 
HETATM   27  C   UNL     1      22.968  49.962  48.257  1.00  0.00     0.012 A 
ENDBRANCH  17  18
ENDBRANCH   1  17
TORSDOF 5
ENDMDL
MODEL 3
REMARK VINA RESULT:      -8.4      4.956      6.322
REMARK  5 active torsions:
REMARK  status: ('A' for Active; 'I' for Inactive)
REMARK    1  A    between atoms: C_2  and  C_3 
REMARK    2  A    between atoms: C_3  and  N_4 
REMARK    3  A    between atoms: C_3  and  C_18 
REMARK    4  A    between atoms: N_4  and  C_7 
REMARK    5  A    between atoms: C_7  and  C_8 
ROOT
HETATM    1  N   UNL     1      26.527  42.968  52.548  1.00  0.00    -0.056 N 
HETATM    2  H   UNL     1      26.436  42.966  53.573  1.00  0.00     0.278 HD
HETATM    3  H   UNL     1      26.465  41.991  52.243  1.00  0.00     0.278 HD
ENDROOT
BRANCH   1   4
HETATM    4  C   UNL     1      25.360  43.745  52.009  1.00  0.00     0.292 C 
BRANCH   4   5
HETATM    5  C   UNL     1      25.819  45.030  51.339  1.00  0.00    -0.020 A 
HETATM    6  C   UNL     1      26.439  45.038  50.073  1.00  0.00     0.011 A 
HETATM    7  C   UNL     1      26.861  46.238  49.492  1.00  0.00     0.024 A 
HETATM    8  C   UNL     1      26.671  47.442  50.163  1.00  0.00     0.034 A 
HETATM    9  C   UNL     1      26.059  47.457  51.414  1.00  0.00     0.024 A 
HETATM   10 CL   UNL     1      27.190  48.914  49.445  1.00  0.00    -0.084 Cl
HETATM   11  C   UNL     1      25.636  46.260  51.999  1.00  0.00     0.011 A 
ENDBRANCH   4   5
BRANCH   4  12
HETATM   12  C   UNL     1      24.587  42.992  50.966  1.00  0.00     0.190 A 
HETATM   13  N   UNL     1      25.096  41.971  50.268  1.00  0.00    -0.109 NA
HETATM   14  O   UNL     1      24.056  41.634  49.396  1.00  0.00    -0.205 OA
HETATM   15  C   UNL     1      23.052  42.518  49.634  1.00  0.00     0.288 A 
HETATM   16  N   UNL     1      23.332  43.404  50.564  1.00  0.00    -0.215 NA
ENDBRANCH   4  12
ENDBRANCH   1   4
BRANCH   1  17
HETATM   17  C   UNL     1      27.859  43.528  52.206  1.00  0.00     0.272 C 
BRANCH  17  18
HETATM   18  C   UNL     1      28.637  43.837  53.452  1.00  0.00    -0.030 A 
HETATM   19  C   UNL     1      28.206  44.855  54.318  1.00  0.00     0.048 A 
HETATM   20  C   UNL     1      28.903  45.119  55.497  1.00  0.00     0.102 A 
HETATM   21  C   UNL     1      30.052  44.391  55.810  1.00  0.00     0.102 A 
HETATM   22  O   UNL     1      28.401  46.113  56.294  1.00  0.00    -0.346 OA
HETATM   23  O   UNL     1      30.805  44.624  56.929  1.00  0.00    -0.346 OA
HETATM   24  C   UNL     1      30.478  43.368  54.968  1.00  0.00     0.040 A 
HETATM   25  C   UNL     1      30.502  45.899  57.508  1.00  0.00     0.202 C 
HETATM   26  C   UNL     1      28.998  46.098  57.600  1.00  0.00     0.202 C 
HETATM   27  C   UNL     1      29.773  43.087  53.794  1.00  0.00     0.012 A 
ENDBRANCH  17  18
ENDBRANCH   1  17
TORSDOF 5
ENDMDL
MODEL 4
REMARK VINA RESULT:      -8.4      3.739      5.570
REMARK  5 active torsions:
REMARK  status: ('A' for Active; 'I' for Inactive)
REMARK    1  A    between atoms: C_2  and  C_3 
REMARK    2  A    between atoms: C_3  and  N_4 
REMARK    3  A    between atoms: C_3  and  C_18 
REMARK    4  A    between atoms: N_4  and  C_7 
REMARK    5  A    between atoms: C_7  and  C_8 
ROOT
HETATM    1  N   UNL     1      25.508  47.028  52.031  1.00  0.00    -0.056 N 
HETATM    2  H   UNL     1      25.875  47.859  52.513  1.00  0.00     0.278 HD
HETATM    3  H   UNL     1      24.558  47.260  51.722  1.00  0.00     0.278 HD
ENDROOT
BRANCH   1   4
HETATM    4  C   UNL     1      26.389  46.792  50.837  1.00  0.00     0.292 C 
BRANCH   4   5
HETATM    5  C   UNL     1      26.047  45.478  50.155  1.00  0.00    -0.020 A 
HETATM    6  C   UNL     1      24.801  45.254  49.535  1.00  0.00     0.011 A 
HETATM    7  C   UNL     1      24.515  44.027  48.927  1.00  0.00     0.024 A 
HETATM    8  C   UNL     1      25.464  43.010  48.930  1.00  0.00     0.034 A 
HETATM    9  C   UNL     1      26.702  43.210  49.535  1.00  0.00     0.024 A 
HETATM   10 CL   UNL     1      25.109  41.505  48.182  1.00  0.00    -0.084 Cl
HETATM   11  C   UNL     1      26.993  44.435  50.144  1.00  0.00     0.011 A 
ENDBRANCH   4   5
BRANCH   4  12
HETATM   12  C   UNL     1      26.243  47.852  49.784  1.00  0.00     0.190 A 
HETATM   13  N   UNL     1      27.241  48.229  48.977  1.00  0.00    -0.109 NA
HETATM   14  O   UNL     1      26.666  49.257  48.224  1.00  0.00    -0.205 OA
HETATM   15  C   UNL     1      25.400  49.416  48.690  1.00  0.00     0.288 A 
HETATM   16  N   UNL     1      25.091  48.605  49.677  1.00  0.00    -0.215 NA
ENDBRANCH   4  12
ENDBRANCH   1   4
BRANCH   1  17
HETATM   17  C   UNL     1      25.471  45.910  53.007  1.00  0.00     0.272 C 
BRANCH  17  18
HETATM   18  C   UNL     1      26.721  45.891  53.837  1.00  0.00    -0.030 A 
HETATM   19  C   UNL     1      27.458  44.703  53.975  1.00  0.00     0.048 A 
HETATM   20  C   UNL     1      28.643  44.690  54.711  1.00  0.00     0.102 A 
HETATM   21  C   UNL     1      29.090  45.853  55.340  1.00  0.00     0.102 A 
HETATM   22  O   UNL     1      29.308  43.495  54.776  1.00  0.00    -0.346 OA
HETATM   23  O   UNL     1      30.222  45.901  56.109  1.00  0.00    -0.346 OA
HETATM   24  C   UNL     1      28.378  47.040  55.195  1.00  0.00     0.040 A 
HETATM   25  C   UNL     1      30.654  44.588  56.487  1.00  0.00     0.202 C 
HETATM   26  C   UNL     1      30.641  43.657  55.285  1.00  0.00     0.202 C 
HETATM   27  C   UNL     1      27.199  47.063  54.444  1.00  0.00     0.012 A 
ENDBRANCH  17  18
ENDBRANCH   1  17
TORSDOF 5
ENDMDL
MODEL 5
REMARK VINA RESULT:      -8.3      3.805      5.502
REMARK  5 active torsions:
REMARK  status: ('A' for Active; 'I' for Inactive)
REMARK    1  A    between atoms: C_2  and  C_3 
REMARK    2  A    between atoms: C_3  and  N_4 
REMARK    3  A    between atoms: C_3  and  C_18 
REMARK    4  A    between atoms: N_4  and  C_7 
REMARK    5  A    between atoms: C_7  and  C_8 
ROOT
HETATM    1  N   UNL     1      26.860  45.097  51.758  1.00  0.00    -0.056 N 
HETATM    2  H   UNL     1      27.291  44.782  50.879  1.00  0.00     0.278 HD
HETATM    3  H   UNL     1      27.383  45.925  52.064  1.00  0.00     0.278 HD
ENDROOT
BRANCH   1   4
HETATM    4  C   UNL     1      25.444  45.480  51.437  1.00  0.00     0.292 C 
BRANCH   4   5
HETATM    5  C   UNL     1      25.397  46.703  50.535  1.00  0.00    -0.020 A 
HETATM    6  C   UNL     1      26.564  47.376  50.121  1.00  0.00     0.011 A 
HETATM    7  C   UNL     1      26.483  48.507  49.301  1.00  0.00     0.024 A 
HETATM    8  C   UNL     1      25.242  48.979  48.886  1.00  0.00     0.034 A 
HETATM    9  C   UNL     1      24.077  48.328  49.282  1.00  0.00     0.024 A 
HETATM   10 CL   UNL     1      25.148  50.368  47.878  1.00  0.00    -0.084 Cl
HETATM   11  C   UNL     1      24.152  47.197  50.101  1.00  0.00     0.011 A 
ENDBRANCH   4   5
BRANCH   4  12
HETATM   12  C   UNL     1      24.698  44.402  50.705  1.00  0.00     0.190 A 
HETATM   13  N   UNL     1      23.583  43.830  51.175  1.00  0.00    -0.109 NA
HETATM   14  O   UNL     1      23.290  42.866  50.205  1.00  0.00    -0.205 OA
HETATM   15  C   UNL     1      24.285  42.933  49.281  1.00  0.00     0.288 A 
HETATM   16  N   UNL     1      25.203  43.834  49.553  1.00  0.00    -0.215 NA
ENDBRANCH   4  12
ENDBRANCH   1   4
BRANCH   1  17
HETATM   17  C   UNL     1      27.000  44.007  52.755  1.00  0.00     0.272 C 
BRANCH  17  18
HETATM   18  C   UNL     1      27.885  44.437  53.889  1.00  0.00    -0.030 A 
HETATM   19  C   UNL     1      28.859  43.561  54.395  1.00  0.00     0.048 A 
HETATM   20  C   UNL     1      29.711  43.970  55.420  1.00  0.00     0.102 A 
HETATM   21  C   UNL     1      29.582  45.247  55.970  1.00  0.00     0.102 A 
HETATM   22  O   UNL     1      30.644  43.061  55.839  1.00  0.00    -0.346 OA
HETATM   23  O   UNL     1      30.358  45.700  57.003  1.00  0.00    -0.346 OA
HETATM   24  C   UNL     1      28.634  46.130  55.463  1.00  0.00     0.040 A 
HETATM   25  C   UNL     1      31.019  44.619  57.673  1.00  0.00     0.202 C 
HETATM   26  C   UNL     1      31.648  43.672  56.664  1.00  0.00     0.202 C 
HETATM   27  C   UNL     1      27.788  45.731  54.424  1.00  0.00     0.012 A 
ENDBRANCH  17  18
ENDBRANCH   1  17
TORSDOF 5
ENDMDL
MODEL 6
REMARK VINA RESULT:      -8.2      4.113      6.233
REMARK  5 active torsions:
REMARK  status: ('A' for Active; 'I' for Inactive)
REMARK    1  A    between atoms: C_2  and  C_3 
REMARK    2  A    between atoms: C_3  and  N_4 
REMARK    3  A    between atoms: C_3  and  C_18 
REMARK    4  A    between atoms: N_4  and  C_7 
REMARK    5  A    between atoms: C_7  and  C_8 
ROOT
HETATM    1  N   UNL     1      26.012  46.148  53.124  1.00  0.00    -0.056 N 
HETATM    2  H   UNL     1      25.118  46.657  53.118  1.00  0.00     0.278 HD
HETATM    3  H   UNL     1      25.808  45.196  53.447  1.00  0.00     0.278 HD
ENDROOT
BRANCH   1   4
HETATM    4  C   UNL     1      26.503  46.110  51.705  1.00  0.00     0.292 C 
BRANCH   4   5
HETATM    5  C   UNL     1      26.141  44.795  51.035  1.00  0.00    -0.020 A 
HETATM    6  C   UNL     1      26.947  44.214  50.035  1.00  0.00     0.011 A 
HETATM    7  C   UNL     1      26.577  43.008  49.430  1.00  0.00     0.024 A 
HETATM    8  C   UNL     1      25.403  42.368  49.813  1.00  0.00     0.034 A 
HETATM    9  C   UNL     1      24.593  42.923  50.800  1.00  0.00     0.024 A 
HETATM   10 CL   UNL     1      24.953  40.887  49.068  1.00  0.00    -0.084 Cl
HETATM   11  C   UNL     1      24.958  44.128  51.408  1.00  0.00     0.011 A 
ENDBRANCH   4   5
BRANCH   4  12
HETATM   12  C   UNL     1      25.901  47.186  50.848  1.00  0.00     0.190 A 
HETATM   13  N   UNL     1      24.626  47.581  50.951  1.00  0.00    -0.109 NA
HETATM   14  O   UNL     1      24.509  48.536  49.936  1.00  0.00    -0.205 OA
HETATM   15  C   UNL     1      25.713  48.579  49.306  1.00  0.00     0.288 A 
HETATM   16  N   UNL     1      26.600  47.743  49.797  1.00  0.00    -0.215 NA
ENDBRANCH   4  12
ENDBRANCH   1   4
BRANCH   1  17
HETATM   17  C   UNL     1      26.921  46.828  54.080  1.00  0.00     0.272 C 
BRANCH  17  18
HETATM   18  C   UNL     1      27.962  45.875  54.590  1.00  0.00    -0.030 A 
HETATM   19  C   UNL     1      28.725  46.203  55.722  1.00  0.00     0.048 A 
HETATM   20  C   UNL     1      29.664  45.303  56.224  1.00  0.00     0.102 A 
HETATM   21  C   UNL     1      29.872  44.079  55.586  1.00  0.00     0.102 A 
HETATM   22  O   UNL     1      30.348  45.694  57.344  1.00  0.00    -0.346 OA
HETATM   23  O   UNL     1      30.804  43.166  56.002  1.00  0.00    -0.346 OA
HETATM   24  C   UNL     1      29.109  43.735  54.475  1.00  0.00     0.040 A 
HETATM   25  C   UNL     1      31.758  43.760  56.892  1.00  0.00     0.202 C 
HETATM   26  C   UNL     1      31.053  44.597  57.946  1.00  0.00     0.202 C 
HETATM   27  C   UNL     1      28.154  44.626  53.978  1.00  0.00     0.012 A 
ENDBRANCH  17  18
ENDBRANCH   1  17
TORSDOF 5
ENDMDL
MODEL 7
REMARK VINA RESULT:      -8.1      4.446      6.347
REMARK  5 active torsions:
REMARK  status: ('A' for Active; 'I' for Inactive)
REMARK    1  A    between atoms: C_2  and  C_3 
REMARK    2  A    between atoms: C_3  and  N_4 
REMARK    3  A    between atoms: C_3  and  C_18 
REMARK    4  A    between atoms: N_4  and  C_7 
REMARK    5  A    between atoms: C_7  and  C_8 
ROOT
HETATM    1  N   UNL     1      27.294  43.897  52.100  1.00  0.00    -0.056 N 
HETATM    2  H   UNL     1      27.228  44.725  52.707  1.00  0.00     0.278 HD
HETATM    3  H   UNL     1      26.558  43.250  52.401  1.00  0.00     0.278 HD
ENDROOT
BRANCH   1   4
HETATM    4  C   UNL     1      27.023  44.361  50.698  1.00  0.00     0.292 C 
BRANCH   4   5
HETATM    5  C   UNL     1      25.916  43.543  50.054  1.00  0.00    -0.020 A 
HETATM    6  C   UNL     1      24.568  43.657  50.451  1.00  0.00     0.011 A 
HETATM    7  C   UNL     1      23.577  42.878  49.845  1.00  0.00     0.024 A 
HETATM    8  C   UNL     1      23.915  41.979  48.839  1.00  0.00     0.034 A 
HETATM    9  C   UNL     1      25.240  41.851  48.430  1.00  0.00     0.024 A 
HETATM   10 CL   UNL     1      22.694  41.025  48.097  1.00  0.00    -0.084 Cl
HETATM   11  C   UNL     1      26.235  42.627  49.033  1.00  0.00     0.011 A 
ENDBRANCH   4   5
BRANCH   4  12
HETATM   12  C   UNL     1      26.568  45.791  50.632  1.00  0.00     0.190 A 
HETATM   13  N   UNL     1      26.087  46.458  51.686  1.00  0.00    -0.109 NA
HETATM   14  O   UNL     1      25.746  47.701  51.144  1.00  0.00    -0.205 OA
HETATM   15  C   UNL     1      26.018  47.630  49.814  1.00  0.00     0.288 A 
HETATM   16  N   UNL     1      26.491  46.466  49.430  1.00  0.00    -0.215 NA
ENDBRANCH   4  12
ENDBRANCH   1   4
BRANCH   1  17
HETATM   17  C   UNL     1      28.630  43.284  52.306  1.00  0.00     0.272 C 
BRANCH  17  18
HETATM   18  C   UNL     1      29.202  43.693  53.632  1.00  0.00    -0.030 A 
HETATM   19  C   UNL     1      28.608  44.734  54.365  1.00  0.00     0.048 A 
HETATM   20  C   UNL     1      29.110  45.090  55.616  1.00  0.00     0.102 A 
HETATM   21  C   UNL     1      30.226  44.433  56.136  1.00  0.00     0.102 A 
HETATM   22  O   UNL     1      28.458  46.100  56.271  1.00  0.00    -0.346 OA
HETATM   23  O   UNL     1      30.794  44.757  57.339  1.00  0.00    -0.346 OA
HETATM   24  C   UNL     1      30.811  43.387  55.428  1.00  0.00     0.040 A 
HETATM   25  C   UNL     1      30.360  46.046  57.791  1.00  0.00     0.202 C 
HETATM   26  C   UNL     1      28.853  46.181  57.649  1.00  0.00     0.202 C 
HETATM   27  C   UNL     1      30.301  43.014  54.181  1.00  0.00     0.012 A 
ENDBRANCH  17  18
ENDBRANCH   1  17
TORSDOF 5
ENDMDL
MODEL 8
REMARK VINA RESULT:      -8.0      4.908      9.077
REMARK  5 active torsions:
REMARK  status: ('A' for Active; 'I' for Inactive)
REMARK    1  A    between atoms: C_2  and  C_3 
REMARK    2  A    between atoms: C_3  and  N_4 
REMARK    3  A    between atoms: C_3  and  C_18 
REMARK    4  A    between atoms: N_4  and  C_7 
REMARK    5  A    between atoms: C_7  and  C_8 
ROOT
HETATM    1  N   UNL     1      26.961  44.813  53.279  1.00  0.00    -0.056 N 
HETATM    2  H   UNL     1      26.570  44.648  54.216  1.00  0.00     0.278 HD
HETATM    3  H   UNL     1      26.948  45.827  53.127  1.00  0.00     0.278 HD
ENDROOT
BRANCH   1   4
HETATM    4  C   UNL     1      28.380  44.320  53.307  1.00  0.00     0.292 C 
BRANCH   4   5
HETATM    5  C   UNL     1      29.051  44.654  54.629  1.00  0.00    -0.020 A 
HETATM    6  C   UNL     1      30.206  43.982  55.077  1.00  0.00     0.011 A 
HETATM    7  C   UNL     1      30.790  44.307  56.305  1.00  0.00     0.024 A 
HETATM    8  C   UNL     1      30.231  45.301  57.102  1.00  0.00     0.034 A 
HETATM    9  C   UNL     1      29.091  45.978  56.678  1.00  0.00     0.024 A 
HETATM   10 CL   UNL     1      30.952  45.696  58.610  1.00  0.00    -0.084 Cl
HETATM   11  C   UNL     1      28.503  45.658  55.451  1.00  0.00     0.011 A 
ENDBRANCH   4   5
BRANCH   4  12
HETATM   12  C   UNL     1      28.485  42.830  53.158  1.00  0.00     0.190 A 
HETATM   13  N   UNL     1      29.112  42.236  52.136  1.00  0.00    -0.109 NA
HETATM   14  O   UNL     1      28.903  40.876  52.385  1.00  0.00    -0.205 OA
HETATM   15  C   UNL     1      28.135  40.802  53.504  1.00  0.00     0.288 A 
HETATM   16  N   UNL     1      27.813  41.974  54.006  1.00  0.00    -0.215 NA
ENDBRANCH   4  12
ENDBRANCH   1   4
BRANCH   1  17
HETATM   17  C   UNL     1      26.086  44.136  52.291  1.00  0.00     0.272 C 
BRANCH  17  18
HETATM   18  C   UNL     1      25.459  45.139  51.365  1.00  0.00    -0.030 A 
HETATM   19  C   UNL     1      26.092  46.369  51.126  1.00  0.00     0.048 A 
HETATM   20  C   UNL     1      25.535  47.287  50.235  1.00  0.00     0.102 A 
HETATM   21  C   UNL     1      24.328  46.999  49.597  1.00  0.00     0.102 A 
HETATM   22  O   UNL     1      26.229  48.451  50.044  1.00  0.00    -0.346 OA
HETATM   23  O   UNL     1      23.706  47.869  48.742  1.00  0.00    -0.346 OA
HETATM   24  C   UNL     1      23.701  45.775  49.812  1.00  0.00     0.040 A 
HETATM   25  C   UNL     1      24.224  49.198  48.880  1.00  0.00     0.202 C 
HETATM   26  C   UNL     1      25.744  49.177  48.904  1.00  0.00     0.202 C 
HETATM   27  C   UNL     1      24.264  44.844  50.690  1.00  0.00     0.012 A 
ENDBRANCH  17  18
ENDBRANCH   1  17
TORSDOF 5
ENDMDL
MODEL 9
REMARK VINA RESULT:      -8.0      5.054      8.786
REMARK  5 active torsions:
REMARK  status: ('A' for Active; 'I' for Inactive)
REMARK    1  A    between atoms: C_2  and  C_3 
REMARK    2  A    between atoms: C_3  and  N_4 
REMARK    3  A    between atoms: C_3  and  C_18 
REMARK    4  A    between atoms: N_4  and  C_7 
REMARK    5  A    between atoms: C_7  and  C_8 
ROOT
HETATM    1  N   UNL     1      25.389  43.067  51.754  1.00  0.00    -0.056 N 
HETATM    2  H   UNL     1      25.190  42.142  52.158  1.00  0.00     0.278 HD
HETATM    3  H   UNL     1      25.367  43.739  52.528  1.00  0.00     0.278 HD
ENDROOT
BRANCH   1   4
HETATM    4  C   UNL     1      26.775  43.001  51.178  1.00  0.00     0.292 C 
BRANCH   4   5
HETATM    5  C   UNL     1      27.828  43.096  52.269  1.00  0.00    -0.020 A 
HETATM    6  C   UNL     1      29.108  42.520  52.132  1.00  0.00     0.011 A 
HETATM    7  C   UNL     1      30.048  42.616  53.163  1.00  0.00     0.024 A 
HETATM    8  C   UNL     1      29.726  43.283  54.340  1.00  0.00     0.034 A 
HETATM    9  C   UNL     1      28.469  43.860  54.497  1.00  0.00     0.024 A 
HETATM   10 CL   UNL     1      30.885  43.399  55.604  1.00  0.00    -0.084 Cl
HETATM   11  C   UNL     1      27.525  43.768  53.469  1.00  0.00     0.011 A 
ENDBRANCH   4   5
BRANCH   4  12
HETATM   12  C   UNL     1      27.048  41.714  50.455  1.00  0.00     0.190 A 
HETATM   13  N   UNL     1      27.623  41.656  49.248  1.00  0.00    -0.109 NA
HETATM   14  O   UNL     1      27.615  40.287  48.961  1.00  0.00    -0.205 OA
HETATM   15  C   UNL     1      26.996  39.676  50.005  1.00  0.00     0.288 A 
HETATM   16  N   UNL     1      26.590  40.505  50.940  1.00  0.00    -0.215 NA
ENDBRANCH   4  12
ENDBRANCH   1   4
BRANCH   1  17
HETATM   17  C   UNL     1      24.321  43.379  50.772  1.00  0.00     0.272 C 
BRANCH  17  18
HETATM   18  C   UNL     1      24.290  44.850  50.475  1.00  0.00    -0.030 A 
HETATM   19  C   UNL     1      23.512  45.338  49.412  1.00  0.00     0.048 A 
HETATM   20  C   UNL     1      23.448  46.708  49.157  1.00  0.00     0.102 A 
HETATM   21  C   UNL     1      24.179  47.602  49.941  1.00  0.00     0.102 A 
HETATM   22  O   UNL     1      22.649  47.099  48.116  1.00  0.00    -0.346 OA
HETATM   23  O   UNL     1      24.192  48.953  49.723  1.00  0.00    -0.346 OA
HETATM   24  C   UNL     1      24.937  47.131  51.009  1.00  0.00     0.040 A 
HETATM   25  C   UNL     1      23.697  49.277  48.417  1.00  0.00     0.202 C 
HETATM   26  C   UNL     1      22.413  48.515  48.131  1.00  0.00     0.202 C 
HETATM   27  C   UNL     1      24.992  45.761  51.279  1.00  0.00     0.012 A 
ENDBRANCH  17  18
ENDBRANCH   1  17
TORSDOF 5
ENDMDL
MODEL 10
REMARK VINA RESULT:      -7.8      5.559      7.529
REMARK  5 active torsions:
REMARK  status: ('A' for Active; 'I' for Inactive)
REMARK    1  A    between atoms: C_2  and  C_3 
REMARK    2  A    between atoms: C_3  and  N_4 
REMARK    3  A    between atoms: C_3  and  C_18 
REMARK    4  A    between atoms: N_4  and  C_7 
REMARK    5  A    between atoms: C_7  and  C_8 
ROOT
HETATM    1  N   UNL     1      25.332  44.429  52.456  1.00  0.00    -0.056 N 
HETATM    2  H   UNL     1      24.381  44.159  52.742  1.00  0.00     0.278 HD
HETATM    3  H   UNL     1      25.973  43.750  52.882  1.00  0.00     0.278 HD
ENDROOT
BRANCH   1   4
HETATM    4  C   UNL     1      25.388  44.312  50.960  1.00  0.00     0.292 C 
BRANCH   4   5
HETATM    5  C   UNL     1      26.194  43.095  50.534  1.00  0.00    -0.020 A 
HETATM    6  C   UNL     1      26.483  42.820  49.182  1.00  0.00     0.011 A 
HETATM    7  C   UNL     1      27.217  41.684  48.826  1.00  0.00     0.024 A 
HETATM    8  C   UNL     1      27.670  40.810  49.809  1.00  0.00     0.034 A 
HETATM    9  C   UNL     1      27.397  41.064  51.150  1.00  0.00     0.024 A 
HETATM   10 CL   UNL     1      28.572  39.417  49.366  1.00  0.00    -0.084 Cl
HETATM   11  C   UNL     1      26.664  42.198  51.512  1.00  0.00     0.011 A 
ENDBRANCH   4   5
BRANCH   4  12
HETATM   12  C   UNL     1      24.033  44.145  50.335  1.00  0.00     0.190 A 
HETATM   13  N   UNL     1      23.198  43.146  50.644  1.00  0.00    -0.109 NA
HETATM   14  O   UNL     1      22.114  43.365  49.788  1.00  0.00    -0.205 OA
HETATM   15  C   UNL     1      22.434  44.444  49.027  1.00  0.00     0.288 A 
HETATM   16  N   UNL     1      23.620  44.947  49.290  1.00  0.00    -0.215 NA
ENDBRANCH   4  12
ENDBRANCH   1   4
BRANCH   1  17
HETATM   17  C   UNL     1      25.603  45.788  52.985  1.00  0.00     0.272 C 
BRANCH  17  18
HETATM   18  C   UNL     1      26.829  45.785  53.851  1.00  0.00    -0.030 A 
HETATM   19  C   UNL     1      27.581  44.609  54.004  1.00  0.00     0.048 A 
HETATM   20  C   UNL     1      28.743  44.610  54.775  1.00  0.00     0.102 A 
HETATM   21  C   UNL     1      29.152  45.777  55.423  1.00  0.00     0.102 A 
HETATM   22  O   UNL     1      29.427  43.426  54.852  1.00  0.00    -0.346 OA
HETATM   23  O   UNL     1      30.260  45.839  56.226  1.00  0.00    -0.346 OA
HETATM   24  C   UNL     1      28.425  46.952  55.264  1.00  0.00     0.040 A 
HETATM   25  C   UNL     1      30.703  44.531  56.608  1.00  0.00     0.202 C 
HETATM   26  C   UNL     1      30.741  43.607  55.401  1.00  0.00     0.202 C 
HETATM   27  C   UNL     1      27.269  46.961  54.478  1.00  0.00     0.012 A 
ENDBRANCH  17  18
ENDBRANCH   1  17
TORSDOF 5
ENDMDL
