MODEL 1
REMARK VINA RESULT:      -8.0      0.000      0.000
REMARK  7 active torsions:
REMARK  status: ('A' for Active; 'I' for Inactive)
REMARK    1  A    between atoms: O_2  and  C_3 
REMARK    2  A    between atoms: C_6  and  C_7 
REMARK       I    between atoms: C_7  and  N_8 
REMARK    3  A    between atoms: C_14  and  C_15 
REMARK       I    between atoms: C_15  and  N_16 
REMARK    4  A    between atoms: N_16  and  C_17 
REMARK    5  A    between atoms: C_17  and  C_18 
REMARK       I    between atoms: N_25  and  C_26 
REMARK    6  A    between atoms: C_26  and  C_27 
REMARK    7  A    between atoms: C_30  and  O_31 
ROOT
HETATM    1  C   UNL     1      20.357  50.206  49.634  1.00  0.00     0.253 C 
HETATM    2  N   UNL     1      19.238  49.879  48.850  1.00  0.00    -0.348 N 
HETATM    3  C   UNL     1      19.344  49.495  47.445  1.00  0.00     0.131 C 
HETATM    4  C   UNL     1      18.155  48.695  46.961  1.00  0.00     0.081 C 
HETATM    5  C   UNL     1      16.799  49.333  47.277  1.00  0.00     0.142 C 
HETATM    6  O   UNL     1      15.851  48.236  47.096  1.00  0.00    -0.358 OA
HETATM    7  C   UNL     1      14.727  48.708  46.345  1.00  0.00     0.206 C 
HETATM    8  C   UNL     1      15.273  49.824  45.494  1.00  0.00     0.206 C 
HETATM    9  N   UNL     1      16.338  50.367  46.335  1.00  0.00    -0.300 N 
HETATM   10  C   UNL     1      16.854  51.647  46.244  1.00  0.00     0.257 C 
HETATM   11  O   UNL     1      17.844  52.034  46.854  1.00  0.00    -0.267 OA
HETATM   12  C   UNL     1      16.724  49.712  48.761  1.00  0.00     0.081 C 
HETATM   13  C   UNL     1      17.959  50.413  49.315  1.00  0.00     0.131 C 
HETATM   14  O   UNL     1      20.280  50.557  50.811  1.00  0.00    -0.267 OA
ENDROOT
BRANCH   8  15
HETATM   15  C   UNL     1      15.742  49.273  44.131  1.00  0.00     0.243 C 
HETATM   16  N   UNL     1      15.481  50.084  43.052  1.00  0.00    -0.355 N 
HETATM   17  H   UNL     1      15.167  51.030  43.225  1.00  0.00     0.162 HD
HETATM   18  O   UNL     1      16.232  48.153  44.011  1.00  0.00    -0.271 OA
BRANCH  16  19
HETATM   19  C   UNL     1      15.855  49.733  41.705  1.00  0.00     0.161 C 
BRANCH  19  20
HETATM   20  C   UNL     1      17.130  50.444  41.334  1.00  0.00    -0.041 A 
HETATM   21  C   UNL     1      18.339  50.103  41.954  1.00  0.00     0.009 A 
HETATM   22  C   UNL     1      19.507  50.813  41.666  1.00  0.00     0.001 A 
HETATM   23  C   UNL     1      19.472  51.875  40.764  1.00  0.00     0.000 A 
HETATM   24  C   UNL     1      18.274  52.227  40.146  1.00  0.00     0.001 A 
HETATM   25  C   UNL     1      17.107  51.514  40.429  1.00  0.00     0.009 A 
ENDBRANCH  19  20
ENDBRANCH  16  19
ENDBRANCH   8  15
BRANCH  10  26
HETATM   26  C   UNL     1      16.259  52.623  45.305  1.00  0.00     0.032 A 
HETATM   27  C   UNL     1      15.064  53.283  45.589  1.00  0.00     0.020 A 
HETATM   28  C   UNL     1      14.562  54.217  44.679  1.00  0.00     0.038 A 
HETATM   29  C   UNL     1      15.263  54.524  43.507  1.00  0.00     0.068 A 
HETATM   30  C   UNL     1      16.480  53.891  43.250  1.00  0.00     0.038 A 
HETATM   31  C   UNL     1      16.981  52.948  44.152  1.00  0.00     0.020 A 
BRANCH  29  32
HETATM   32  O   UNL     1      14.662  55.458  42.709  1.00  0.00    -0.356 OA
HETATM   33  C   UNL     1      14.600  56.788  43.209  1.00  0.00     0.210 C 
ENDBRANCH  29  32
ENDBRANCH  10  26
BRANCH   1  34
HETATM   34  C   UNL     1      21.715  50.123  49.047  1.00  0.00     0.032 A 
HETATM   35  C   UNL     1      22.306  51.234  48.438  1.00  0.00     0.020 A 
HETATM   36  C   UNL     1      23.597  51.130  47.915  1.00  0.00     0.038 A 
HETATM   37  C   UNL     1      24.321  49.941  48.041  1.00  0.00     0.068 A 
HETATM   38  C   UNL     1      23.737  48.842  48.674  1.00  0.00     0.038 A 
HETATM   39  C   UNL     1      22.436  48.934  49.181  1.00  0.00     0.020 A 
BRANCH  37  40
HETATM   40  O   UNL     1      25.578  49.976  47.500  1.00  0.00    -0.356 OA
HETATM   41  C   UNL     1      26.656  49.750  48.402  1.00  0.00     0.210 C 
ENDBRANCH  37  40
ENDBRANCH   1  34
TORSDOF 7
ENDMDL
MODEL 2
REMARK VINA RESULT:      -7.8     13.850     19.616
REMARK  7 active torsions:
REMARK  status: ('A' for Active; 'I' for Inactive)
REMARK    1  A    between atoms: O_2  and  C_3 
REMARK    2  A    between atoms: C_6  and  C_7 
REMARK       I    between atoms: C_7  and  N_8 
REMARK    3  A    between atoms: C_14  and  C_15 
REMARK       I    between atoms: C_15  and  N_16 
REMARK    4  A    between atoms: N_16  and  C_17 
REMARK    5  A    between atoms: C_17  and  C_18 
REMARK       I    between atoms: N_25  and  C_26 
REMARK    6  A    between atoms: C_26  and  C_27 
REMARK    7  A    between atoms: C_30  and  O_31 
ROOT
HETATM    1  C   UNL     1      36.947  55.991  37.424  1.00  0.00     0.253 C 
HETATM    2  N   UNL     1      36.514  54.887  38.177  1.00  0.00    -0.348 N 
HETATM    3  C   UNL     1      35.467  54.985  39.190  1.00  0.00     0.131 C 
HETATM    4  C   UNL     1      34.800  53.658  39.480  1.00  0.00     0.081 C 
HETATM    5  C   UNL     1      35.777  52.518  39.778  1.00  0.00     0.142 C 
HETATM    6  O   UNL     1      34.961  51.315  39.620  1.00  0.00    -0.358 OA
HETATM    7  C   UNL     1      35.218  50.429  40.715  1.00  0.00     0.206 C 
HETATM    8  C   UNL     1      35.617  51.329  41.855  1.00  0.00     0.206 C 
HETATM    9  N   UNL     1      36.271  52.438  41.163  1.00  0.00    -0.300 N 
HETATM   10  C   UNL     1      37.194  53.299  41.728  1.00  0.00     0.257 C 
HETATM   11  O   UNL     1      37.619  54.309  41.180  1.00  0.00    -0.267 OA
HETATM   12  C   UNL     1      36.853  52.442  38.688  1.00  0.00     0.081 C 
HETATM   13  C   UNL     1      37.462  53.779  38.283  1.00  0.00     0.131 C 
HETATM   14  O   UNL     1      37.847  55.928  36.586  1.00  0.00    -0.267 OA
ENDROOT
BRANCH   8  15
HETATM   15  C   UNL     1      34.375  51.724  42.681  1.00  0.00     0.243 C 
HETATM   16  N   UNL     1      33.182  51.670  42.002  1.00  0.00    -0.355 N 
HETATM   17  H   UNL     1      33.164  51.229  41.092  1.00  0.00     0.162 HD
HETATM   18  O   UNL     1      34.460  52.141  43.833  1.00  0.00    -0.271 OA
BRANCH  16  19
HETATM   19  C   UNL     1      31.920  51.999  42.617  1.00  0.00     0.161 C 
BRANCH  19  20
HETATM   20  C   UNL     1      30.893  52.266  41.548  1.00  0.00    -0.041 A 
HETATM   21  C   UNL     1      29.560  52.528  41.892  1.00  0.00     0.009 A 
HETATM   22  C   UNL     1      28.594  52.701  40.900  1.00  0.00     0.001 A 
HETATM   23  C   UNL     1      28.950  52.605  39.556  1.00  0.00     0.000 A 
HETATM   24  C   UNL     1      30.271  52.340  39.201  1.00  0.00     0.001 A 
HETATM   25  C   UNL     1      31.239  52.172  40.192  1.00  0.00     0.009 A 
ENDBRANCH  19  20
ENDBRANCH  16  19
ENDBRANCH   8  15
BRANCH  10  26
HETATM   26  C   UNL     1      37.670  53.074  43.111  1.00  0.00     0.032 A 
HETATM   27  C   UNL     1      38.561  52.048  43.426  1.00  0.00     0.020 A 
HETATM   28  C   UNL     1      39.000  51.900  44.745  1.00  0.00     0.038 A 
HETATM   29  C   UNL     1      38.586  52.791  45.742  1.00  0.00     0.068 A 
HETATM   30  C   UNL     1      37.729  53.841  45.411  1.00  0.00     0.038 A 
HETATM   31  C   UNL     1      37.278  53.987  44.096  1.00  0.00     0.020 A 
BRANCH  29  32
HETATM   32  O   UNL     1      39.095  52.533  46.985  1.00  0.00    -0.356 OA
HETATM   33  C   UNL     1      38.901  53.531  47.980  1.00  0.00     0.210 C 
ENDBRANCH  29  32
ENDBRANCH  10  26
BRANCH   1  34
HETATM   34  C   UNL     1      36.300  57.310  37.616  1.00  0.00     0.032 A 
HETATM   35  C   UNL     1      35.098  57.428  38.320  1.00  0.00     0.020 A 
HETATM   36  C   UNL     1      34.527  58.689  38.506  1.00  0.00     0.038 A 
HETATM   37  C   UNL     1      35.172  59.838  38.038  1.00  0.00     0.068 A 
HETATM   38  C   UNL     1      36.386  59.718  37.359  1.00  0.00     0.038 A 
HETATM   39  C   UNL     1      36.953  58.456  37.152  1.00  0.00     0.020 A 
BRANCH  37  40
HETATM   40  O   UNL     1      34.515  61.009  38.298  1.00  0.00    -0.356 OA
HETATM   41  C   UNL     1      35.297  62.197  38.229  1.00  0.00     0.210 C 
ENDBRANCH  37  40
ENDBRANCH   1  34
TORSDOF 7
ENDMDL
MODEL 3
REMARK VINA RESULT:      -7.8      8.317     13.201
REMARK  7 active torsions:
REMARK  status: ('A' for Active; 'I' for Inactive)
REMARK    1  A    between atoms: O_2  and  C_3 
REMARK    2  A    between atoms: C_6  and  C_7 
REMARK       I    between atoms: C_7  and  N_8 
REMARK    3  A    between atoms: C_14  and  C_15 
REMARK       I    between atoms: C_15  and  N_16 
REMARK    4  A    between atoms: N_16  and  C_17 
REMARK    5  A    between atoms: C_17  and  C_18 
REMARK       I    between atoms: N_25  and  C_26 
REMARK    6  A    between atoms: C_26  and  C_27 
REMARK    7  A    between atoms: C_30  and  O_31 
ROOT
HETATM    1  C   UNL     1      22.543  47.261  38.239  1.00  0.00     0.253 C 
HETATM    2  N   UNL     1      23.941  47.260  38.378  1.00  0.00    -0.348 N 
HETATM    3  C   UNL     1      24.606  47.253  39.678  1.00  0.00     0.131 C 
HETATM    4  C   UNL     1      26.022  46.725  39.615  1.00  0.00     0.081 C 
HETATM    5  C   UNL     1      26.888  47.381  38.536  1.00  0.00     0.142 C 
HETATM    6  O   UNL     1      28.018  46.465  38.396  1.00  0.00    -0.358 OA
HETATM    7  C   UNL     1      29.232  47.223  38.360  1.00  0.00     0.206 C 
HETATM    8  C   UNL     1      28.935  48.468  39.153  1.00  0.00     0.206 C 
HETATM    9  N   UNL     1      27.508  48.666  38.901  1.00  0.00    -0.300 N 
HETATM   10  C   UNL     1      26.837  49.870  39.012  1.00  0.00     0.257 C 
HETATM   11  O   UNL     1      25.619  49.987  38.942  1.00  0.00    -0.267 OA
HETATM   12  C   UNL     1      26.161  47.359  37.186  1.00  0.00     0.081 C 
HETATM   13  C   UNL     1      24.693  47.770  37.232  1.00  0.00     0.131 C 
HETATM   14  O   UNL     1      21.971  47.294  37.150  1.00  0.00    -0.267 OA
ENDROOT
BRANCH   8  15
HETATM   15  C   UNL     1      29.305  48.255  40.636  1.00  0.00     0.243 C 
HETATM   16  N   UNL     1      30.456  48.885  41.046  1.00  0.00    -0.355 N 
HETATM   17  H   UNL     1      30.882  49.561  40.427  1.00  0.00     0.162 HD
HETATM   18  O   UNL     1      28.665  47.506  41.370  1.00  0.00    -0.271 OA
BRANCH  16  19
HETATM   19  C   UNL     1      30.950  48.802  42.398  1.00  0.00     0.161 C 
BRANCH  19  20
HETATM   20  C   UNL     1      32.092  49.767  42.576  1.00  0.00    -0.041 A 
HETATM   21  C   UNL     1      33.263  49.629  41.819  1.00  0.00     0.009 A 
HETATM   22  C   UNL     1      34.351  50.477  42.037  1.00  0.00     0.001 A 
HETATM   23  C   UNL     1      34.281  51.462  43.021  1.00  0.00     0.000 A 
HETATM   24  C   UNL     1      33.123  51.605  43.783  1.00  0.00     0.001 A 
HETATM   25  C   UNL     1      32.033  50.763  43.562  1.00  0.00     0.009 A 
ENDBRANCH  19  20
ENDBRANCH  16  19
ENDBRANCH   8  15
BRANCH  10  26
HETATM   26  C   UNL     1      27.583  51.111  39.315  1.00  0.00     0.032 A 
HETATM   27  C   UNL     1      27.801  51.538  40.625  1.00  0.00     0.020 A 
HETATM   28  C   UNL     1      28.538  52.703  40.854  1.00  0.00     0.038 A 
HETATM   29  C   UNL     1      29.090  53.423  39.788  1.00  0.00     0.068 A 
HETATM   30  C   UNL     1      28.905  52.966  38.483  1.00  0.00     0.038 A 
HETATM   31  C   UNL     1      28.160  51.807  38.248  1.00  0.00     0.020 A 
BRANCH  29  32
HETATM   32  O   UNL     1      29.791  54.539  40.154  1.00  0.00    -0.356 OA
HETATM   33  C   UNL     1      31.056  54.331  40.771  1.00  0.00     0.210 C 
ENDBRANCH  29  32
ENDBRANCH  10  26
BRANCH   1  34
HETATM   34  C   UNL     1      21.686  47.209  39.447  1.00  0.00     0.032 A 
HETATM   35  C   UNL     1      21.482  46.009  40.135  1.00  0.00     0.020 A 
HETATM   36  C   UNL     1      20.689  45.998  41.284  1.00  0.00     0.038 A 
HETATM   37  C   UNL     1      20.139  47.184  41.780  1.00  0.00     0.068 A 
HETATM   38  C   UNL     1      20.367  48.385  41.105  1.00  0.00     0.038 A 
HETATM   39  C   UNL     1      21.145  48.399  39.941  1.00  0.00     0.020 A 
BRANCH  37  40
HETATM   40  O   UNL     1      19.395  47.038  42.920  1.00  0.00    -0.356 OA
HETATM   41  C   UNL     1      19.403  45.744  43.513  1.00  0.00     0.210 C 
ENDBRANCH  37  40
ENDBRANCH   1  34
TORSDOF 7
ENDMDL
MODEL 4
REMARK VINA RESULT:      -7.6      8.627     13.787
REMARK  7 active torsions:
REMARK  status: ('A' for Active; 'I' for Inactive)
REMARK    1  A    between atoms: O_2  and  C_3 
REMARK    2  A    between atoms: C_6  and  C_7 
REMARK       I    between atoms: C_7  and  N_8 
REMARK    3  A    between atoms: C_14  and  C_15 
REMARK       I    between atoms: C_15  and  N_16 
REMARK    4  A    between atoms: N_16  and  C_17 
REMARK    5  A    between atoms: C_17  and  C_18 
REMARK       I    between atoms: N_25  and  C_26 
REMARK    6  A    between atoms: C_26  and  C_27 
REMARK    7  A    between atoms: C_30  and  O_31 
ROOT
HETATM    1  C   UNL     1      22.923  49.316  37.800  1.00  0.00     0.253 C 
HETATM    2  N   UNL     1      24.204  48.785  38.018  1.00  0.00    -0.348 N 
HETATM    3  C   UNL     1      24.791  48.661  39.350  1.00  0.00     0.131 C 
HETATM    4  C   UNL     1      25.886  47.618  39.417  1.00  0.00     0.081 C 
HETATM    5  C   UNL     1      26.957  47.763  38.334  1.00  0.00     0.142 C 
HETATM    6  O   UNL     1      27.637  46.469  38.346  1.00  0.00    -0.358 OA
HETATM    7  C   UNL     1      29.052  46.684  38.308  1.00  0.00     0.206 C 
HETATM    8  C   UNL     1      29.257  48.025  38.964  1.00  0.00     0.206 C 
HETATM    9  N   UNL     1      28.028  48.735  38.612  1.00  0.00    -0.300 N 
HETATM   10  C   UNL     1      27.884  50.110  38.572  1.00  0.00     0.257 C 
HETATM   11  O   UNL     1      26.812  50.685  38.421  1.00  0.00    -0.267 OA
HETATM   12  C   UNL     1      26.302  47.880  36.952  1.00  0.00     0.081 C 
HETATM   13  C   UNL     1      25.115  48.833  36.875  1.00  0.00     0.131 C 
HETATM   14  O   UNL     1      22.427  49.452  36.682  1.00  0.00    -0.267 OA
ENDROOT
BRANCH   8  15
HETATM   15  C   UNL     1      29.489  47.847  40.479  1.00  0.00     0.243 C 
HETATM   16  N   UNL     1      30.497  48.616  41.009  1.00  0.00    -0.355 N 
HETATM   17  H   UNL     1      30.896  49.349  40.437  1.00  0.00     0.162 HD
HETATM   18  O   UNL     1      28.877  47.013  41.142  1.00  0.00    -0.271 OA
BRANCH  16  19
HETATM   19  C   UNL     1      30.849  48.584  42.407  1.00  0.00     0.161 C 
BRANCH  19  20
HETATM   20  C   UNL     1      31.982  49.542  42.662  1.00  0.00    -0.041 A 
HETATM   21  C   UNL     1      31.841  50.576  43.597  1.00  0.00     0.009 A 
HETATM   22  C   UNL     1      32.864  51.509  43.780  1.00  0.00     0.001 A 
HETATM   23  C   UNL     1      34.031  51.422  43.023  1.00  0.00     0.000 A 
HETATM   24  C   UNL     1      34.180  50.401  42.087  1.00  0.00     0.001 A 
HETATM   25  C   UNL     1      33.161  49.464  41.907  1.00  0.00     0.009 A 
ENDBRANCH  19  20
ENDBRANCH  16  19
ENDBRANCH   8  15
BRANCH  10  26
HETATM   26  C   UNL     1      29.054  50.986  38.800  1.00  0.00     0.032 A 
HETATM   27  C   UNL     1      29.141  51.823  39.913  1.00  0.00     0.020 A 
HETATM   28  C   UNL     1      30.283  52.609  40.093  1.00  0.00     0.038 A 
HETATM   29  C   UNL     1      31.353  52.536  39.193  1.00  0.00     0.068 A 
HETATM   30  C   UNL     1      31.276  51.665  38.106  1.00  0.00     0.038 A 
HETATM   31  C   UNL     1      30.132  50.885  37.915  1.00  0.00     0.020 A 
BRANCH  29  32
HETATM   32  O   UNL     1      32.408  53.354  39.493  1.00  0.00    -0.356 OA
HETATM   33  C   UNL     1      33.709  52.792  39.381  1.00  0.00     0.210 C 
ENDBRANCH  29  32
ENDBRANCH  10  26
BRANCH   1  34
HETATM   34  C   UNL     1      22.095  49.735  38.956  1.00  0.00     0.032 A 
HETATM   35  C   UNL     1      22.140  51.046  39.438  1.00  0.00     0.020 A 
HETATM   36  C   UNL     1      21.329  51.415  40.513  1.00  0.00     0.038 A 
HETATM   37  C   UNL     1      20.437  50.499  41.078  1.00  0.00     0.068 A 
HETATM   38  C   UNL     1      20.376  49.197  40.576  1.00  0.00     0.038 A 
HETATM   39  C   UNL     1      21.200  48.816  39.512  1.00  0.00     0.020 A 
BRANCH  37  40
HETATM   40  O   UNL     1      19.690  50.991  42.114  1.00  0.00    -0.356 OA
HETATM   41  C   UNL     1      18.539  50.234  42.474  1.00  0.00     0.210 C 
ENDBRANCH  37  40
ENDBRANCH   1  34
TORSDOF 7
ENDMDL
MODEL 5
REMARK VINA RESULT:      -7.5      8.591     12.906
REMARK  7 active torsions:
REMARK  status: ('A' for Active; 'I' for Inactive)
REMARK    1  A    between atoms: O_2  and  C_3 
REMARK    2  A    between atoms: C_6  and  C_7 
REMARK       I    between atoms: C_7  and  N_8 
REMARK    3  A    between atoms: C_14  and  C_15 
REMARK       I    between atoms: C_15  and  N_16 
REMARK    4  A    between atoms: N_16  and  C_17 
REMARK    5  A    between atoms: C_17  and  C_18 
REMARK       I    between atoms: N_25  and  C_26 
REMARK    6  A    between atoms: C_26  and  C_27 
REMARK    7  A    between atoms: C_30  and  O_31 
ROOT
HETATM    1  C   UNL     1      23.069  45.973  40.293  1.00  0.00     0.253 C 
HETATM    2  N   UNL     1      24.416  46.176  39.951  1.00  0.00    -0.348 N 
HETATM    3  C   UNL     1      25.485  46.223  40.946  1.00  0.00     0.131 C 
HETATM    4  C   UNL     1      26.847  45.916  40.363  1.00  0.00     0.081 C 
HETATM    5  C   UNL     1      27.193  46.732  39.116  1.00  0.00     0.142 C 
HETATM    6  O   UNL     1      28.313  46.001  38.526  1.00  0.00    -0.358 OA
HETATM    7  C   UNL     1      29.332  46.933  38.146  1.00  0.00     0.206 C 
HETATM    8  C   UNL     1      29.170  48.090  39.097  1.00  0.00     0.206 C 
HETATM    9  N   UNL     1      27.732  48.081  39.358  1.00  0.00    -0.300 N 
HETATM   10  C   UNL     1      26.992  49.166  39.791  1.00  0.00     0.257 C 
HETATM   11  O   UNL     1      25.821  49.102  40.147  1.00  0.00    -0.267 OA
HETATM   12  C   UNL     1      26.053  46.650  38.093  1.00  0.00     0.081 C 
HETATM   13  C   UNL     1      24.653  46.834  38.667  1.00  0.00     0.131 C 
HETATM   14  O   UNL     1      22.156  45.959  39.469  1.00  0.00    -0.267 OA
ENDROOT
BRANCH   8  15
HETATM   15  C   UNL     1      30.055  47.883  40.344  1.00  0.00     0.243 C 
HETATM   16  N   UNL     1      31.408  47.976  40.121  1.00  0.00    -0.355 N 
HETATM   17  H   UNL     1      31.727  48.331  39.229  1.00  0.00     0.162 HD
HETATM   18  O   UNL     1      29.586  47.569  41.435  1.00  0.00    -0.271 OA
BRANCH  16  19
HETATM   19  C   UNL     1      32.383  47.817  41.171  1.00  0.00     0.161 C 
BRANCH  19  20
HETATM   20  C   UNL     1      32.654  49.152  41.813  1.00  0.00    -0.041 A 
HETATM   21  C   UNL     1      33.814  49.871  41.496  1.00  0.00     0.009 A 
HETATM   22  C   UNL     1      34.103  51.072  42.146  1.00  0.00     0.001 A 
HETATM   23  C   UNL     1      33.240  51.559  43.127  1.00  0.00     0.000 A 
HETATM   24  C   UNL     1      32.086  50.850  43.454  1.00  0.00     0.001 A 
HETATM   25  C   UNL     1      31.792  49.652  42.800  1.00  0.00     0.009 A 
ENDBRANCH  19  20
ENDBRANCH  16  19
ENDBRANCH   8  15
BRANCH  10  26
HETATM   26  C   UNL     1      27.631  50.493  39.930  1.00  0.00     0.032 A 
HETATM   27  C   UNL     1      28.036  50.990  41.168  1.00  0.00     0.020 A 
HETATM   28  C   UNL     1      28.661  52.239  41.237  1.00  0.00     0.038 A 
HETATM   29  C   UNL     1      28.918  52.976  40.074  1.00  0.00     0.068 A 
HETATM   30  C   UNL     1      28.549  52.453  38.835  1.00  0.00     0.038 A 
HETATM   31  C   UNL     1      27.914  51.210  38.762  1.00  0.00     0.020 A 
BRANCH  29  32
HETATM   32  O   UNL     1      29.539  54.176  40.285  1.00  0.00    -0.356 OA
HETATM   33  C   UNL     1      30.909  54.134  40.667  1.00  0.00     0.210 C 
ENDBRANCH  29  32
ENDBRANCH  10  26
BRANCH   1  34
HETATM   34  C   UNL     1      22.697  45.750  41.710  1.00  0.00     0.032 A 
HETATM   35  C   UNL     1      21.502  46.255  42.230  1.00  0.00     0.020 A 
HETATM   36  C   UNL     1      21.167  46.006  43.563  1.00  0.00     0.038 A 
HETATM   37  C   UNL     1      21.993  45.214  44.367  1.00  0.00     0.068 A 
HETATM   38  C   UNL     1      23.173  44.689  43.836  1.00  0.00     0.038 A 
HETATM   39  C   UNL     1      23.523  44.952  42.507  1.00  0.00     0.020 A 
BRANCH  37  40
HETATM   40  O   UNL     1      21.545  45.036  45.647  1.00  0.00    -0.356 OA
HETATM   41  C   UNL     1      21.213  46.218  46.367  1.00  0.00     0.210 C 
ENDBRANCH  37  40
ENDBRANCH   1  34
TORSDOF 7
ENDMDL
MODEL 6
REMARK VINA RESULT:      -7.4      2.684      8.571
REMARK  7 active torsions:
REMARK  status: ('A' for Active; 'I' for Inactive)
REMARK    1  A    between atoms: O_2  and  C_3 
REMARK    2  A    between atoms: C_6  and  C_7 
REMARK       I    between atoms: C_7  and  N_8 
REMARK    3  A    between atoms: C_14  and  C_15 
REMARK       I    between atoms: C_15  and  N_16 
REMARK    4  A    between atoms: N_16  and  C_17 
REMARK    5  A    between atoms: C_17  and  C_18 
REMARK       I    between atoms: N_25  and  C_26 
REMARK    6  A    between atoms: C_26  and  C_27 
REMARK    7  A    between atoms: C_30  and  O_31 
ROOT
HETATM    1  C   UNL     1      17.282  46.732  44.242  1.00  0.00     0.253 C 
HETATM    2  N   UNL     1      17.546  47.165  45.552  1.00  0.00    -0.348 N 
HETATM    3  C   UNL     1      17.752  48.570  45.892  1.00  0.00     0.131 C 
HETATM    4  C   UNL     1      17.489  48.869  47.352  1.00  0.00     0.081 C 
HETATM    5  C   UNL     1      18.214  47.934  48.324  1.00  0.00     0.142 C 
HETATM    6  O   UNL     1      17.512  48.140  49.589  1.00  0.00    -0.358 OA
HETATM    7  C   UNL     1      18.475  48.281  50.640  1.00  0.00     0.206 C 
HETATM    8  C   UNL     1      19.697  48.851  49.970  1.00  0.00     0.206 C 
HETATM    9  N   UNL     1      19.613  48.280  48.627  1.00  0.00    -0.300 N 
HETATM   10  C   UNL     1      20.679  48.113  47.762  1.00  0.00     0.257 C 
HETATM   11  O   UNL     1      20.567  47.772  46.590  1.00  0.00    -0.267 OA
HETATM   12  C   UNL     1      17.964  46.470  47.939  1.00  0.00     0.081 C 
HETATM   13  C   UNL     1      18.102  46.158  46.454  1.00  0.00     0.131 C 
HETATM   14  O   UNL     1      17.133  45.549  43.936  1.00  0.00    -0.267 OA
ENDROOT
BRANCH   8  15
HETATM   15  C   UNL     1      19.661  50.393  50.021  1.00  0.00     0.243 C 
HETATM   16  N   UNL     1      18.406  50.949  49.964  1.00  0.00    -0.355 N 
HETATM   17  H   UNL     1      17.604  50.341  50.063  1.00  0.00     0.162 HD
HETATM   18  O   UNL     1      20.685  51.073  50.021  1.00  0.00    -0.271 OA
BRANCH  16  19
HETATM   19  C   UNL     1      18.182  52.373  50.006  1.00  0.00     0.161 C 
BRANCH  19  20
HETATM   20  C   UNL     1      16.870  52.696  49.341  1.00  0.00    -0.041 A 
HETATM   21  C   UNL     1      16.597  52.234  48.047  1.00  0.00     0.009 A 
HETATM   22  C   UNL     1      15.414  52.596  47.401  1.00  0.00     0.001 A 
HETATM   23  C   UNL     1      14.498  53.431  48.039  1.00  0.00     0.000 A 
HETATM   24  C   UNL     1      14.762  53.901  49.324  1.00  0.00     0.001 A 
HETATM   25  C   UNL     1      15.942  53.535  49.973  1.00  0.00     0.009 A 
ENDBRANCH  19  20
ENDBRANCH  16  19
ENDBRANCH   8  15
BRANCH  10  26
HETATM   26  C   UNL     1      22.053  48.430  48.207  1.00  0.00     0.032 A 
HETATM   27  C   UNL     1      22.808  47.534  48.964  1.00  0.00     0.020 A 
HETATM   28  C   UNL     1      24.113  47.875  49.332  1.00  0.00     0.038 A 
HETATM   29  C   UNL     1      24.682  49.085  48.919  1.00  0.00     0.068 A 
HETATM   30  C   UNL     1      23.936  49.958  48.126  1.00  0.00     0.038 A 
HETATM   31  C   UNL     1      22.627  49.627  47.763  1.00  0.00     0.020 A 
BRANCH  29  32
HETATM   32  O   UNL     1      25.965  49.288  49.345  1.00  0.00    -0.356 OA
HETATM   33  C   UNL     1      26.696  48.140  49.756  1.00  0.00     0.210 C 
ENDBRANCH  29  32
ENDBRANCH  10  26
BRANCH   1  34
HETATM   34  C   UNL     1      17.159  47.727  43.150  1.00  0.00     0.032 A 
HETATM   35  C   UNL     1      18.281  48.146  42.428  1.00  0.00     0.020 A 
HETATM   36  C   UNL     1      18.129  49.066  41.388  1.00  0.00     0.038 A 
HETATM   37  C   UNL     1      16.860  49.534  41.033  1.00  0.00     0.068 A 
HETATM   38  C   UNL     1      15.739  49.092  41.740  1.00  0.00     0.038 A 
HETATM   39  C   UNL     1      15.888  48.186  42.795  1.00  0.00     0.020 A 
BRANCH  37  40
HETATM   40  O   UNL     1      16.847  50.419  39.989  1.00  0.00    -0.356 OA
HETATM   41  C   UNL     1      18.097  50.651  39.348  1.00  0.00     0.210 C 
ENDBRANCH  37  40
ENDBRANCH   1  34
TORSDOF 7
ENDMDL
MODEL 7
REMARK VINA RESULT:      -7.3      5.816     10.220
REMARK  7 active torsions:
REMARK  status: ('A' for Active; 'I' for Inactive)
REMARK    1  A    between atoms: O_2  and  C_3 
REMARK    2  A    between atoms: C_6  and  C_7 
REMARK       I    between atoms: C_7  and  N_8 
REMARK    3  A    between atoms: C_14  and  C_15 
REMARK       I    between atoms: C_15  and  N_16 
REMARK    4  A    between atoms: N_16  and  C_17 
REMARK    5  A    between atoms: C_17  and  C_18 
REMARK       I    between atoms: N_25  and  C_26 
REMARK    6  A    between atoms: C_26  and  C_27 
REMARK    7  A    between atoms: C_30  and  O_31 
ROOT
HETATM    1  C   UNL     1      22.996  42.660  43.637  1.00  0.00     0.253 C 
HETATM    2  N   UNL     1      22.393  43.472  44.611  1.00  0.00    -0.348 N 
HETATM    3  C   UNL     1      22.705  44.891  44.759  1.00  0.00     0.131 C 
HETATM    4  C   UNL     1      21.610  45.666  45.460  1.00  0.00     0.081 C 
HETATM    5  C   UNL     1      21.147  45.043  46.780  1.00  0.00     0.142 C 
HETATM    6  O   UNL     1      19.869  45.702  47.042  1.00  0.00    -0.358 OA
HETATM    7  C   UNL     1      19.822  46.100  48.417  1.00  0.00     0.206 C 
HETATM    8  C   UNL     1      21.261  46.326  48.803  1.00  0.00     0.206 C 
HETATM    9  N   UNL     1      21.965  45.359  47.963  1.00  0.00    -0.300 N 
HETATM   10  C   UNL     1      23.219  44.839  48.224  1.00  0.00     0.257 C 
HETATM   11  O   UNL     1      23.855  44.147  47.437  1.00  0.00    -0.267 OA
HETATM   12  C   UNL     1      20.820  43.558  46.580  1.00  0.00     0.081 C 
HETATM   13  C   UNL     1      21.846  42.771  45.772  1.00  0.00     0.131 C 
HETATM   14  O   UNL     1      22.763  41.457  43.519  1.00  0.00    -0.267 OA
ENDROOT
BRANCH   8  15
HETATM   15  C   UNL     1      21.651  47.799  48.560  1.00  0.00     0.243 C 
HETATM   16  N   UNL     1      21.229  48.682  49.524  1.00  0.00    -0.355 N 
HETATM   17  H   UNL     1      20.852  48.310  50.386  1.00  0.00     0.162 HD
HETATM   18  O   UNL     1      22.221  48.165  47.534  1.00  0.00    -0.271 OA
BRANCH  16  19
HETATM   19  C   UNL     1      21.509  50.095  49.465  1.00  0.00     0.161 C 
BRANCH  19  20
HETATM   20  C   UNL     1      20.216  50.861  49.371  1.00  0.00    -0.041 A 
HETATM   21  C   UNL     1      19.106  50.477  50.134  1.00  0.00     0.009 A 
HETATM   22  C   UNL     1      17.885  51.140  49.992  1.00  0.00     0.001 A 
HETATM   23  C   UNL     1      17.763  52.186  49.079  1.00  0.00     0.000 A 
HETATM   24  C   UNL     1      18.859  52.574  48.311  1.00  0.00     0.001 A 
HETATM   25  C   UNL     1      20.081  51.916  48.457  1.00  0.00     0.009 A 
ENDBRANCH  19  20
ENDBRANCH  16  19
ENDBRANCH   8  15
BRANCH  10  26
HETATM   26  C   UNL     1      23.915  45.176  49.485  1.00  0.00     0.032 A 
HETATM   27  C   UNL     1      23.828  44.362  50.615  1.00  0.00     0.020 A 
HETATM   28  C   UNL     1      24.530  44.715  51.771  1.00  0.00     0.038 A 
HETATM   29  C   UNL     1      25.348  45.850  51.794  1.00  0.00     0.068 A 
HETATM   30  C   UNL     1      25.465  46.635  50.647  1.00  0.00     0.038 A 
HETATM   31  C   UNL     1      24.757  46.294  49.491  1.00  0.00     0.020 A 
BRANCH  29  32
HETATM   32  O   UNL     1      25.981  46.074  52.986  1.00  0.00    -0.356 OA
HETATM   33  C   UNL     1      25.618  45.233  54.075  1.00  0.00     0.210 C 
ENDBRANCH  29  32
ENDBRANCH  10  26
BRANCH   1  34
HETATM   34  C   UNL     1      23.958  43.255  42.679  1.00  0.00     0.032 A 
HETATM   35  C   UNL     1      25.336  43.185  42.905  1.00  0.00     0.020 A 
HETATM   36  C   UNL     1      26.218  43.732  41.970  1.00  0.00     0.038 A 
HETATM   37  C   UNL     1      25.737  44.305  40.789  1.00  0.00     0.068 A 
HETATM   38  C   UNL     1      24.361  44.349  40.555  1.00  0.00     0.038 A 
HETATM   39  C   UNL     1      23.471  43.819  41.497  1.00  0.00     0.020 A 
BRANCH  37  40
HETATM   40  O   UNL     1      26.705  44.791  39.952  1.00  0.00    -0.356 OA
HETATM   41  C   UNL     1      28.029  44.325  40.186  1.00  0.00     0.210 C 
ENDBRANCH  37  40
ENDBRANCH   1  34
TORSDOF 7
ENDMDL
MODEL 8
REMARK VINA RESULT:      -7.3      2.041      3.013
REMARK  7 active torsions:
REMARK  status: ('A' for Active; 'I' for Inactive)
REMARK    1  A    between atoms: O_2  and  C_3 
REMARK    2  A    between atoms: C_6  and  C_7 
REMARK       I    between atoms: C_7  and  N_8 
REMARK    3  A    between atoms: C_14  and  C_15 
REMARK       I    between atoms: C_15  and  N_16 
REMARK    4  A    between atoms: N_16  and  C_17 
REMARK    5  A    between atoms: C_17  and  C_18 
REMARK       I    between atoms: N_25  and  C_26 
REMARK    6  A    between atoms: C_26  and  C_27 
REMARK    7  A    between atoms: C_30  and  O_31 
ROOT
HETATM    1  C   UNL     1      20.236  50.207  49.560  1.00  0.00     0.253 C 
HETATM    2  N   UNL     1      19.116  49.912  48.766  1.00  0.00    -0.348 N 
HETATM    3  C   UNL     1      19.221  49.542  47.357  1.00  0.00     0.131 C 
HETATM    4  C   UNL     1      18.019  48.773  46.857  1.00  0.00     0.081 C 
HETATM    5  C   UNL     1      16.675  49.435  47.173  1.00  0.00     0.142 C 
HETATM    6  O   UNL     1      15.706  48.359  46.974  1.00  0.00    -0.358 OA
HETATM    7  C   UNL     1      14.595  48.863  46.222  1.00  0.00     0.206 C 
HETATM    8  C   UNL     1      15.169  49.978  45.387  1.00  0.00     0.206 C 
HETATM    9  N   UNL     1      16.241  50.488  46.241  1.00  0.00    -0.300 N 
HETATM   10  C   UNL     1      16.783  51.758  46.167  1.00  0.00     0.257 C 
HETATM   11  O   UNL     1      17.778  52.118  46.787  1.00  0.00    -0.267 OA
HETATM   12  C   UNL     1      16.599  49.797  48.661  1.00  0.00     0.081 C 
HETATM   13  C   UNL     1      17.845  50.467  49.230  1.00  0.00     0.131 C 
HETATM   14  O   UNL     1      20.159  50.546  50.741  1.00  0.00    -0.267 OA
ENDROOT
BRANCH   8  15
HETATM   15  C   UNL     1      15.635  49.433  44.020  1.00  0.00     0.243 C 
HETATM   16  N   UNL     1      15.759  48.066  43.948  1.00  0.00    -0.355 N 
HETATM   17  H   UNL     1      15.388  47.508  44.706  1.00  0.00     0.162 HD
HETATM   18  O   UNL     1      15.957  50.174  43.095  1.00  0.00    -0.271 OA
BRANCH  16  19
HETATM   19  C   UNL     1      16.175  47.383  42.749  1.00  0.00     0.161 C 
BRANCH  19  20
HETATM   20  C   UNL     1      15.353  46.135  42.569  1.00  0.00    -0.041 A 
HETATM   21  C   UNL     1      15.963  44.874  42.586  1.00  0.00     0.009 A 
HETATM   22  C   UNL     1      15.213  43.721  42.344  1.00  0.00     0.001 A 
HETATM   23  C   UNL     1      13.849  43.821  42.073  1.00  0.00     0.000 A 
HETATM   24  C   UNL     1      13.233  45.070  42.047  1.00  0.00     0.001 A 
HETATM   25  C   UNL     1      13.980  46.223  42.295  1.00  0.00     0.009 A 
ENDBRANCH  19  20
ENDBRANCH  16  19
ENDBRANCH   8  15
BRANCH  10  26
HETATM   26  C   UNL     1      16.214  52.757  45.237  1.00  0.00     0.032 A 
HETATM   27  C   UNL     1      15.034  53.443  45.524  1.00  0.00     0.020 A 
HETATM   28  C   UNL     1      14.556  54.397  44.621  1.00  0.00     0.038 A 
HETATM   29  C   UNL     1      15.268  54.699  43.454  1.00  0.00     0.068 A 
HETATM   30  C   UNL     1      16.470  54.040  43.194  1.00  0.00     0.038 A 
HETATM   31  C   UNL     1      16.947  53.077  44.089  1.00  0.00     0.020 A 
BRANCH  29  32
HETATM   32  O   UNL     1      14.691  55.655  42.664  1.00  0.00    -0.356 OA
HETATM   33  C   UNL     1      14.446  56.922  43.262  1.00  0.00     0.210 C 
ENDBRANCH  29  32
ENDBRANCH  10  26
BRANCH   1  34
HETATM   34  C   UNL     1      21.595  50.102  48.979  1.00  0.00     0.032 A 
HETATM   35  C   UNL     1      22.223  51.214  48.410  1.00  0.00     0.020 A 
HETATM   36  C   UNL     1      23.515  51.089  47.894  1.00  0.00     0.038 A 
HETATM   37  C   UNL     1      24.203  49.876  47.986  1.00  0.00     0.068 A 
HETATM   38  C   UNL     1      23.582  48.775  48.579  1.00  0.00     0.038 A 
HETATM   39  C   UNL     1      22.281  48.889  49.081  1.00  0.00     0.020 A 
BRANCH  37  40
HETATM   40  O   UNL     1      25.464  49.891  47.455  1.00  0.00    -0.356 OA
HETATM   41  C   UNL     1      26.538  49.787  48.384  1.00  0.00     0.210 C 
ENDBRANCH  37  40
ENDBRANCH   1  34
TORSDOF 7
ENDMDL
MODEL 9
REMARK VINA RESULT:      -7.2      1.703      2.386
REMARK  7 active torsions:
REMARK  status: ('A' for Active; 'I' for Inactive)
REMARK    1  A    between atoms: O_2  and  C_3 
REMARK    2  A    between atoms: C_6  and  C_7 
REMARK       I    between atoms: C_7  and  N_8 
REMARK    3  A    between atoms: C_14  and  C_15 
REMARK       I    between atoms: C_15  and  N_16 
REMARK    4  A    between atoms: N_16  and  C_17 
REMARK    5  A    between atoms: C_17  and  C_18 
REMARK       I    between atoms: N_25  and  C_26 
REMARK    6  A    between atoms: C_26  and  C_27 
REMARK    7  A    between atoms: C_30  and  O_31 
ROOT
HETATM    1  C   UNL     1      20.191  50.067  49.524  1.00  0.00     0.253 C 
HETATM    2  N   UNL     1      19.121  49.778  48.662  1.00  0.00    -0.348 N 
HETATM    3  C   UNL     1      19.307  49.493  47.241  1.00  0.00     0.131 C 
HETATM    4  C   UNL     1      18.160  48.710  46.641  1.00  0.00     0.081 C 
HETATM    5  C   UNL     1      16.778  49.304  46.928  1.00  0.00     0.142 C 
HETATM    6  O   UNL     1      15.862  48.207  46.623  1.00  0.00    -0.358 OA
HETATM    7  C   UNL     1      14.769  48.712  45.847  1.00  0.00     0.206 C 
HETATM    8  C   UNL     1      15.337  49.893  45.103  1.00  0.00     0.206 C 
HETATM    9  N   UNL     1      16.347  50.392  46.035  1.00  0.00    -0.300 N 
HETATM   10  C   UNL     1      16.843  51.683  46.058  1.00  0.00     0.257 C 
HETATM   11  O   UNL     1      17.792  52.043  46.745  1.00  0.00    -0.267 OA
HETATM   12  C   UNL     1      16.619  49.578  48.428  1.00  0.00     0.081 C 
HETATM   13  C   UNL     1      17.810  50.259  49.093  1.00  0.00     0.131 C 
HETATM   14  O   UNL     1      20.047  50.336  50.717  1.00  0.00    -0.267 OA
ENDROOT
BRANCH   8  15
HETATM   15  C   UNL     1      15.887  49.444  43.733  1.00  0.00     0.243 C 
HETATM   16  N   UNL     1      16.292  48.132  43.668  1.00  0.00    -0.355 N 
HETATM   17  H   UNL     1      16.058  47.517  44.435  1.00  0.00     0.162 HD
HETATM   18  O   UNL     1      16.033  50.227  42.797  1.00  0.00    -0.271 OA
BRANCH  16  19
HETATM   19  C   UNL     1      16.825  47.540  42.467  1.00  0.00     0.161 C 
BRANCH  19  20
HETATM   20  C   UNL     1      18.232  47.067  42.720  1.00  0.00    -0.041 A 
HETATM   21  C   UNL     1      19.239  47.293  41.771  1.00  0.00     0.009 A 
HETATM   22  C   UNL     1      20.525  46.789  41.971  1.00  0.00     0.001 A 
HETATM   23  C   UNL     1      20.814  46.047  43.116  1.00  0.00     0.000 A 
HETATM   24  C   UNL     1      19.819  45.812  44.063  1.00  0.00     0.001 A 
HETATM   25  C   UNL     1      18.534  46.320  43.867  1.00  0.00     0.009 A 
ENDBRANCH  19  20
ENDBRANCH  16  19
ENDBRANCH   8  15
BRANCH  10  26
HETATM   26  C   UNL     1      16.278  52.712  45.157  1.00  0.00     0.032 A 
HETATM   27  C   UNL     1      15.095  53.386  45.458  1.00  0.00     0.020 A 
HETATM   28  C   UNL     1      14.622  54.369  44.585  1.00  0.00     0.038 A 
HETATM   29  C   UNL     1      15.343  54.712  43.434  1.00  0.00     0.068 A 
HETATM   30  C   UNL     1      16.549  54.064  43.162  1.00  0.00     0.038 A 
HETATM   31  C   UNL     1      17.020  53.072  44.027  1.00  0.00     0.020 A 
BRANCH  29  32
HETATM   32  O   UNL     1      14.770  55.693  42.672  1.00  0.00    -0.356 OA
HETATM   33  C   UNL     1      13.370  55.593  42.441  1.00  0.00     0.210 C 
ENDBRANCH  29  32
ENDBRANCH  10  26
BRANCH   1  34
HETATM   34  C   UNL     1      21.579  50.046  49.005  1.00  0.00     0.032 A 
HETATM   35  C   UNL     1      22.316  48.858  48.967  1.00  0.00     0.020 A 
HETATM   36  C   UNL     1      23.613  48.866  48.449  1.00  0.00     0.038 A 
HETATM   37  C   UNL     1      24.161  50.040  47.922  1.00  0.00     0.068 A 
HETATM   38  C   UNL     1      23.411  51.218  47.938  1.00  0.00     0.038 A 
HETATM   39  C   UNL     1      22.119  51.220  48.474  1.00  0.00     0.020 A 
BRANCH  37  40
HETATM   40  O   UNL     1      25.432  49.909  47.433  1.00  0.00    -0.356 OA
HETATM   41  C   UNL     1      26.471  49.812  48.402  1.00  0.00     0.210 C 
ENDBRANCH  37  40
ENDBRANCH   1  34
TORSDOF 7
ENDMDL
MODEL 10
REMARK VINA RESULT:      -7.2     10.542     14.657
REMARK  7 active torsions:
REMARK  status: ('A' for Active; 'I' for Inactive)
REMARK    1  A    between atoms: O_2  and  C_3 
REMARK    2  A    between atoms: C_6  and  C_7 
REMARK       I    between atoms: C_7  and  N_8 
REMARK    3  A    between atoms: C_14  and  C_15 
REMARK       I    between atoms: C_15  and  N_16 
REMARK    4  A    between atoms: N_16  and  C_17 
REMARK    5  A    between atoms: C_17  and  C_18 
REMARK       I    between atoms: N_25  and  C_26 
REMARK    6  A    between atoms: C_26  and  C_27 
REMARK    7  A    between atoms: C_30  and  O_31 
ROOT
HETATM    1  C   UNL     1      20.022  38.708  45.554  1.00  0.00     0.253 C 
HETATM    2  N   UNL     1      21.362  39.082  45.747  1.00  0.00    -0.348 N 
HETATM    3  C   UNL     1      22.174  38.571  46.848  1.00  0.00     0.131 C 
HETATM    4  C   UNL     1      23.660  38.659  46.576  1.00  0.00     0.081 C 
HETATM    5  C   UNL     1      24.131  40.041  46.114  1.00  0.00     0.142 C 
HETATM    6  O   UNL     1      25.451  39.780  45.543  1.00  0.00    -0.358 OA
HETATM    7  C   UNL     1      26.369  40.775  46.014  1.00  0.00     0.206 C 
HETATM    8  C   UNL     1      25.829  41.193  47.356  1.00  0.00     0.206 C 
HETATM    9  N   UNL     1      24.387  41.024  47.180  1.00  0.00    -0.300 N 
HETATM   10  C   UNL     1      23.412  41.668  47.918  1.00  0.00     0.257 C 
HETATM   11  O   UNL     1      22.216  41.403  47.858  1.00  0.00    -0.267 OA
HETATM   12  C   UNL     1      23.262  40.537  44.952  1.00  0.00     0.081 C 
HETATM   13  C   UNL     1      21.761  40.352  45.140  1.00  0.00     0.131 C 
HETATM   14  O   UNL     1      19.319  39.153  44.647  1.00  0.00    -0.267 OA
ENDROOT
BRANCH   8  15
HETATM   15  C   UNL     1      26.450  40.327  48.473  1.00  0.00     0.243 C 
HETATM   16  N   UNL     1      26.994  41.029  49.521  1.00  0.00    -0.355 N 
HETATM   17  H   UNL     1      26.813  42.022  49.582  1.00  0.00     0.162 HD
HETATM   18  O   UNL     1      26.529  39.104  48.386  1.00  0.00    -0.271 OA
BRANCH  16  19
HETATM   19  C   UNL     1      27.611  40.385  50.654  1.00  0.00     0.161 C 
BRANCH  19  20
HETATM   20  C   UNL     1      28.014  41.425  51.666  1.00  0.00    -0.041 A 
HETATM   21  C   UNL     1      27.738  42.780  51.441  1.00  0.00     0.009 A 
HETATM   22  C   UNL     1      28.178  43.751  52.343  1.00  0.00     0.001 A 
HETATM   23  C   UNL     1      28.906  43.376  53.471  1.00  0.00     0.000 A 
HETATM   24  C   UNL     1      29.191  42.032  53.702  1.00  0.00     0.001 A 
HETATM   25  C   UNL     1      28.746  41.060  52.805  1.00  0.00     0.009 A 
ENDBRANCH  19  20
ENDBRANCH  16  19
ENDBRANCH   8  15
BRANCH  10  26
HETATM   26  C   UNL     1      23.790  42.692  48.916  1.00  0.00     0.032 A 
HETATM   27  C   UNL     1      23.877  42.399  50.277  1.00  0.00     0.020 A 
HETATM   28  C   UNL     1      24.267  43.399  51.172  1.00  0.00     0.038 A 
HETATM   29  C   UNL     1      24.609  44.677  50.714  1.00  0.00     0.068 A 
HETATM   30  C   UNL     1      24.562  44.951  49.347  1.00  0.00     0.038 A 
HETATM   31  C   UNL     1      24.162  43.958  48.448  1.00  0.00     0.020 A 
BRANCH  29  32
HETATM   32  O   UNL     1      24.978  45.556  51.695  1.00  0.00    -0.356 OA
HETATM   33  C   UNL     1      25.384  46.853  51.278  1.00  0.00     0.210 C 
ENDBRANCH  29  32
ENDBRANCH  10  26
BRANCH   1  34
HETATM   34  C   UNL     1      19.397  37.722  46.466  1.00  0.00     0.032 A 
HETATM   35  C   UNL     1      19.376  36.360  46.150  1.00  0.00     0.020 A 
HETATM   36  C   UNL     1      18.802  35.452  47.042  1.00  0.00     0.038 A 
HETATM   37  C   UNL     1      18.293  35.887  48.269  1.00  0.00     0.068 A 
HETATM   38  C   UNL     1      18.339  37.245  48.592  1.00  0.00     0.038 A 
HETATM   39  C   UNL     1      18.895  38.162  47.694  1.00  0.00     0.020 A 
BRANCH  37  40
HETATM   40  O   UNL     1      17.771  34.896  49.056  1.00  0.00    -0.356 OA
HETATM   41  C   UNL     1      18.268  33.583  48.824  1.00  0.00     0.210 C 
ENDBRANCH  37  40
ENDBRANCH   1  34
TORSDOF 7
ENDMDL
