MODEL 1
REMARK VINA RESULT:      -8.1      0.000      0.000
REMARK  9 active torsions:
REMARK  status: ('A' for Active; 'I' for Inactive)
REMARK    1  A    between atoms: C_2  and  O_3 
REMARK    2  A    between atoms: O_3  and  C_4 
REMARK    3  A    between atoms: C_4  and  C_5 
REMARK    4  A    between atoms: C_10  and  N_11 
REMARK       I    between atoms: N_11  and  C_12 
REMARK    5  A    between atoms: C_12  and  C_13 
REMARK    6  A    between atoms: C_13  and  N_14 
REMARK    7  A    between atoms: C_16  and  C_17 
REMARK    8  A    between atoms: C_17  and  C_18 
REMARK    9  A    between atoms: C_18  and  O_19 
ROOT
HETATM    1  C   UNL     1      27.596  44.555  53.041  1.00  0.00     0.137 A 
HETATM    2  N   UNL     1      27.679  45.499  54.034  1.00  0.00    -0.349 N 
HETATM    3  H   UNL     1      27.083  46.315  54.097  1.00  0.00     0.166 HD
HETATM    4  C   UNL     1      28.684  45.191  54.915  1.00  0.00     0.045 A 
HETATM    5  C   UNL     1      29.277  44.001  54.478  1.00  0.00     0.021 A 
HETATM    6  C   UNL     1      28.565  43.592  53.301  1.00  0.00     0.080 A 
HETATM    7  C   UNL     1      29.104  45.892  56.053  1.00  0.00     0.032 A 
HETATM    8  C   UNL     1      30.182  45.378  56.775  1.00  0.00     0.026 A 
HETATM    9  C   UNL     1      30.813  44.213  56.359  1.00  0.00     0.035 A 
HETATM   10 CL   UNL     1      32.155  43.608  57.253  1.00  0.00    -0.084 Cl
HETATM   11  C   UNL     1      30.382  43.523  55.220  1.00  0.00     0.040 A 
ENDROOT
BRANCH   6  12
HETATM   12  N   UNL     1      28.692  42.496  52.447  1.00  0.00    -0.323 N 
HETATM   13  C   UNL     1      28.442  41.179  52.731  1.00  0.00     0.248 C 
HETATM   14  O   UNL     1      27.993  40.696  53.769  1.00  0.00    -0.271 OA
HETATM   15  H   UNL     1      28.877  42.761  51.477  1.00  0.00     0.169 HD
BRANCH  13  16
HETATM   16  C   UNL     1      28.714  40.229  51.562  1.00  0.00     0.338 C 
BRANCH  16  17
HETATM   17  N   UNL     1      27.876  40.626  50.336  1.00  0.00    -0.059 N 
HETATM   18  H   UNL     1      27.981  41.657  50.337  1.00  0.00     0.280 HD
HETATM   19  C   UNL     1      28.461  40.194  48.986  1.00  0.00     0.190 C 
HETATM   20  C   UNL     1      27.646  40.904  47.895  1.00  0.00     0.033 C 
HETATM   21  C   UNL     1      26.148  40.633  48.005  1.00  0.00     0.004 C 
HETATM   22  C   UNL     1      25.622  40.996  49.390  1.00  0.00     0.028 C 
HETATM   23  C   UNL     1      26.411  40.331  50.507  1.00  0.00     0.236 C 
BRANCH  19  24
HETATM   24  C   UNL     1      28.502  38.665  48.855  1.00  0.00     0.059 C 
BRANCH  24  25
HETATM   25  C   UNL     1      29.916  38.093  48.901  1.00  0.00     0.166 C 
BRANCH  25  26
HETATM   26  O   UNL     1      30.008  37.284  50.064  1.00  0.00    -0.401 OA
HETATM   27  H   UNL     1      29.815  36.364  49.806  1.00  0.00     0.209 HD
ENDBRANCH  25  26
ENDBRANCH  24  25
ENDBRANCH  19  24
ENDBRANCH  16  17
ENDBRANCH  13  16
ENDBRANCH   6  12
BRANCH   1  28
HETATM   28  C   UNL     1      26.642  44.587  51.959  1.00  0.00     0.312 C 
HETATM   29  O   UNL     1      26.814  44.014  50.889  1.00  0.00    -0.258 OA
BRANCH  28  30
HETATM   30  O   UNL     1      25.560  45.329  52.309  1.00  0.00    -0.317 OA
BRANCH  30  31
HETATM   31  C   UNL     1      25.056  46.213  51.296  1.00  0.00     0.175 C 
HETATM   32  C   UNL     1      26.019  47.362  51.065  1.00  0.00     0.034 C 
ENDBRANCH  30  31
ENDBRANCH  28  30
ENDBRANCH   1  28
TORSDOF 9
ENDMDL
MODEL 2
REMARK VINA RESULT:      -7.8      3.686      6.990
REMARK  9 active torsions:
REMARK  status: ('A' for Active; 'I' for Inactive)
REMARK    1  A    between atoms: C_2  and  O_3 
REMARK    2  A    between atoms: O_3  and  C_4 
REMARK    3  A    between atoms: C_4  and  C_5 
REMARK    4  A    between atoms: C_10  and  N_11 
REMARK       I    between atoms: N_11  and  C_12 
REMARK    5  A    between atoms: C_12  and  C_13 
REMARK    6  A    between atoms: C_13  and  N_14 
REMARK    7  A    between atoms: C_16  and  C_17 
REMARK    8  A    between atoms: C_17  and  C_18 
REMARK    9  A    between atoms: C_18  and  O_19 
ROOT
HETATM    1  C   UNL     1      23.496  45.054  49.813  1.00  0.00     0.137 A 
HETATM    2  N   UNL     1      22.967  46.193  49.260  1.00  0.00    -0.349 N 
HETATM    3  H   UNL     1      22.011  46.282  48.939  1.00  0.00     0.166 HD
HETATM    4  C   UNL     1      23.914  47.184  49.189  1.00  0.00     0.045 A 
HETATM    5  C   UNL     1      25.103  46.668  49.717  1.00  0.00     0.021 A 
HETATM    6  C   UNL     1      24.822  45.322  50.133  1.00  0.00     0.080 A 
HETATM    7  C   UNL     1      23.792  48.486  48.686  1.00  0.00     0.032 A 
HETATM    8  C   UNL     1      24.925  49.300  48.702  1.00  0.00     0.026 A 
HETATM    9  C   UNL     1      26.130  48.816  49.195  1.00  0.00     0.035 A 
HETATM   10 CL   UNL     1      27.521  49.832  49.186  1.00  0.00    -0.084 Cl
HETATM   11  C   UNL     1      26.236  47.513  49.695  1.00  0.00     0.040 A 
ENDROOT
BRANCH   6  12
HETATM   12  N   UNL     1      25.600  44.331  50.730  1.00  0.00    -0.323 N 
HETATM   13  C   UNL     1      26.937  44.090  50.546  1.00  0.00     0.248 C 
HETATM   14  O   UNL     1      27.740  44.732  49.872  1.00  0.00    -0.271 OA
HETATM   15  H   UNL     1      25.110  43.829  51.473  1.00  0.00     0.169 HD
BRANCH  13  16
HETATM   16  C   UNL     1      27.469  42.897  51.344  1.00  0.00     0.338 C 
BRANCH  16  17
HETATM   17  N   UNL     1      28.439  43.368  52.439  1.00  0.00    -0.059 N 
HETATM   18  H   UNL     1      29.021  44.052  51.922  1.00  0.00     0.280 HD
HETATM   19  C   UNL     1      27.797  44.198  53.558  1.00  0.00     0.190 C 
HETATM   20  C   UNL     1      28.942  44.796  54.388  1.00  0.00     0.033 C 
HETATM   21  C   UNL     1      29.906  43.736  54.915  1.00  0.00     0.004 C 
HETATM   22  C   UNL     1      30.457  42.879  53.781  1.00  0.00     0.028 C 
HETATM   23  C   UNL     1      29.358  42.278  52.916  1.00  0.00     0.236 C 
BRANCH  19  24
HETATM   24  C   UNL     1      26.792  43.366  54.367  1.00  0.00     0.059 C 
BRANCH  24  25
HETATM   25  C   UNL     1      25.427  44.035  54.504  1.00  0.00     0.166 C 
BRANCH  25  26
HETATM   26  O   UNL     1      24.683  43.720  53.337  1.00  0.00    -0.401 OA
HETATM   27  H   UNL     1      23.905  43.199  53.609  1.00  0.00     0.209 HD
ENDBRANCH  25  26
ENDBRANCH  24  25
ENDBRANCH  19  24
ENDBRANCH  16  17
ENDBRANCH  13  16
ENDBRANCH   6  12
BRANCH   1  28
HETATM   28  C   UNL     1      22.760  43.832  50.027  1.00  0.00     0.312 C 
HETATM   29  O   UNL     1      22.847  43.160  51.050  1.00  0.00    -0.258 OA
BRANCH  28  30
HETATM   30  O   UNL     1      21.982  43.556  48.949  1.00  0.00    -0.317 OA
BRANCH  30  31
HETATM   31  C   UNL     1      22.658  42.974  47.824  1.00  0.00     0.175 C 
HETATM   32  C   UNL     1      23.147  41.579  48.161  1.00  0.00     0.034 C 
ENDBRANCH  30  31
ENDBRANCH  28  30
ENDBRANCH   1  28
TORSDOF 9
ENDMDL
MODEL 3
REMARK VINA RESULT:      -7.7      6.825     11.121
REMARK  9 active torsions:
REMARK  status: ('A' for Active; 'I' for Inactive)
REMARK    1  A    between atoms: C_2  and  O_3 
REMARK    2  A    between atoms: O_3  and  C_4 
REMARK    3  A    between atoms: C_4  and  C_5 
REMARK    4  A    between atoms: C_10  and  N_11 
REMARK       I    between atoms: N_11  and  C_12 
REMARK    5  A    between atoms: C_12  and  C_13 
REMARK    6  A    between atoms: C_13  and  N_14 
REMARK    7  A    between atoms: C_16  and  C_17 
REMARK    8  A    between atoms: C_17  and  C_18 
REMARK    9  A    between atoms: C_18  and  O_19 
ROOT
HETATM    1  C   UNL     1      24.278  46.628  49.776  1.00  0.00     0.137 A 
HETATM    2  N   UNL     1      24.618  45.357  49.389  1.00  0.00    -0.349 N 
HETATM    3  H   UNL     1      25.474  44.888  49.657  1.00  0.00     0.166 HD
HETATM    4  C   UNL     1      23.646  44.818  48.584  1.00  0.00     0.045 A 
HETATM    5  C   UNL     1      22.637  45.777  48.442  1.00  0.00     0.021 A 
HETATM    6  C   UNL     1      23.035  46.915  49.221  1.00  0.00     0.080 A 
HETATM    7  C   UNL     1      23.607  43.557  47.972  1.00  0.00     0.032 A 
HETATM    8  C   UNL     1      22.507  43.257  47.168  1.00  0.00     0.026 A 
HETATM    9  C   UNL     1      21.497  44.191  46.983  1.00  0.00     0.035 A 
HETATM   10 CL   UNL     1      20.159  43.807  45.969  1.00  0.00    -0.084 Cl
HETATM   11  C   UNL     1      21.550  45.446  47.601  1.00  0.00     0.040 A 
ENDROOT
BRANCH   6  12
HETATM   12  N   UNL     1      22.439  48.151  49.470  1.00  0.00    -0.323 N 
HETATM   13  C   UNL     1      22.338  49.219  48.617  1.00  0.00     0.248 C 
HETATM   14  O   UNL     1      22.688  49.290  47.441  1.00  0.00    -0.271 OA
HETATM   15  H   UNL     1      21.925  48.179  50.353  1.00  0.00     0.169 HD
BRANCH  13  16
HETATM   16  C   UNL     1      21.640  50.438  49.228  1.00  0.00     0.338 C 
BRANCH  16  17
HETATM   17  N   UNL     1      20.234  50.612  48.632  1.00  0.00    -0.059 N 
HETATM   18  H   UNL     1      20.388  50.326  47.648  1.00  0.00     0.280 HD
HETATM   19  C   UNL     1      19.186  49.617  49.147  1.00  0.00     0.190 C 
HETATM   20  C   UNL     1      17.947  49.767  48.252  1.00  0.00     0.033 C 
HETATM   21  C   UNL     1      17.426  51.201  48.199  1.00  0.00     0.004 C 
HETATM   22  C   UNL     1      18.522  52.169  47.764  1.00  0.00     0.028 C 
HETATM   23  C   UNL     1      19.780  52.045  48.610  1.00  0.00     0.236 C 
BRANCH  19  24
HETATM   24  C   UNL     1      18.917  49.811  50.646  1.00  0.00     0.059 C 
BRANCH  24  25
HETATM   25  C   UNL     1      18.527  48.522  51.361  1.00  0.00     0.166 C 
BRANCH  25  26
HETATM   26  O   UNL     1      18.709  48.737  52.752  1.00  0.00    -0.401 OA
HETATM   27  H   UNL     1      19.391  48.115  53.066  1.00  0.00     0.209 HD
ENDBRANCH  25  26
ENDBRANCH  24  25
ENDBRANCH  19  24
ENDBRANCH  16  17
ENDBRANCH  13  16
ENDBRANCH   6  12
BRANCH   1  28
HETATM   28  C   UNL     1      25.086  47.468  50.627  1.00  0.00     0.312 C 
HETATM   29  O   UNL     1      25.353  47.193  51.792  1.00  0.00    -0.258 OA
BRANCH  28  30
HETATM   30  O   UNL     1      25.490  48.573  49.949  1.00  0.00    -0.317 OA
BRANCH  30  31
HETATM   31  C   UNL     1      26.811  48.513  49.388  1.00  0.00     0.175 C 
HETATM   32  C   UNL     1      27.107  49.767  48.588  1.00  0.00     0.034 C 
ENDBRANCH  30  31
ENDBRANCH  28  30
ENDBRANCH   1  28
TORSDOF 9
ENDMDL
MODEL 4
REMARK VINA RESULT:      -7.2      1.536      2.111
REMARK  9 active torsions:
REMARK  status: ('A' for Active; 'I' for Inactive)
REMARK    1  A    between atoms: C_2  and  O_3 
REMARK    2  A    between atoms: O_3  and  C_4 
REMARK    3  A    between atoms: C_4  and  C_5 
REMARK    4  A    between atoms: C_10  and  N_11 
REMARK       I    between atoms: N_11  and  C_12 
REMARK    5  A    between atoms: C_12  and  C_13 
REMARK    6  A    between atoms: C_13  and  N_14 
REMARK    7  A    between atoms: C_16  and  C_17 
REMARK    8  A    between atoms: C_17  and  C_18 
REMARK    9  A    between atoms: C_18  and  O_19 
ROOT
HETATM    1  C   UNL     1      25.886  45.095  52.491  1.00  0.00     0.137 A 
HETATM    2  N   UNL     1      26.352  46.106  53.294  1.00  0.00    -0.349 N 
HETATM    3  H   UNL     1      25.969  47.042  53.313  1.00  0.00     0.166 HD
HETATM    4  C   UNL     1      27.410  45.675  54.054  1.00  0.00     0.045 A 
HETATM    5  C   UNL     1      27.641  44.333  53.730  1.00  0.00     0.021 A 
HETATM    6  C   UNL     1      26.654  43.966  52.754  1.00  0.00     0.080 A 
HETATM    7  C   UNL     1      28.174  46.388  54.988  1.00  0.00     0.032 A 
HETATM    8  C   UNL     1      29.228  45.721  55.613  1.00  0.00     0.026 A 
HETATM    9  C   UNL     1      29.504  44.397  55.301  1.00  0.00     0.035 A 
HETATM   10 CL   UNL     1      30.824  43.600  56.070  1.00  0.00    -0.084 Cl
HETATM   11  C   UNL     1      28.732  43.697  54.366  1.00  0.00     0.040 A 
ENDROOT
BRANCH   6  12
HETATM   12  N   UNL     1      26.382  42.776  52.080  1.00  0.00    -0.323 N 
HETATM   13  C   UNL     1      27.282  41.903  51.525  1.00  0.00     0.248 C 
HETATM   14  O   UNL     1      28.510  41.949  51.563  1.00  0.00    -0.271 OA
HETATM   15  H   UNL     1      25.400  42.499  52.133  1.00  0.00     0.169 HD
BRANCH  13  16
HETATM   16  C   UNL     1      26.634  40.701  50.831  1.00  0.00     0.338 C 
BRANCH  16  17
HETATM   17  N   UNL     1      26.905  40.740  49.319  1.00  0.00    -0.059 N 
HETATM   18  H   UNL     1      26.951  41.760  49.141  1.00  0.00     0.280 HD
HETATM   19  C   UNL     1      28.287  40.226  48.896  1.00  0.00     0.190 C 
HETATM   20  C   UNL     1      28.470  40.594  47.417  1.00  0.00     0.033 C 
HETATM   21  C   UNL     1      27.345  40.063  46.532  1.00  0.00     0.004 C 
HETATM   22  C   UNL     1      25.982  40.527  47.035  1.00  0.00     0.028 C 
HETATM   23  C   UNL     1      25.761  40.202  48.505  1.00  0.00     0.236 C 
BRANCH  19  24
HETATM   24  C   UNL     1      28.448  38.731  49.206  1.00  0.00     0.059 C 
BRANCH  24  25
HETATM   25  C   UNL     1      29.355  38.457  50.401  1.00  0.00     0.166 C 
BRANCH  25  26
HETATM   26  O   UNL     1      30.178  37.350  50.063  1.00  0.00    -0.401 OA
HETATM   27  H   UNL     1      30.971  37.382  50.629  1.00  0.00     0.209 HD
ENDBRANCH  25  26
ENDBRANCH  24  25
ENDBRANCH  19  24
ENDBRANCH  16  17
ENDBRANCH  13  16
ENDBRANCH   6  12
BRANCH   1  28
HETATM   28  C   UNL     1      24.780  45.224  51.573  1.00  0.00     0.312 C 
HETATM   29  O   UNL     1      24.623  46.190  50.835  1.00  0.00    -0.258 OA
BRANCH  28  30
HETATM   30  O   UNL     1      23.971  44.136  51.657  1.00  0.00    -0.317 OA
BRANCH  30  31
HETATM   31  C   UNL     1      23.152  43.878  50.506  1.00  0.00     0.175 C 
HETATM   32  C   UNL     1      23.892  43.001  49.514  1.00  0.00     0.034 C 
ENDBRANCH  30  31
ENDBRANCH  28  30
ENDBRANCH   1  28
TORSDOF 9
ENDMDL
MODEL 5
REMARK VINA RESULT:      -7.0      4.374      7.098
REMARK  9 active torsions:
REMARK  status: ('A' for Active; 'I' for Inactive)
REMARK    1  A    between atoms: C_2  and  O_3 
REMARK    2  A    between atoms: O_3  and  C_4 
REMARK    3  A    between atoms: C_4  and  C_5 
REMARK    4  A    between atoms: C_10  and  N_11 
REMARK       I    between atoms: N_11  and  C_12 
REMARK    5  A    between atoms: C_12  and  C_13 
REMARK    6  A    between atoms: C_13  and  N_14 
REMARK    7  A    between atoms: C_16  and  C_17 
REMARK    8  A    between atoms: C_17  and  C_18 
REMARK    9  A    between atoms: C_18  and  O_19 
ROOT
HETATM    1  C   UNL     1      24.801  47.249  49.859  1.00  0.00     0.137 A 
HETATM    2  N   UNL     1      23.865  48.228  49.643  1.00  0.00    -0.349 N 
HETATM    3  H   UNL     1      24.003  49.207  49.855  1.00  0.00     0.166 HD
HETATM    4  C   UNL     1      22.716  47.693  49.114  1.00  0.00     0.045 A 
HETATM    5  C   UNL     1      22.916  46.314  48.983  1.00  0.00     0.021 A 
HETATM    6  C   UNL     1      24.251  46.044  49.436  1.00  0.00     0.080 A 
HETATM    7  C   UNL     1      21.525  48.340  48.759  1.00  0.00     0.032 A 
HETATM    8  C   UNL     1      20.481  47.558  48.263  1.00  0.00     0.026 A 
HETATM    9  C   UNL     1      20.631  46.183  48.141  1.00  0.00     0.035 A 
HETATM   10 CL   UNL     1      19.323  45.235  47.546  1.00  0.00    -0.084 Cl
HETATM   11  C   UNL     1      21.828  45.551  48.500  1.00  0.00     0.040 A 
ENDROOT
BRANCH   6  12
HETATM   12  N   UNL     1      25.003  44.873  49.529  1.00  0.00    -0.323 N 
HETATM   13  C   UNL     1      24.955  43.922  50.515  1.00  0.00     0.248 C 
HETATM   14  O   UNL     1      24.199  43.867  51.483  1.00  0.00    -0.271 OA
HETATM   15  H   UNL     1      25.550  44.679  48.688  1.00  0.00     0.169 HD
BRANCH  13  16
HETATM   16  C   UNL     1      25.945  42.771  50.316  1.00  0.00     0.338 C 
BRANCH  16  17
HETATM   17  N   UNL     1      26.883  42.649  51.527  1.00  0.00    -0.059 N 
HETATM   18  H   UNL     1      26.248  42.892  52.309  1.00  0.00     0.280 HD
HETATM   19  C   UNL     1      27.339  41.220  51.850  1.00  0.00     0.190 C 
HETATM   20  C   UNL     1      28.027  41.267  53.222  1.00  0.00     0.033 C 
HETATM   21  C   UNL     1      29.169  42.279  53.276  1.00  0.00     0.004 C 
HETATM   22  C   UNL     1      28.693  43.669  52.866  1.00  0.00     0.028 C 
HETATM   23  C   UNL     1      27.986  43.671  51.519  1.00  0.00     0.236 C 
BRANCH  19  24
HETATM   24  C   UNL     1      28.204  40.639  50.723  1.00  0.00     0.059 C 
BRANCH  24  25
HETATM   25  C   UNL     1      27.562  39.445  50.024  1.00  0.00     0.166 C 
BRANCH  25  26
HETATM   26  O   UNL     1      26.258  39.290  50.562  1.00  0.00    -0.401 OA
HETATM   27  H   UNL     1      25.672  39.931  50.119  1.00  0.00     0.209 HD
ENDBRANCH  25  26
ENDBRANCH  24  25
ENDBRANCH  19  24
ENDBRANCH  16  17
ENDBRANCH  13  16
ENDBRANCH   6  12
BRANCH   1  28
HETATM   28  C   UNL     1      26.116  47.482  50.406  1.00  0.00     0.312 C 
HETATM   29  O   UNL     1      26.909  48.294  49.939  1.00  0.00    -0.258 OA
BRANCH  28  30
HETATM   30  O   UNL     1      26.325  46.683  51.484  1.00  0.00    -0.317 OA
BRANCH  30  31
HETATM   31  C   UNL     1      25.600  47.037  52.672  1.00  0.00     0.175 C 
HETATM   32  C   UNL     1      25.916  46.070  53.797  1.00  0.00     0.034 C 
ENDBRANCH  30  31
ENDBRANCH  28  30
ENDBRANCH   1  28
TORSDOF 9
ENDMDL
MODEL 6
REMARK VINA RESULT:      -6.9      3.035      5.291
REMARK  9 active torsions:
REMARK  status: ('A' for Active; 'I' for Inactive)
REMARK    1  A    between atoms: C_2  and  O_3 
REMARK    2  A    between atoms: O_3  and  C_4 
REMARK    3  A    between atoms: C_4  and  C_5 
REMARK    4  A    between atoms: C_10  and  N_11 
REMARK       I    between atoms: N_11  and  C_12 
REMARK    5  A    between atoms: C_12  and  C_13 
REMARK    6  A    between atoms: C_13  and  N_14 
REMARK    7  A    between atoms: C_16  and  C_17 
REMARK    8  A    between atoms: C_17  and  C_18 
REMARK    9  A    between atoms: C_18  and  O_19 
ROOT
HETATM    1  C   UNL     1      27.938  41.323  51.503  1.00  0.00     0.137 A 
HETATM    2  N   UNL     1      29.192  41.387  52.056  1.00  0.00    -0.349 N 
HETATM    3  H   UNL     1      29.957  40.771  51.809  1.00  0.00     0.166 HD
HETATM    4  C   UNL     1      29.259  42.386  52.994  1.00  0.00     0.045 A 
HETATM    5  C   UNL     1      28.000  42.994  53.052  1.00  0.00     0.021 A 
HETATM    6  C   UNL     1      27.174  42.328  52.084  1.00  0.00     0.080 A 
HETATM    7  C   UNL     1      30.344  42.775  53.791  1.00  0.00     0.032 A 
HETATM    8  C   UNL     1      30.145  43.815  54.700  1.00  0.00     0.026 A 
HETATM    9  C   UNL     1      28.903  44.428  54.804  1.00  0.00     0.035 A 
HETATM   10 CL   UNL     1      28.674  45.696  55.947  1.00  0.00    -0.084 Cl
HETATM   11  C   UNL     1      27.829  44.028  54.000  1.00  0.00     0.040 A 
ENDROOT
BRANCH   6  12
HETATM   12  N   UNL     1      25.848  42.502  51.689  1.00  0.00    -0.323 N 
HETATM   13  C   UNL     1      25.344  43.453  50.840  1.00  0.00     0.248 C 
HETATM   14  O   UNL     1      25.958  44.305  50.201  1.00  0.00    -0.271 OA
HETATM   15  H   UNL     1      25.236  41.741  51.991  1.00  0.00     0.169 HD
BRANCH  13  16
HETATM   16  C   UNL     1      23.827  43.370  50.645  1.00  0.00     0.338 C 
BRANCH  16  17
HETATM   17  N   UNL     1      23.442  43.791  49.218  1.00  0.00    -0.059 N 
HETATM   18  H   UNL     1      24.114  44.558  49.038  1.00  0.00     0.280 HD
HETATM   19  C   UNL     1      23.759  42.756  48.131  1.00  0.00     0.190 C 
HETATM   20  C   UNL     1      23.563  43.453  46.777  1.00  0.00     0.033 C 
HETATM   21  C   UNL     1      22.173  44.065  46.623  1.00  0.00     0.004 C 
HETATM   22  C   UNL     1      21.863  45.023  47.769  1.00  0.00     0.028 C 
HETATM   23  C   UNL     1      22.063  44.384  49.135  1.00  0.00     0.236 C 
BRANCH  19  24
HETATM   24  C   UNL     1      22.931  41.477  48.315  1.00  0.00     0.059 C 
BRANCH  24  25
HETATM   25  C   UNL     1      23.340  40.352  47.370  1.00  0.00     0.166 C 
BRANCH  25  26
HETATM   26  O   UNL     1      24.523  39.767  47.894  1.00  0.00    -0.401 OA
HETATM   27  H   UNL     1      24.795  39.049  47.294  1.00  0.00     0.209 HD
ENDBRANCH  25  26
ENDBRANCH  24  25
ENDBRANCH  19  24
ENDBRANCH  16  17
ENDBRANCH  13  16
ENDBRANCH   6  12
BRANCH   1  28
HETATM   28  C   UNL     1      27.540  40.381  50.484  1.00  0.00     0.312 C 
HETATM   29  O   UNL     1      26.373  40.073  50.266  1.00  0.00    -0.258 OA
BRANCH  28  30
HETATM   30  O   UNL     1      28.632  39.908  49.830  1.00  0.00    -0.317 OA
BRANCH  30  31
HETATM   31  C   UNL     1      28.863  38.495  49.943  1.00  0.00     0.175 C 
HETATM   32  C   UNL     1      30.107  38.096  49.172  1.00  0.00     0.034 C 
ENDBRANCH  30  31
ENDBRANCH  28  30
ENDBRANCH   1  28
TORSDOF 9
ENDMDL
MODEL 7
REMARK VINA RESULT:      -6.9      5.570      9.538
REMARK  9 active torsions:
REMARK  status: ('A' for Active; 'I' for Inactive)
REMARK    1  A    between atoms: C_2  and  O_3 
REMARK    2  A    between atoms: O_3  and  C_4 
REMARK    3  A    between atoms: C_4  and  C_5 
REMARK    4  A    between atoms: C_10  and  N_11 
REMARK       I    between atoms: N_11  and  C_12 
REMARK    5  A    between atoms: C_12  and  C_13 
REMARK    6  A    between atoms: C_13  and  N_14 
REMARK    7  A    between atoms: C_16  and  C_17 
REMARK    8  A    between atoms: C_17  and  C_18 
REMARK    9  A    between atoms: C_18  and  O_19 
ROOT
HETATM    1  C   UNL     1      25.462  45.968  50.027  1.00  0.00     0.137 A 
HETATM    2  N   UNL     1      26.526  45.104  49.957  1.00  0.00    -0.349 N 
HETATM    3  H   UNL     1      27.468  45.334  50.245  1.00  0.00     0.166 HD
HETATM    4  C   UNL     1      26.138  43.897  49.433  1.00  0.00     0.045 A 
HETATM    5  C   UNL     1      24.770  43.981  49.151  1.00  0.00     0.021 A 
HETATM    6  C   UNL     1      24.343  45.291  49.554  1.00  0.00     0.080 A 
HETATM    7  C   UNL     1      26.910  42.754  49.185  1.00  0.00     0.032 A 
HETATM    8  C   UNL     1      26.277  41.651  48.612  1.00  0.00     0.026 A 
HETATM    9  C   UNL     1      24.926  41.703  48.296  1.00  0.00     0.035 A 
HETATM   10 CL   UNL     1      24.170  40.336  47.570  1.00  0.00    -0.084 Cl
HETATM   11  C   UNL     1      24.167  42.852  48.550  1.00  0.00     0.040 A 
ENDROOT
BRANCH   6  12
HETATM   12  N   UNL     1      23.108  45.937  49.528  1.00  0.00    -0.323 N 
HETATM   13  C   UNL     1      22.391  46.332  48.429  1.00  0.00     0.248 C 
HETATM   14  O   UNL     1      22.651  46.144  47.242  1.00  0.00    -0.271 OA
HETATM   15  H   UNL     1      22.665  45.993  50.448  1.00  0.00     0.169 HD
BRANCH  13  16
HETATM   16  C   UNL     1      21.077  47.043  48.767  1.00  0.00     0.338 C 
BRANCH  16  17
HETATM   17  N   UNL     1      21.151  48.529  48.379  1.00  0.00    -0.059 N 
HETATM   18  H   UNL     1      21.077  48.479  47.347  1.00  0.00     0.280 HD
HETATM   19  C   UNL     1      19.937  49.367  48.798  1.00  0.00     0.190 C 
HETATM   20  C   UNL     1      20.066  50.727  48.097  1.00  0.00     0.033 C 
HETATM   21  C   UNL     1      21.394  51.420  48.391  1.00  0.00     0.004 C 
HETATM   22  C   UNL     1      22.575  50.521  48.039  1.00  0.00     0.028 C 
HETATM   23  C   UNL     1      22.482  49.152  48.696  1.00  0.00     0.236 C 
BRANCH  19  24
HETATM   24  C   UNL     1      19.812  49.448  50.326  1.00  0.00     0.059 C 
BRANCH  24  25
HETATM   25  C   UNL     1      18.612  48.682  50.874  1.00  0.00     0.166 C 
BRANCH  25  26
HETATM   26  O   UNL     1      18.677  48.750  52.291  1.00  0.00    -0.401 OA
HETATM   27  H   UNL     1      17.775  48.631  52.640  1.00  0.00     0.209 HD
ENDBRANCH  25  26
ENDBRANCH  24  25
ENDBRANCH  19  24
ENDBRANCH  16  17
ENDBRANCH  13  16
ENDBRANCH   6  12
BRANCH   1  28
HETATM   28  C   UNL     1      25.536  47.318  50.533  1.00  0.00     0.312 C 
HETATM   29  O   UNL     1      24.600  47.885  51.085  1.00  0.00    -0.258 OA
BRANCH  28  30
HETATM   30  O   UNL     1      26.770  47.837  50.306  1.00  0.00    -0.317 OA
BRANCH  30  31
HETATM   31  C   UNL     1      27.024  48.278  48.963  1.00  0.00     0.175 C 
HETATM   32  C   UNL     1      27.049  49.793  48.897  1.00  0.00     0.034 C 
ENDBRANCH  30  31
ENDBRANCH  28  30
ENDBRANCH   1  28
TORSDOF 9
ENDMDL
MODEL 8
REMARK VINA RESULT:      -6.8      3.889      7.199
REMARK  9 active torsions:
REMARK  status: ('A' for Active; 'I' for Inactive)
REMARK    1  A    between atoms: C_2  and  O_3 
REMARK    2  A    between atoms: O_3  and  C_4 
REMARK    3  A    between atoms: C_4  and  C_5 
REMARK    4  A    between atoms: C_10  and  N_11 
REMARK       I    between atoms: N_11  and  C_12 
REMARK    5  A    between atoms: C_12  and  C_13 
REMARK    6  A    between atoms: C_13  and  N_14 
REMARK    7  A    between atoms: C_16  and  C_17 
REMARK    8  A    between atoms: C_17  and  C_18 
REMARK    9  A    between atoms: C_18  and  O_19 
ROOT
HETATM    1  C   UNL     1      26.248  45.412  52.893  1.00  0.00     0.137 A 
HETATM    2  N   UNL     1      26.894  44.614  53.803  1.00  0.00    -0.349 N 
HETATM    3  H   UNL     1      27.071  44.873  54.765  1.00  0.00     0.166 HD
HETATM    4  C   UNL     1      27.276  43.430  53.226  1.00  0.00     0.045 A 
HETATM    5  C   UNL     1      26.863  43.460  51.889  1.00  0.00     0.021 A 
HETATM    6  C   UNL     1      26.190  44.713  51.692  1.00  0.00     0.080 A 
HETATM    7  C   UNL     1      27.964  42.351  53.798  1.00  0.00     0.032 A 
HETATM    8  C   UNL     1      28.262  41.260  52.982  1.00  0.00     0.026 A 
HETATM    9  C   UNL     1      27.891  41.263  51.644  1.00  0.00     0.035 A 
HETATM   10 CL   UNL     1      28.287  39.914  50.649  1.00  0.00    -0.084 Cl
HETATM   11  C   UNL     1      27.203  42.347  51.086  1.00  0.00     0.040 A 
ENDROOT
BRANCH   6  12
HETATM   12  N   UNL     1      25.565  45.291  50.588  1.00  0.00    -0.323 N 
HETATM   13  C   UNL     1      24.250  45.180  50.216  1.00  0.00     0.248 C 
HETATM   14  O   UNL     1      23.337  44.607  50.807  1.00  0.00    -0.271 OA
HETATM   15  H   UNL     1      26.158  45.963  50.096  1.00  0.00     0.169 HD
BRANCH  13  16
HETATM   16  C   UNL     1      23.905  45.928  48.925  1.00  0.00     0.338 C 
BRANCH  16  17
HETATM   17  N   UNL     1      22.877  47.037  49.201  1.00  0.00    -0.059 N 
HETATM   18  H   UNL     1      22.511  46.756  50.128  1.00  0.00     0.280 HD
HETATM   19  C   UNL     1      23.477  48.428  49.445  1.00  0.00     0.190 C 
HETATM   20  C   UNL     1      22.342  49.322  49.964  1.00  0.00     0.033 C 
HETATM   21  C   UNL     1      21.138  49.353  49.027  1.00  0.00     0.004 C 
HETATM   22  C   UNL     1      20.624  47.945  48.743  1.00  0.00     0.028 C 
HETATM   23  C   UNL     1      21.719  47.014  48.243  1.00  0.00     0.236 C 
BRANCH  19  24
HETATM   24  C   UNL     1      24.185  48.961  48.191  1.00  0.00     0.059 C 
BRANCH  24  25
HETATM   25  C   UNL     1      25.398  49.830  48.507  1.00  0.00     0.166 C 
BRANCH  25  26
HETATM   26  O   UNL     1      26.103  50.030  47.292  1.00  0.00    -0.401 OA
HETATM   27  H   UNL     1      26.996  50.355  47.512  1.00  0.00     0.209 HD
ENDBRANCH  25  26
ENDBRANCH  24  25
ENDBRANCH  19  24
ENDBRANCH  16  17
ENDBRANCH  13  16
ENDBRANCH   6  12
BRANCH   1  28
HETATM   28  C   UNL     1      25.720  46.723  53.184  1.00  0.00     0.312 C 
HETATM   29  O   UNL     1      25.415  47.537  52.318  1.00  0.00    -0.258 OA
BRANCH  28  30
HETATM   30  O   UNL     1      25.618  46.901  54.526  1.00  0.00    -0.317 OA
BRANCH  30  31
HETATM   31  C   UNL     1      26.354  48.011  55.066  1.00  0.00     0.175 C 
HETATM   32  C   UNL     1      27.689  47.546  55.614  1.00  0.00     0.034 C 
ENDBRANCH  30  31
ENDBRANCH  28  30
ENDBRANCH   1  28
TORSDOF 9
ENDMDL
MODEL 9
REMARK VINA RESULT:      -6.8      6.381      9.583
REMARK  9 active torsions:
REMARK  status: ('A' for Active; 'I' for Inactive)
REMARK    1  A    between atoms: C_2  and  O_3 
REMARK    2  A    between atoms: O_3  and  C_4 
REMARK    3  A    between atoms: C_4  and  C_5 
REMARK    4  A    between atoms: C_10  and  N_11 
REMARK       I    between atoms: N_11  and  C_12 
REMARK    5  A    between atoms: C_12  and  C_13 
REMARK    6  A    between atoms: C_13  and  N_14 
REMARK    7  A    between atoms: C_16  and  C_17 
REMARK    8  A    between atoms: C_17  and  C_18 
REMARK    9  A    between atoms: C_18  and  O_19 
ROOT
HETATM    1  C   UNL     1      22.624  49.255  49.216  1.00  0.00     0.137 A 
HETATM    2  N   UNL     1      22.280  50.574  49.054  1.00  0.00    -0.349 N 
HETATM    3  H   UNL     1      22.926  51.348  49.145  1.00  0.00     0.166 HD
HETATM    4  C   UNL     1      20.944  50.695  48.767  1.00  0.00     0.045 A 
HETATM    5  C   UNL     1      20.400  49.406  48.743  1.00  0.00     0.021 A 
HETATM    6  C   UNL     1      21.479  48.496  49.005  1.00  0.00     0.080 A 
HETATM    7  C   UNL     1      20.192  51.856  48.542  1.00  0.00     0.032 A 
HETATM    8  C   UNL     1      18.827  51.712  48.295  1.00  0.00     0.026 A 
HETATM    9  C   UNL     1      18.245  50.451  48.287  1.00  0.00     0.035 A 
HETATM   10 CL   UNL     1      16.553  50.298  48.001  1.00  0.00    -0.084 Cl
HETATM   11  C   UNL     1      19.009  49.300  48.513  1.00  0.00     0.040 A 
ENDROOT
BRANCH   6  12
HETATM   12  N   UNL     1      21.548  47.106  49.093  1.00  0.00    -0.323 N 
HETATM   13  C   UNL     1      21.884  46.219  48.103  1.00  0.00     0.248 C 
HETATM   14  O   UNL     1      22.257  46.463  46.957  1.00  0.00    -0.271 OA
HETATM   15  H   UNL     1      21.450  46.758  50.049  1.00  0.00     0.169 HD
BRANCH  13  16
HETATM   16  C   UNL     1      21.832  44.752  48.539  1.00  0.00     0.338 C 
BRANCH  16  17
HETATM   17  N   UNL     1      23.236  44.128  48.504  1.00  0.00    -0.059 N 
HETATM   18  H   UNL     1      23.596  44.476  47.597  1.00  0.00     0.280 HD
HETATM   19  C   UNL     1      24.221  44.692  49.536  1.00  0.00     0.190 C 
HETATM   20  C   UNL     1      25.612  44.155  49.169  1.00  0.00     0.033 C 
HETATM   21  C   UNL     1      25.654  42.632  49.083  1.00  0.00     0.004 C 
HETATM   22  C   UNL     1      24.603  42.106  48.110  1.00  0.00     0.028 C 
HETATM   23  C   UNL     1      23.208  42.627  48.421  1.00  0.00     0.236 C 
BRANCH  19  24
HETATM   24  C   UNL     1      23.774  44.376  50.969  1.00  0.00     0.059 C 
BRANCH  24  25
HETATM   25  C   UNL     1      24.794  44.790  52.025  1.00  0.00     0.166 C 
BRANCH  25  26
HETATM   26  O   UNL     1      24.929  43.706  52.932  1.00  0.00    -0.401 OA
HETATM   27  H   UNL     1      24.157  43.122  52.819  1.00  0.00     0.209 HD
ENDBRANCH  25  26
ENDBRANCH  24  25
ENDBRANCH  19  24
ENDBRANCH  16  17
ENDBRANCH  13  16
ENDBRANCH   6  12
BRANCH   1  28
HETATM   28  C   UNL     1      23.955  48.789  49.524  1.00  0.00     0.312 C 
HETATM   29  O   UNL     1      24.204  48.006  50.434  1.00  0.00    -0.258 OA
BRANCH  28  30
HETATM   30  O   UNL     1      24.855  49.341  48.670  1.00  0.00    -0.317 OA
BRANCH  30  31
HETATM   31  C   UNL     1      26.217  48.916  48.839  1.00  0.00     0.175 C 
HETATM   32  C   UNL     1      27.169  50.070  48.591  1.00  0.00     0.034 C 
ENDBRANCH  30  31
ENDBRANCH  28  30
ENDBRANCH   1  28
TORSDOF 9
ENDMDL
MODEL 10
REMARK VINA RESULT:      -6.8      2.945      5.624
REMARK  9 active torsions:
REMARK  status: ('A' for Active; 'I' for Inactive)
REMARK    1  A    between atoms: C_2  and  O_3 
REMARK    2  A    between atoms: O_3  and  C_4 
REMARK    3  A    between atoms: C_4  and  C_5 
REMARK    4  A    between atoms: C_10  and  N_11 
REMARK       I    between atoms: N_11  and  C_12 
REMARK    5  A    between atoms: C_12  and  C_13 
REMARK    6  A    between atoms: C_13  and  N_14 
REMARK    7  A    between atoms: C_16  and  C_17 
REMARK    8  A    between atoms: C_17  and  C_18 
REMARK    9  A    between atoms: C_18  and  O_19 
ROOT
HETATM    1  C   UNL     1      28.061  41.304  51.600  1.00  0.00     0.137 A 
HETATM    2  N   UNL     1      29.102  41.262  52.493  1.00  0.00    -0.349 N 
HETATM    3  H   UNL     1      29.745  40.485  52.585  1.00  0.00     0.166 HD
HETATM    4  C   UNL     1      29.142  42.407  53.248  1.00  0.00     0.045 A 
HETATM    5  C   UNL     1      28.086  43.224  52.829  1.00  0.00     0.021 A 
HETATM    6  C   UNL     1      27.419  42.526  51.767  1.00  0.00     0.080 A 
HETATM    7  C   UNL     1      30.033  42.758  54.271  1.00  0.00     0.032 A 
HETATM    8  C   UNL     1      29.841  43.983  54.911  1.00  0.00     0.026 A 
HETATM    9  C   UNL     1      28.789  44.810  54.541  1.00  0.00     0.035 A 
HETATM   10 CL   UNL     1      28.558  46.308  55.360  1.00  0.00    -0.084 Cl
HETATM   11  C   UNL     1      27.907  44.446  53.517  1.00  0.00     0.040 A 
ENDROOT
BRANCH   6  12
HETATM   12  N   UNL     1      26.322  42.842  50.965  1.00  0.00    -0.323 N 
HETATM   13  C   UNL     1      26.272  43.736  49.927  1.00  0.00     0.248 C 
HETATM   14  O   UNL     1      27.191  44.392  49.444  1.00  0.00    -0.271 OA
HETATM   15  H   UNL     1      25.519  42.229  51.123  1.00  0.00     0.169 HD
BRANCH  13  16
HETATM   16  C   UNL     1      24.891  43.856  49.277  1.00  0.00     0.338 C 
BRANCH  16  17
HETATM   17  N   UNL     1      24.422  42.493  48.746  1.00  0.00    -0.059 N 
HETATM   18  H   UNL     1      24.405  41.925  49.613  1.00  0.00     0.280 HD
HETATM   19  C   UNL     1      22.971  42.456  48.250  1.00  0.00     0.190 C 
HETATM   20  C   UNL     1      22.610  40.981  48.024  1.00  0.00     0.033 C 
HETATM   21  C   UNL     1      23.576  40.275  47.076  1.00  0.00     0.004 C 
HETATM   22  C   UNL     1      25.017  40.407  47.560  1.00  0.00     0.028 C 
HETATM   23  C   UNL     1      25.417  41.852  47.818  1.00  0.00     0.236 C 
BRANCH  19  24
HETATM   24  C   UNL     1      22.775  43.356  47.022  1.00  0.00     0.059 C 
BRANCH  24  25
HETATM   25  C   UNL     1      21.383  43.243  46.407  1.00  0.00     0.166 C 
BRANCH  25  26
HETATM   26  O   UNL     1      20.462  43.782  47.343  1.00  0.00    -0.401 OA
HETATM   27  H   UNL     1      19.684  44.101  46.849  1.00  0.00     0.209 HD
ENDBRANCH  25  26
ENDBRANCH  24  25
ENDBRANCH  19  24
ENDBRANCH  16  17
ENDBRANCH  13  16
ENDBRANCH   6  12
BRANCH   1  28
HETATM   28  C   UNL     1      27.746  40.255  50.661  1.00  0.00     0.312 C 
HETATM   29  O   UNL     1      26.610  39.831  50.476  1.00  0.00    -0.258 OA
BRANCH  28  30
HETATM   30  O   UNL     1      28.874  39.830  50.035  1.00  0.00    -0.317 OA
BRANCH  30  31
HETATM   31  C   UNL     1      29.020  38.406  49.911  1.00  0.00     0.175 C 
HETATM   32  C   UNL     1      30.060  37.891  50.888  1.00  0.00     0.034 C 
ENDBRANCH  30  31
ENDBRANCH  28  30
ENDBRANCH   1  28
TORSDOF 9
ENDMDL
