MODEL 1
REMARK VINA RESULT:      -9.2      0.000      0.000
REMARK  3 active torsions:
REMARK  status: ('A' for Active; 'I' for Inactive)
REMARK    1  A    between atoms: C_5  and  C_6 
REMARK    2  A    between atoms: C_6  and  O_7 
REMARK       I    between atoms: N_10  and  C_11 
REMARK       I    between atoms: C_11  and  N_12 
REMARK    3  A    between atoms: N_12  and  C_13 
ROOT
HETATM    1  C   UNL     1      24.113  44.769  49.014  1.00  0.00     0.105 C 
HETATM    2  C   UNL     1      25.474  45.419  49.332  1.00  0.00     0.064 C 
HETATM    3  C   UNL     1      25.523  45.989  50.744  1.00  0.00     0.131 C 
HETATM    4  N   UNL     1      25.169  44.974  51.743  1.00  0.00    -0.334 N 
HETATM    5  C   UNL     1      25.840  44.703  52.938  1.00  0.00     0.322 C 
HETATM    6  N   UNL     1      26.921  45.511  53.201  1.00  0.00    -0.309 N 
HETATM    7  O   UNL     1      25.465  43.799  53.684  1.00  0.00    -0.247 OA
HETATM    8  C   UNL     1      23.910  44.272  51.498  1.00  0.00     0.131 C 
HETATM    9  C   UNL     1      23.834  43.703  50.084  1.00  0.00     0.064 C 
HETATM   10  H   UNL     1      26.933  46.403  52.738  1.00  0.00     0.170 HD
ENDROOT
BRANCH   6  11
HETATM   11  C   UNL     1      27.891  45.348  54.217  1.00  0.00     0.037 A 
HETATM   12  C   UNL     1      28.782  44.268  54.273  1.00  0.00     0.039 A 
HETATM   13  C   UNL     1      29.698  44.220  55.311  1.00  0.00    -0.021 A 
HETATM   14  C   UNL     1      29.745  45.227  56.269  1.00  0.00     0.041 A 
HETATM   15  C   UNL     1      30.745  43.191  55.616  1.00  0.00     0.144 A 
HETATM   16  N   UNL     1      30.744  44.952  57.188  1.00  0.00    -0.326 N 
HETATM   17  C   UNL     1      28.897  46.310  56.241  1.00  0.00     0.032 A 
HETATM   18  C   UNL     1      31.394  43.761  56.884  1.00  0.00     0.226 A 
HETATM   19  H   UNL     1      30.992  45.520  57.983  1.00  0.00     0.169 HD
HETATM   20  O   UNL     1      32.312  43.271  57.519  1.00  0.00    -0.273 OA
HETATM   21  C   UNL     1      27.962  46.362  55.201  1.00  0.00     0.032 A 
ENDBRANCH   6  11
BRANCH   1  22
HETATM   22  C   UNL     1      23.027  45.822  48.775  1.00  0.00     0.068 A 
HETATM   23  N   UNL     1      21.767  45.330  48.619  1.00  0.00    -0.262 NA
HETATM   24  C   UNL     1      20.747  46.208  48.483  1.00  0.00     0.123 A 
HETATM   25  C   UNL     1      20.900  47.585  48.498  1.00  0.00    -0.044 A 
HETATM   26  C   UNL     1      19.724  48.504  48.392  1.00  0.00     0.049 C 
HETATM   27  C   UNL     1      22.187  48.078  48.694  1.00  0.00     0.010 A 
HETATM   28  C   UNL     1      23.257  47.195  48.840  1.00  0.00     0.031 A 
ENDBRANCH   1  22
BRANCH   1  29
HETATM   29  O   UNL     1      24.273  44.075  47.758  1.00  0.00    -0.383 OA
HETATM   30  H   UNL     1      25.226  44.135  47.548  1.00  0.00     0.211 HD
ENDBRANCH   1  29
TORSDOF 3
ENDMDL
MODEL 2
REMARK VINA RESULT:      -8.7      3.357     10.201
REMARK  3 active torsions:
REMARK  status: ('A' for Active; 'I' for Inactive)
REMARK    1  A    between atoms: C_5  and  C_6 
REMARK    2  A    between atoms: C_6  and  O_7 
REMARK       I    between atoms: N_10  and  C_11 
REMARK       I    between atoms: C_11  and  N_12 
REMARK    3  A    between atoms: N_12  and  C_13 
ROOT
HETATM    1  C   UNL     1      26.511  45.132  50.015  1.00  0.00     0.105 C 
HETATM    2  C   UNL     1      24.975  45.051  49.911  1.00  0.00     0.064 C 
HETATM    3  C   UNL     1      24.293  46.266  50.526  1.00  0.00     0.131 C 
HETATM    4  N   UNL     1      24.803  47.516  49.950  1.00  0.00    -0.334 N 
HETATM    5  C   UNL     1      24.049  48.606  49.508  1.00  0.00     0.322 C 
HETATM    6  N   UNL     1      22.689  48.485  49.675  1.00  0.00    -0.309 N 
HETATM    7  O   UNL     1      24.592  49.590  49.010  1.00  0.00    -0.247 OA
HETATM    8  C   UNL     1      26.259  47.660  49.967  1.00  0.00     0.131 C 
HETATM    9  C   UNL     1      26.964  46.448  49.366  1.00  0.00     0.064 C 
HETATM   10  H   UNL     1      22.383  47.836  50.379  1.00  0.00     0.170 HD
ENDROOT
BRANCH   6  11
HETATM   11  C   UNL     1      21.680  49.326  49.153  1.00  0.00     0.037 A 
HETATM   12  C   UNL     1      20.985  49.059  47.965  1.00  0.00     0.039 A 
HETATM   13  C   UNL     1      20.007  49.951  47.558  1.00  0.00    -0.021 A 
HETATM   14  C   UNL     1      19.709  51.079  48.314  1.00  0.00     0.041 A 
HETATM   15  C   UNL     1      19.129  49.919  46.343  1.00  0.00     0.144 A 
HETATM   16  N   UNL     1      18.699  51.800  47.700  1.00  0.00    -0.326 N 
HETATM   17  C   UNL     1      20.359  51.370  49.491  1.00  0.00     0.032 A 
HETATM   18  C   UNL     1      18.289  51.189  46.520  1.00  0.00     0.226 A 
HETATM   19  H   UNL     1      18.292  52.659  48.038  1.00  0.00     0.169 HD
HETATM   20  O   UNL     1      17.417  51.600  45.773  1.00  0.00    -0.273 OA
HETATM   21  C   UNL     1      21.355  50.478  49.907  1.00  0.00     0.032 A 
ENDBRANCH   6  11
BRANCH   1  22
HETATM   22  C   UNL     1      26.995  44.852  51.441  1.00  0.00     0.068 A 
HETATM   23  N   UNL     1      28.035  43.980  51.540  1.00  0.00    -0.262 NA
HETATM   24  C   UNL     1      28.566  43.748  52.763  1.00  0.00     0.123 A 
HETATM   25  C   UNL     1      28.120  44.349  53.930  1.00  0.00    -0.044 A 
HETATM   26  C   UNL     1      28.781  44.087  55.245  1.00  0.00     0.049 C 
HETATM   27  C   UNL     1      27.080  45.267  53.813  1.00  0.00     0.010 A 
HETATM   28  C   UNL     1      26.516  45.526  52.563  1.00  0.00     0.031 A 
ENDBRANCH   1  22
BRANCH   1  29
HETATM   29  O   UNL     1      27.035  44.059  49.205  1.00  0.00    -0.383 OA
HETATM   30  H   UNL     1      26.261  43.509  48.971  1.00  0.00     0.211 HD
ENDBRANCH   1  29
TORSDOF 3
ENDMDL
MODEL 3
REMARK VINA RESULT:      -8.6      4.108      5.304
REMARK  3 active torsions:
REMARK  status: ('A' for Active; 'I' for Inactive)
REMARK    1  A    between atoms: C_5  and  C_6 
REMARK    2  A    between atoms: C_6  and  O_7 
REMARK       I    between atoms: N_10  and  C_11 
REMARK       I    between atoms: C_11  and  N_12 
REMARK    3  A    between atoms: N_12  and  C_13 
ROOT
HETATM    1  C   UNL     1      26.414  39.882  48.763  1.00  0.00     0.105 C 
HETATM    2  C   UNL     1      27.703  39.852  49.607  1.00  0.00     0.064 C 
HETATM    3  C   UNL     1      28.226  41.250  49.908  1.00  0.00     0.131 C 
HETATM    4  N   UNL     1      27.195  42.083  50.538  1.00  0.00    -0.334 N 
HETATM    5  C   UNL     1      27.347  42.905  51.658  1.00  0.00     0.322 C 
HETATM    6  N   UNL     1      28.617  42.948  52.185  1.00  0.00    -0.309 N 
HETATM    7  O   UNL     1      26.395  43.533  52.115  1.00  0.00    -0.247 OA
HETATM    8  C   UNL     1      25.918  42.137  49.826  1.00  0.00     0.131 C 
HETATM    9  C   UNL     1      25.381  40.745  49.503  1.00  0.00     0.064 C 
HETATM   10  H   UNL     1      29.366  42.698  51.563  1.00  0.00     0.170 HD
ENDROOT
BRANCH   6  11
HETATM   11  C   UNL     1      29.020  43.526  53.410  1.00  0.00     0.037 A 
HETATM   12  C   UNL     1      29.988  42.963  54.253  1.00  0.00     0.039 A 
HETATM   13  C   UNL     1      30.311  43.628  55.425  1.00  0.00    -0.021 A 
HETATM   14  C   UNL     1      29.700  44.833  55.755  1.00  0.00     0.041 A 
HETATM   15  C   UNL     1      31.288  43.253  56.499  1.00  0.00     0.144 A 
HETATM   16  N   UNL     1      30.196  45.293  56.963  1.00  0.00    -0.326 N 
HETATM   17  C   UNL     1      28.755  45.423  54.949  1.00  0.00     0.032 A 
HETATM   18  C   UNL     1      31.146  44.421  57.483  1.00  0.00     0.226 A 
HETATM   19  H   UNL     1      29.925  46.145  57.430  1.00  0.00     0.169 HD
HETATM   20  O   UNL     1      31.748  44.570  58.532  1.00  0.00    -0.273 OA
HETATM   21  C   UNL     1      28.416  44.756  53.766  1.00  0.00     0.032 A 
ENDBRANCH   6  11
BRANCH   1  22
HETATM   22  C   UNL     1      26.705  40.237  47.302  1.00  0.00     0.068 A 
HETATM   23  N   UNL     1      25.608  40.517  46.544  1.00  0.00    -0.262 NA
HETATM   24  C   UNL     1      25.796  40.917  45.265  1.00  0.00     0.123 A 
HETATM   25  C   UNL     1      27.040  41.066  44.672  1.00  0.00    -0.044 A 
HETATM   26  C   UNL     1      27.183  41.558  43.268  1.00  0.00     0.049 C 
HETATM   27  C   UNL     1      28.155  40.812  45.466  1.00  0.00     0.010 A 
HETATM   28  C   UNL     1      27.990  40.401  46.790  1.00  0.00     0.031 A 
ENDBRANCH   1  22
BRANCH   1  29
HETATM   29  O   UNL     1      25.902  38.533  48.746  1.00  0.00    -0.383 OA
HETATM   30  H   UNL     1      25.048  38.573  49.220  1.00  0.00     0.211 HD
ENDBRANCH   1  29
TORSDOF 3
ENDMDL
MODEL 4
REMARK VINA RESULT:      -8.6      2.739      3.972
REMARK  3 active torsions:
REMARK  status: ('A' for Active; 'I' for Inactive)
REMARK    1  A    between atoms: C_5  and  C_6 
REMARK    2  A    between atoms: C_6  and  O_7 
REMARK       I    between atoms: N_10  and  C_11 
REMARK       I    between atoms: C_11  and  N_12 
REMARK    3  A    between atoms: N_12  and  C_13 
ROOT
HETATM    1  C   UNL     1      22.915  43.664  49.224  1.00  0.00     0.105 C 
HETATM    2  C   UNL     1      23.285  43.005  50.567  1.00  0.00     0.064 C 
HETATM    3  C   UNL     1      24.774  42.696  50.666  1.00  0.00     0.131 C 
HETATM    4  N   UNL     1      25.586  43.892  50.414  1.00  0.00    -0.334 N 
HETATM    5  C   UNL     1      26.682  44.335  51.160  1.00  0.00     0.322 C 
HETATM    6  N   UNL     1      27.039  43.527  52.215  1.00  0.00    -0.309 N 
HETATM    7  O   UNL     1      27.266  45.377  50.869  1.00  0.00    -0.247 OA
HETATM    8  C   UNL     1      25.274  44.609  49.178  1.00  0.00     0.131 C 
HETATM    9  C   UNL     1      23.785  44.918  49.053  1.00  0.00     0.064 C 
HETATM   10  H   UNL     1      26.745  42.567  52.160  1.00  0.00     0.170 HD
ENDROOT
BRANCH   6  11
HETATM   11  C   UNL     1      27.964  43.815  53.244  1.00  0.00     0.037 A 
HETATM   12  C   UNL     1      27.777  44.828  54.195  1.00  0.00     0.039 A 
HETATM   13  C   UNL     1      28.748  45.009  55.166  1.00  0.00    -0.021 A 
HETATM   14  C   UNL     1      29.877  44.199  55.209  1.00  0.00     0.041 A 
HETATM   15  C   UNL     1      28.809  46.009  56.282  1.00  0.00     0.144 A 
HETATM   16  N   UNL     1      30.684  44.577  56.268  1.00  0.00    -0.326 N 
HETATM   17  C   UNL     1      30.090  43.186  54.302  1.00  0.00     0.032 A 
HETATM   18  C   UNL     1      30.133  45.645  56.965  1.00  0.00     0.226 A 
HETATM   19  H   UNL     1      31.562  44.152  56.526  1.00  0.00     0.169 HD
HETATM   20  O   UNL     1      30.625  46.185  57.941  1.00  0.00    -0.273 OA
HETATM   21  C   UNL     1      29.118  43.000  53.312  1.00  0.00     0.032 A 
ENDBRANCH   6  11
BRANCH   1  22
HETATM   22  C   UNL     1      22.920  42.647  48.078  1.00  0.00     0.068 A 
HETATM   23  N   UNL     1      22.458  41.408  48.401  1.00  0.00    -0.262 NA
HETATM   24  C   UNL     1      22.359  40.483  47.418  1.00  0.00     0.123 A 
HETATM   25  C   UNL     1      22.693  40.718  46.094  1.00  0.00    -0.044 A 
HETATM   26  C   UNL     1      22.515  39.667  45.044  1.00  0.00     0.049 C 
HETATM   27  C   UNL     1      23.130  41.999  45.767  1.00  0.00     0.010 A 
HETATM   28  C   UNL     1      23.239  42.973  46.761  1.00  0.00     0.031 A 
ENDBRANCH   1  22
BRANCH   1  29
HETATM   29  O   UNL     1      21.549  44.111  49.348  1.00  0.00    -0.383 OA
HETATM   30  H   UNL     1      21.295  43.916  50.272  1.00  0.00     0.211 HD
ENDBRANCH   1  29
TORSDOF 3
ENDMDL
MODEL 5
REMARK VINA RESULT:      -8.4     17.380     20.014
REMARK  3 active torsions:
REMARK  status: ('A' for Active; 'I' for Inactive)
REMARK    1  A    between atoms: C_5  and  C_6 
REMARK    2  A    between atoms: C_6  and  O_7 
REMARK       I    between atoms: N_10  and  C_11 
REMARK       I    between atoms: C_11  and  N_12 
REMARK    3  A    between atoms: N_12  and  C_13 
ROOT
HETATM    1  C   UNL     1      39.738  44.641  63.934  1.00  0.00     0.105 C 
HETATM    2  C   UNL     1      40.547  43.860  64.988  1.00  0.00     0.064 C 
HETATM    3  C   UNL     1      39.839  42.584  65.427  1.00  0.00     0.131 C 
HETATM    4  N   UNL     1      39.500  41.737  64.277  1.00  0.00    -0.334 N 
HETATM    5  C   UNL     1      39.699  40.359  64.163  1.00  0.00     0.322 C 
HETATM    6  N   UNL     1      40.237  39.749  65.272  1.00  0.00    -0.309 N 
HETATM    7  O   UNL     1      39.403  39.761  63.130  1.00  0.00    -0.247 OA
HETATM    8  C   UNL     1      38.767  42.408  63.205  1.00  0.00     0.131 C 
HETATM    9  C   UNL     1      39.452  43.696  62.758  1.00  0.00     0.064 C 
HETATM   10  H   UNL     1      40.117  40.230  66.147  1.00  0.00     0.170 HD
ENDROOT
BRANCH   6  11
HETATM   11  C   UNL     1      40.723  38.426  65.376  1.00  0.00     0.037 A 
HETATM   12  C   UNL     1      40.011  37.382  65.982  1.00  0.00     0.039 A 
HETATM   13  C   UNL     1      40.585  36.122  66.014  1.00  0.00    -0.021 A 
HETATM   14  C   UNL     1      41.832  35.890  65.446  1.00  0.00     0.041 A 
HETATM   15  C   UNL     1      40.058  34.845  66.599  1.00  0.00     0.144 A 
HETATM   16  N   UNL     1      42.178  34.559  65.603  1.00  0.00    -0.326 N 
HETATM   17  C   UNL     1      42.557  36.885  64.830  1.00  0.00     0.032 A 
HETATM   18  C   UNL     1      41.185  33.857  66.278  1.00  0.00     0.226 A 
HETATM   19  H   UNL     1      43.030  34.124  65.281  1.00  0.00     0.169 HD
HETATM   20  O   UNL     1      41.219  32.670  66.556  1.00  0.00    -0.273 OA
HETATM   21  C   UNL     1      41.989  38.164  64.800  1.00  0.00     0.032 A 
ENDBRANCH   6  11
BRANCH   1  22
HETATM   22  C   UNL     1      38.539  45.359  64.562  1.00  0.00     0.068 A 
HETATM   23  N   UNL     1      38.786  45.963  65.757  1.00  0.00    -0.262 NA
HETATM   24  C   UNL     1      37.794  46.683  66.330  1.00  0.00     0.123 A 
HETATM   25  C   UNL     1      36.536  46.852  65.774  1.00  0.00    -0.044 A 
HETATM   26  C   UNL     1      35.497  47.701  66.434  1.00  0.00     0.049 C 
HETATM   27  C   UNL     1      36.305  46.261  64.535  1.00  0.00     0.010 A 
HETATM   28  C   UNL     1      37.312  45.514  63.920  1.00  0.00     0.031 A 
ENDBRANCH   1  22
BRANCH   1  29
HETATM   29  O   UNL     1      40.605  45.682  63.440  1.00  0.00    -0.383 OA
HETATM   30  H   UNL     1      41.443  45.579  63.934  1.00  0.00     0.211 HD
ENDBRANCH   1  29
TORSDOF 3
ENDMDL
MODEL 6
REMARK VINA RESULT:      -8.4      5.833      7.237
REMARK  3 active torsions:
REMARK  status: ('A' for Active; 'I' for Inactive)
REMARK    1  A    between atoms: C_5  and  C_6 
REMARK    2  A    between atoms: C_6  and  O_7 
REMARK       I    between atoms: N_10  and  C_11 
REMARK       I    between atoms: C_11  and  N_12 
REMARK    3  A    between atoms: N_12  and  C_13 
ROOT
HETATM    1  C   UNL     1      27.781  37.780  48.984  1.00  0.00     0.105 C 
HETATM    2  C   UNL     1      28.981  38.241  49.835  1.00  0.00     0.064 C 
HETATM    3  C   UNL     1      29.100  39.758  49.886  1.00  0.00     0.131 C 
HETATM    4  N   UNL     1      27.851  40.379  50.343  1.00  0.00    -0.334 N 
HETATM    5  C   UNL     1      27.716  41.390  51.298  1.00  0.00     0.322 C 
HETATM    6  N   UNL     1      28.896  41.862  51.824  1.00  0.00    -0.309 N 
HETATM    7  O   UNL     1      26.607  41.809  51.623  1.00  0.00    -0.247 OA
HETATM    8  C   UNL     1      26.650  39.966  49.618  1.00  0.00     0.131 C 
HETATM    9  C   UNL     1      26.516  38.448  49.544  1.00  0.00     0.064 C 
HETATM   10  H   UNL     1      29.721  41.719  51.267  1.00  0.00     0.170 HD
ENDROOT
BRANCH   6  11
HETATM   11  C   UNL     1      29.060  42.727  52.930  1.00  0.00     0.037 A 
HETATM   12  C   UNL     1      30.027  42.537  53.927  1.00  0.00     0.039 A 
HETATM   13  C   UNL     1      30.101  43.460  54.958  1.00  0.00    -0.021 A 
HETATM   14  C   UNL     1      29.248  44.556  54.999  1.00  0.00     0.041 A 
HETATM   15  C   UNL     1      31.019  43.496  56.144  1.00  0.00     0.144 A 
HETATM   16  N   UNL     1      29.526  45.324  56.118  1.00  0.00    -0.326 N 
HETATM   17  C   UNL     1      28.295  44.784  54.033  1.00  0.00     0.032 A 
HETATM   18  C   UNL     1      30.564  44.773  56.861  1.00  0.00     0.226 A 
HETATM   19  H   UNL     1      29.056  46.175  56.386  1.00  0.00     0.169 HD
HETATM   20  O   UNL     1      31.020  45.234  57.894  1.00  0.00    -0.273 OA
HETATM   21  C   UNL     1      28.206  43.853  52.991  1.00  0.00     0.032 A 
ENDBRANCH   6  11
BRANCH   1  22
HETATM   22  C   UNL     1      28.056  37.946  47.487  1.00  0.00     0.068 A 
HETATM   23  N   UNL     1      28.880  37.009  46.941  1.00  0.00    -0.262 NA
HETATM   24  C   UNL     1      29.102  37.047  45.607  1.00  0.00     0.123 A 
HETATM   25  C   UNL     1      28.538  37.980  44.752  1.00  0.00    -0.044 A 
HETATM   26  C   UNL     1      28.785  37.940  43.278  1.00  0.00     0.049 C 
HETATM   27  C   UNL     1      27.668  38.911  45.314  1.00  0.00     0.010 A 
HETATM   28  C   UNL     1      27.419  38.893  46.687  1.00  0.00     0.031 A 
ENDBRANCH   1  22
BRANCH   1  29
HETATM   29  O   UNL     1      27.642  36.361  49.204  1.00  0.00    -0.383 OA
HETATM   30  H   UNL     1      27.962  36.207  50.116  1.00  0.00     0.211 HD
ENDBRANCH   1  29
TORSDOF 3
ENDMDL
MODEL 7
REMARK VINA RESULT:      -8.3      3.210      5.931
REMARK  3 active torsions:
REMARK  status: ('A' for Active; 'I' for Inactive)
REMARK    1  A    between atoms: C_5  and  C_6 
REMARK    2  A    between atoms: C_6  and  O_7 
REMARK       I    between atoms: N_10  and  C_11 
REMARK       I    between atoms: C_11  and  N_12 
REMARK    3  A    between atoms: N_12  and  C_13 
ROOT
HETATM    1  C   UNL     1      19.583  49.922  49.023  1.00  0.00     0.105 C 
HETATM    2  C   UNL     1      19.803  48.504  49.585  1.00  0.00     0.064 C 
HETATM    3  C   UNL     1      20.991  47.806  48.936  1.00  0.00     0.131 C 
HETATM    4  N   UNL     1      22.210  48.616  49.039  1.00  0.00    -0.334 N 
HETATM    5  C   UNL     1      23.480  48.178  49.422  1.00  0.00     0.322 C 
HETATM    6  N   UNL     1      23.580  46.832  49.690  1.00  0.00    -0.309 N 
HETATM    7  O   UNL     1      24.423  48.963  49.503  1.00  0.00    -0.247 OA
HETATM    8  C   UNL     1      22.083  49.995  48.567  1.00  0.00     0.131 C 
HETATM    9  C   UNL     1      20.890  50.710  49.196  1.00  0.00     0.064 C 
HETATM   10  H   UNL     1      22.882  46.242  49.272  1.00  0.00     0.170 HD
ENDROOT
BRANCH   6  11
HETATM   11  C   UNL     1      24.670  46.151  50.279  1.00  0.00     0.037 A 
HETATM   12  C   UNL     1      25.028  46.278  51.628  1.00  0.00     0.039 A 
HETATM   13  C   UNL     1      26.110  45.550  52.096  1.00  0.00    -0.021 A 
HETATM   14  C   UNL     1      26.819  44.702  51.252  1.00  0.00     0.041 A 
HETATM   15  C   UNL     1      26.709  45.504  53.469  1.00  0.00     0.144 A 
HETATM   16  N   UNL     1      27.842  44.090  51.957  1.00  0.00    -0.326 N 
HETATM   17  C   UNL     1      26.491  44.540  49.926  1.00  0.00     0.032 A 
HETATM   18  C   UNL     1      27.858  44.505  53.284  1.00  0.00     0.226 A 
HETATM   19  H   UNL     1      28.505  43.427  51.585  1.00  0.00     0.169 HD
HETATM   20  O   UNL     1      28.647  44.132  54.135  1.00  0.00    -0.273 OA
HETATM   21  C   UNL     1      25.404  45.277  49.442  1.00  0.00     0.032 A 
ENDBRANCH   6  11
BRANCH   1  22
HETATM   22  C   UNL     1      18.970  49.884  47.620  1.00  0.00     0.068 A 
HETATM   23  N   UNL     1      18.052  48.899  47.415  1.00  0.00    -0.262 NA
HETATM   24  C   UNL     1      17.411  48.855  46.224  1.00  0.00     0.123 A 
HETATM   25  C   UNL     1      17.625  49.756  45.194  1.00  0.00    -0.044 A 
HETATM   26  C   UNL     1      16.848  49.683  43.918  1.00  0.00     0.049 C 
HETATM   27  C   UNL     1      18.538  50.781  45.426  1.00  0.00     0.010 A 
HETATM   28  C   UNL     1      19.212  50.851  46.647  1.00  0.00     0.031 A 
ENDBRANCH   1  22
BRANCH   1  29
HETATM   29  O   UNL     1      18.596  50.550  49.867  1.00  0.00    -0.383 OA
HETATM   30  H   UNL     1      17.733  50.347  49.454  1.00  0.00     0.211 HD
ENDBRANCH   1  29
TORSDOF 3
ENDMDL
MODEL 8
REMARK VINA RESULT:      -8.1      4.447      7.276
REMARK  3 active torsions:
REMARK  status: ('A' for Active; 'I' for Inactive)
REMARK    1  A    between atoms: C_5  and  C_6 
REMARK    2  A    between atoms: C_6  and  O_7 
REMARK       I    between atoms: N_10  and  C_11 
REMARK       I    between atoms: C_11  and  N_12 
REMARK    3  A    between atoms: N_12  and  C_13 
ROOT
HETATM    1  C   UNL     1      19.162  51.036  49.059  1.00  0.00     0.105 C 
HETATM    2  C   UNL     1      19.401  49.789  49.934  1.00  0.00     0.064 C 
HETATM    3  C   UNL     1      20.097  48.673  49.165  1.00  0.00     0.131 C 
HETATM    4  N   UNL     1      21.344  49.143  48.552  1.00  0.00    -0.334 N 
HETATM    5  C   UNL     1      22.584  48.498  48.571  1.00  0.00     0.322 C 
HETATM    6  N   UNL     1      22.602  47.279  49.208  1.00  0.00    -0.309 N 
HETATM    7  O   UNL     1      23.571  49.010  48.047  1.00  0.00    -0.247 OA
HETATM    8  C   UNL     1      21.221  50.350  47.736  1.00  0.00     0.131 C 
HETATM    9  C   UNL     1      20.515  51.479  48.482  1.00  0.00     0.064 C 
HETATM   10  H   UNL     1      21.719  46.805  49.287  1.00  0.00     0.170 HD
ENDROOT
BRANCH   6  11
HETATM   11  C   UNL     1      23.733  46.504  49.551  1.00  0.00     0.037 A 
HETATM   12  C   UNL     1      23.925  45.182  49.128  1.00  0.00     0.039 A 
HETATM   13  C   UNL     1      25.081  44.525  49.517  1.00  0.00    -0.021 A 
HETATM   14  C   UNL     1      26.037  45.163  50.300  1.00  0.00     0.041 A 
HETATM   15  C   UNL     1      25.532  43.126  49.222  1.00  0.00     0.144 A 
HETATM   16  N   UNL     1      27.092  44.301  50.546  1.00  0.00    -0.326 N 
HETATM   17  C   UNL     1      25.891  46.464  50.725  1.00  0.00     0.032 A 
HETATM   18  C   UNL     1      26.882  43.064  49.946  1.00  0.00     0.226 A 
HETATM   19  H   UNL     1      27.918  44.512  51.085  1.00  0.00     0.169 HD
HETATM   20  O   UNL     1      27.643  42.113  49.995  1.00  0.00    -0.273 OA
HETATM   21  C   UNL     1      24.722  47.133  50.342  1.00  0.00     0.032 A 
ENDBRANCH   6  11
BRANCH   1  22
HETATM   22  C   UNL     1      18.016  50.818  48.067  1.00  0.00     0.068 A 
HETATM   23  N   UNL     1      16.937  50.153  48.564  1.00  0.00    -0.262 NA
HETATM   24  C   UNL     1      15.856  49.995  47.767  1.00  0.00     0.123 A 
HETATM   25  C   UNL     1      15.771  50.474  46.470  1.00  0.00    -0.044 A 
HETATM   26  C   UNL     1      14.528  50.309  45.655  1.00  0.00     0.049 C 
HETATM   27  C   UNL     1      16.865  51.185  45.983  1.00  0.00     0.010 A 
HETATM   28  C   UNL     1      17.993  51.364  46.785  1.00  0.00     0.031 A 
ENDBRANCH   1  22
BRANCH   1  29
HETATM   29  O   UNL     1      18.719  52.083  49.949  1.00  0.00    -0.383 OA
HETATM   30  H   UNL     1      17.742  52.053  49.918  1.00  0.00     0.211 HD
ENDBRANCH   1  29
TORSDOF 3
ENDMDL
MODEL 9
REMARK VINA RESULT:      -8.0     13.027     14.119
REMARK  3 active torsions:
REMARK  status: ('A' for Active; 'I' for Inactive)
REMARK    1  A    between atoms: C_5  and  C_6 
REMARK    2  A    between atoms: C_6  and  O_7 
REMARK       I    between atoms: N_10  and  C_11 
REMARK       I    between atoms: C_11  and  N_12 
REMARK    3  A    between atoms: N_12  and  C_13 
ROOT
HETATM    1  C   UNL     1      28.018  51.403  40.635  1.00  0.00     0.105 C 
HETATM    2  C   UNL     1      28.878  50.745  41.732  1.00  0.00     0.064 C 
HETATM    3  C   UNL     1      30.223  50.267  41.199  1.00  0.00     0.131 C 
HETATM    4  N   UNL     1      30.949  51.351  40.529  1.00  0.00    -0.334 N 
HETATM    5  C   UNL     1      32.297  51.684  40.690  1.00  0.00     0.322 C 
HETATM    6  N   UNL     1      33.004  50.871  41.545  1.00  0.00    -0.309 N 
HETATM    7  O   UNL     1      32.787  52.642  40.094  1.00  0.00    -0.247 OA
HETATM    8  C   UNL     1      30.193  52.063  39.499  1.00  0.00     0.131 C 
HETATM    9  C   UNL     1      28.836  52.541  40.008  1.00  0.00     0.064 C 
HETATM   10  H   UNL     1      32.629  49.951  41.696  1.00  0.00     0.170 HD
ENDROOT
BRANCH   6  11
HETATM   11  C   UNL     1      34.309  51.078  42.046  1.00  0.00     0.037 A 
HETATM   12  C   UNL     1      34.596  51.892  43.150  1.00  0.00     0.039 A 
HETATM   13  C   UNL     1      35.915  52.010  43.559  1.00  0.00    -0.021 A 
HETATM   14  C   UNL     1      36.931  51.328  42.899  1.00  0.00     0.041 A 
HETATM   15  C   UNL     1      36.500  52.808  44.686  1.00  0.00     0.144 A 
HETATM   16  N   UNL     1      38.147  51.606  43.500  1.00  0.00    -0.326 N 
HETATM   17  C   UNL     1      36.689  50.510  41.820  1.00  0.00     0.032 A 
HETATM   18  C   UNL     1      37.993  52.478  44.571  1.00  0.00     0.226 A 
HETATM   19  H   UNL     1      39.045  51.240  43.221  1.00  0.00     0.169 HD
HETATM   20  O   UNL     1      38.891  52.896  45.282  1.00  0.00    -0.273 OA
HETATM   21  C   UNL     1      35.360  50.391  41.394  1.00  0.00     0.032 A 
ENDBRANCH   6  11
BRANCH   1  22
HETATM   22  C   UNL     1      27.425  50.360  39.683  1.00  0.00     0.068 A 
HETATM   23  N   UNL     1      27.063  49.183  40.264  1.00  0.00    -0.262 NA
HETATM   24  C   UNL     1      26.458  48.247  39.498  1.00  0.00     0.123 A 
HETATM   25  C   UNL     1      26.176  48.410  38.151  1.00  0.00    -0.044 A 
HETATM   26  C   UNL     1      25.461  47.354  37.368  1.00  0.00     0.049 C 
HETATM   27  C   UNL     1      26.518  49.630  37.574  1.00  0.00     0.010 A 
HETATM   28  C   UNL     1      27.140  50.615  38.343  1.00  0.00     0.031 A 
ENDBRANCH   1  22
BRANCH   1  29
HETATM   29  O   UNL     1      26.893  52.010  41.304  1.00  0.00    -0.383 OA
HETATM   30  H   UNL     1      26.115  51.790  40.755  1.00  0.00     0.211 HD
ENDBRANCH   1  29
TORSDOF 3
ENDMDL
MODEL 10
REMARK VINA RESULT:      -8.0      9.302     14.282
REMARK  3 active torsions:
REMARK  status: ('A' for Active; 'I' for Inactive)
REMARK    1  A    between atoms: C_5  and  C_6 
REMARK    2  A    between atoms: C_6  and  O_7 
REMARK       I    between atoms: N_10  and  C_11 
REMARK       I    between atoms: C_11  and  N_12 
REMARK    3  A    between atoms: N_12  and  C_13 
ROOT
HETATM    1  C   UNL     1      12.884  55.737  50.001  1.00  0.00     0.105 C 
HETATM    2  C   UNL     1      14.218  55.998  49.275  1.00  0.00     0.064 C 
HETATM    3  C   UNL     1      15.379  55.253  49.920  1.00  0.00     0.131 C 
HETATM    4  N   UNL     1      15.100  53.816  50.025  1.00  0.00    -0.334 N 
HETATM    5  C   UNL     1      15.961  52.767  49.692  1.00  0.00     0.322 C 
HETATM    6  N   UNL     1      17.209  53.148  49.256  1.00  0.00    -0.309 N 
HETATM    7  O   UNL     1      15.601  51.596  49.792  1.00  0.00    -0.247 OA
HETATM    8  C   UNL     1      13.830  53.473  50.664  1.00  0.00     0.131 C 
HETATM    9  C   UNL     1      12.654  54.219  50.041  1.00  0.00     0.064 C 
HETATM   10  H   UNL     1      17.518  54.064  49.534  1.00  0.00     0.170 HD
ENDROOT
BRANCH   6  11
HETATM   11  C   UNL     1      18.204  52.330  48.673  1.00  0.00     0.037 A 
HETATM   12  C   UNL     1      19.451  52.084  49.264  1.00  0.00     0.039 A 
HETATM   13  C   UNL     1      20.342  51.254  48.603  1.00  0.00    -0.021 A 
HETATM   14  C   UNL     1      20.006  50.666  47.389  1.00  0.00     0.041 A 
HETATM   15  C   UNL     1      21.727  50.833  48.995  1.00  0.00     0.144 A 
HETATM   16  N   UNL     1      21.057  49.883  46.942  1.00  0.00    -0.326 N 
HETATM   17  C   UNL     1      18.788  50.873  46.784  1.00  0.00     0.032 A 
HETATM   18  C   UNL     1      22.126  49.920  47.829  1.00  0.00     0.226 A 
HETATM   19  H   UNL     1      21.075  49.345  46.089  1.00  0.00     0.169 HD
HETATM   20  O   UNL     1      23.183  49.328  47.693  1.00  0.00    -0.273 OA
HETATM   21  C   UNL     1      17.884  51.716  47.439  1.00  0.00     0.032 A 
ENDBRANCH   6  11
BRANCH   1  22
HETATM   22  C   UNL     1      12.809  56.491  51.332  1.00  0.00     0.068 A 
HETATM   23  N   UNL     1      12.420  55.744  52.401  1.00  0.00    -0.262 NA
HETATM   24  C   UNL     1      12.409  56.326  53.623  1.00  0.00     0.123 A 
HETATM   25  C   UNL     1      12.774  57.641  53.860  1.00  0.00    -0.044 A 
HETATM   26  C   UNL     1      12.786  58.213  55.241  1.00  0.00     0.049 C 
HETATM   27  C   UNL     1      13.204  58.387  52.765  1.00  0.00     0.010 A 
HETATM   28  C   UNL     1      13.228  57.810  51.494  1.00  0.00     0.031 A 
ENDBRANCH   1  22
BRANCH   1  29
HETATM   29  O   UNL     1      11.847  56.300  49.170  1.00  0.00    -0.383 OA
HETATM   30  H   UNL     1      12.101  57.234  49.035  1.00  0.00     0.211 HD
ENDBRANCH   1  29
TORSDOF 3
ENDMDL
