MODEL 1
REMARK VINA RESULT:      -8.6      0.000      0.000
REMARK  5 active torsions:
REMARK  status: ('A' for Active; 'I' for Inactive)
REMARK    1  A    between atoms: C_6  and  C_7 
REMARK    2  A    between atoms: C_12  and  C_13 
REMARK    3  A    between atoms: C_13  and  N_14 
REMARK    4  A    between atoms: C_17  and  C_19 
REMARK    5  A    between atoms: C_17  and  O_18 
ROOT
HETATM    1  C   UNL     1      28.893  42.716  53.404  1.00  0.00     0.096 A 
HETATM    2  N   UNL     1      29.692  41.778  52.882  1.00  0.00    -0.174 NA
HETATM    3  N   UNL     1      28.957  41.160  51.955  1.00  0.00    -0.288 N 
HETATM    4  H   UNL     1      29.388  40.411  51.419  1.00  0.00     0.188 HD
HETATM    5  C   UNL     1      27.692  41.661  51.857  1.00  0.00     0.120 A 
HETATM    6  C   UNL     1      27.598  42.679  52.790  1.00  0.00     0.016 A 
ENDROOT
BRANCH   6   7
HETATM    7  C   UNL     1      26.443  43.575  53.037  1.00  0.00     0.277 C 
BRANCH   7   8
HETATM    8  N   UNL     1      25.891  44.185  51.777  1.00  0.00    -0.064 N 
HETATM    9  H   UNL     1      25.692  43.420  51.114  1.00  0.00     0.280 HD
HETATM   10  C   UNL     1      26.816  45.151  51.061  1.00  0.00     0.282 C 
HETATM   11  C   UNL     1      25.884  45.869  50.083  1.00  0.00     0.180 C 
HETATM   12  C   UNL     1      24.482  45.782  50.700  1.00  0.00     0.076 C 
HETATM   13  C   UNL     1      24.637  44.981  51.983  1.00  0.00     0.238 C 
BRANCH  11  14
HETATM   14  C   UNL     1      26.380  47.303  49.903  1.00  0.00     0.419 C 
HETATM   15  F   UNL     1      25.465  48.053  49.260  1.00  0.00    -0.168 F 
HETATM   16  F   UNL     1      26.635  47.869  51.098  1.00  0.00    -0.168 F 
HETATM   17  F   UNL     1      27.517  47.315  49.175  1.00  0.00    -0.168 F 
ENDBRANCH  11  14
BRANCH  11  18
HETATM   18  O   UNL     1      25.850  45.102  48.860  1.00  0.00    -0.379 OA
HETATM   19  H   UNL     1      25.307  45.585  48.202  1.00  0.00     0.211 HD
ENDBRANCH  11  18
ENDBRANCH   7   8
ENDBRANCH   6   7
BRANCH   1  20
HETATM   20  C   UNL     1      29.402  43.623  54.431  1.00  0.00    -0.003 A 
HETATM   21  C   UNL     1      30.447  43.243  55.279  1.00  0.00     0.037 A 
HETATM   22  C   UNL     1      30.892  44.117  56.273  1.00  0.00     0.035 A 
HETATM   23  C   UNL     1      30.321  45.378  56.421  1.00  0.00     0.024 A 
HETATM   24 CL   UNL     1      32.151  43.611  57.330  1.00  0.00    -0.084 Cl
HETATM   25  C   UNL     1      29.298  45.774  55.562  1.00  0.00     0.003 A 
HETATM   26  C   UNL     1      28.841  44.901  54.572  1.00  0.00     0.014 A 
ENDBRANCH   1  20
TORSDOF 5
ENDMDL
MODEL 2
REMARK VINA RESULT:      -8.5      3.586      4.874
REMARK  5 active torsions:
REMARK  status: ('A' for Active; 'I' for Inactive)
REMARK    1  A    between atoms: C_6  and  C_7 
REMARK    2  A    between atoms: C_12  and  C_13 
REMARK    3  A    between atoms: C_13  and  N_14 
REMARK    4  A    between atoms: C_17  and  C_19 
REMARK    5  A    between atoms: C_17  and  O_18 
ROOT
HETATM    1  C   UNL     1      28.005  45.994  54.873  1.00  0.00     0.096 A 
HETATM    2  N   UNL     1      28.166  47.302  54.642  1.00  0.00    -0.174 NA
HETATM    3  N   UNL     1      26.996  47.723  54.154  1.00  0.00    -0.288 N 
HETATM    4  H   UNL     1      26.897  48.710  53.924  1.00  0.00     0.188 HD
HETATM    5  C   UNL     1      26.071  46.726  54.051  1.00  0.00     0.120 A 
HETATM    6  C   UNL     1      26.686  45.571  54.504  1.00  0.00     0.016 A 
ENDROOT
BRANCH   6   7
HETATM    7  C   UNL     1      26.084  44.224  54.646  1.00  0.00     0.277 C 
BRANCH   7   8
HETATM    8  N   UNL     1      26.353  43.330  53.465  1.00  0.00    -0.064 N 
HETATM    9  H   UNL     1      25.444  43.048  53.066  1.00  0.00     0.280 HD
HETATM   10  C   UNL     1      27.107  42.051  53.774  1.00  0.00     0.282 C 
HETATM   11  C   UNL     1      27.551  41.563  52.394  1.00  0.00     0.180 C 
HETATM   12  C   UNL     1      27.621  42.816  51.510  1.00  0.00     0.076 C 
HETATM   13  C   UNL     1      27.173  43.974  52.387  1.00  0.00     0.238 C 
BRANCH  11  14
HETATM   14  C   UNL     1      28.894  40.848  52.540  1.00  0.00     0.419 C 
HETATM   15  F   UNL     1      29.081  39.964  51.542  1.00  0.00    -0.168 F 
HETATM   16  F   UNL     1      29.907  41.735  52.524  1.00  0.00    -0.168 F 
HETATM   17  F   UNL     1      28.937  40.174  53.709  1.00  0.00    -0.168 F 
ENDBRANCH  11  14
BRANCH  11  18
HETATM   18  O   UNL     1      26.499  40.732  51.859  1.00  0.00    -0.379 OA
HETATM   19  H   UNL     1      26.768  39.793  51.941  1.00  0.00     0.211 HD
ENDBRANCH  11  18
ENDBRANCH   7   8
ENDBRANCH   6   7
BRANCH   1  20
HETATM   20  C   UNL     1      29.093  45.216  55.461  1.00  0.00    -0.003 A 
HETATM   21  C   UNL     1      29.624  45.543  56.713  1.00  0.00     0.037 A 
HETATM   22  C   UNL     1      30.684  44.802  57.237  1.00  0.00     0.035 A 
HETATM   23  C   UNL     1      31.212  43.721  56.537  1.00  0.00     0.024 A 
HETATM   24 CL   UNL     1      31.347  45.251  58.760  1.00  0.00    -0.084 Cl
HETATM   25  C   UNL     1      30.671  43.371  55.302  1.00  0.00     0.003 A 
HETATM   26  C   UNL     1      29.617  44.115  54.767  1.00  0.00     0.014 A 
ENDBRANCH   1  20
TORSDOF 5
ENDMDL
MODEL 3
REMARK VINA RESULT:      -8.1      3.028      4.104
REMARK  5 active torsions:
REMARK  status: ('A' for Active; 'I' for Inactive)
REMARK    1  A    between atoms: C_6  and  C_7 
REMARK    2  A    between atoms: C_12  and  C_13 
REMARK    3  A    between atoms: C_13  and  N_14 
REMARK    4  A    between atoms: C_17  and  C_19 
REMARK    5  A    between atoms: C_17  and  O_18 
ROOT
HETATM    1  C   UNL     1      27.845  45.871  54.663  1.00  0.00     0.096 A 
HETATM    2  N   UNL     1      27.808  47.199  54.817  1.00  0.00    -0.174 NA
HETATM    3  N   UNL     1      26.669  47.592  54.243  1.00  0.00    -0.288 N 
HETATM    4  H   UNL     1      26.436  48.582  54.265  1.00  0.00     0.188 HD
HETATM    5  C   UNL     1      25.957  46.559  53.708  1.00  0.00     0.120 A 
HETATM    6  C   UNL     1      26.689  45.410  53.952  1.00  0.00     0.016 A 
ENDROOT
BRANCH   6   7
HETATM    7  C   UNL     1      26.315  44.014  53.619  1.00  0.00     0.277 C 
BRANCH   7   8
HETATM    8  N   UNL     1      26.709  43.615  52.223  1.00  0.00    -0.064 N 
HETATM    9  H   UNL     1      27.372  44.321  51.866  1.00  0.00     0.280 HD
HETATM   10  C   UNL     1      25.573  43.540  51.221  1.00  0.00     0.282 C 
HETATM   11  C   UNL     1      26.188  42.774  50.049  1.00  0.00     0.180 C 
HETATM   12  C   UNL     1      27.318  41.927  50.650  1.00  0.00     0.076 C 
HETATM   13  C   UNL     1      27.352  42.263  52.132  1.00  0.00     0.238 C 
BRANCH  11  14
HETATM   14  C   UNL     1      25.093  41.940  49.385  1.00  0.00     0.419 C 
HETATM   15  F   UNL     1      23.876  42.290  49.842  1.00  0.00    -0.168 F 
HETATM   16  F   UNL     1      25.115  42.107  48.049  1.00  0.00    -0.168 F 
HETATM   17  F   UNL     1      25.280  40.630  49.654  1.00  0.00    -0.168 F 
ENDBRANCH  11  14
BRANCH  11  18
HETATM   18  O   UNL     1      26.810  43.734  49.169  1.00  0.00    -0.379 OA
HETATM   19  H   UNL     1      27.708  43.415  48.939  1.00  0.00     0.211 HD
ENDBRANCH  11  18
ENDBRANCH   7   8
ENDBRANCH   6   7
BRANCH   1  20
HETATM   20  C   UNL     1      28.951  45.099  55.224  1.00  0.00    -0.003 A 
HETATM   21  C   UNL     1      29.508  45.425  56.465  1.00  0.00     0.037 A 
HETATM   22  C   UNL     1      30.586  44.691  56.962  1.00  0.00     0.035 A 
HETATM   23  C   UNL     1      31.107  43.616  56.246  1.00  0.00     0.024 A 
HETATM   24 CL   UNL     1      31.278  45.138  58.472  1.00  0.00    -0.084 Cl
HETATM   25  C   UNL     1      30.541  43.267  55.022  1.00  0.00     0.003 A 
HETATM   26  C   UNL     1      29.469  44.005  54.514  1.00  0.00     0.014 A 
ENDBRANCH   1  20
TORSDOF 5
ENDMDL
MODEL 4
REMARK VINA RESULT:      -8.0     12.797     14.018
REMARK  5 active torsions:
REMARK  status: ('A' for Active; 'I' for Inactive)
REMARK    1  A    between atoms: C_6  and  C_7 
REMARK    2  A    between atoms: C_12  and  C_13 
REMARK    3  A    between atoms: C_13  and  N_14 
REMARK    4  A    between atoms: C_17  and  C_19 
REMARK    5  A    between atoms: C_17  and  O_18 
ROOT
HETATM    1  C   UNL     1      32.113  49.207  40.697  1.00  0.00     0.096 A 
HETATM    2  N   UNL     1      31.754  47.964  41.035  1.00  0.00    -0.174 NA
HETATM    3  N   UNL     1      31.071  47.494  39.988  1.00  0.00    -0.288 N 
HETATM    4  H   UNL     1      30.716  46.541  40.033  1.00  0.00     0.188 HD
HETATM    5  C   UNL     1      30.964  48.398  38.973  1.00  0.00     0.120 A 
HETATM    6  C   UNL     1      31.626  49.539  39.390  1.00  0.00     0.016 A 
ENDROOT
BRANCH   6   7
HETATM    7  C   UNL     1      31.844  50.789  38.623  1.00  0.00     0.277 C 
BRANCH   7   8
HETATM    8  N   UNL     1      30.747  51.800  38.818  1.00  0.00    -0.064 N 
HETATM    9  H   UNL     1      31.130  52.732  38.594  1.00  0.00     0.280 HD
HETATM   10  C   UNL     1      30.184  51.888  40.223  1.00  0.00     0.282 C 
HETATM   11  C   UNL     1      28.890  52.681  40.034  1.00  0.00     0.180 C 
HETATM   12  C   UNL     1      28.460  52.439  38.581  1.00  0.00     0.076 C 
HETATM   13  C   UNL     1      29.537  51.560  37.965  1.00  0.00     0.238 C 
BRANCH  11  14
HETATM   14  C   UNL     1      27.866  52.192  41.057  1.00  0.00     0.419 C 
HETATM   15  F   UNL     1      27.273  53.228  41.681  1.00  0.00    -0.168 F 
HETATM   16  F   UNL     1      26.915  51.450  40.459  1.00  0.00    -0.168 F 
HETATM   17  F   UNL     1      28.472  51.432  41.995  1.00  0.00    -0.168 F 
ENDBRANCH  11  14
BRANCH  11  18
HETATM   18  O   UNL     1      29.209  54.085  40.147  1.00  0.00    -0.379 OA
HETATM   19  H   UNL     1      28.593  54.593  39.578  1.00  0.00     0.211 HD
ENDBRANCH  11  18
ENDBRANCH   7   8
ENDBRANCH   6   7
BRANCH   1  20
HETATM   20  C   UNL     1      32.927  50.007  41.609  1.00  0.00    -0.003 A 
HETATM   21  C   UNL     1      32.375  50.580  42.760  1.00  0.00     0.037 A 
HETATM   22  C   UNL     1      33.168  51.367  43.598  1.00  0.00     0.035 A 
HETATM   23  C   UNL     1      34.515  51.575  43.314  1.00  0.00     0.024 A 
HETATM   24 CL   UNL     1      32.456  52.093  44.984  1.00  0.00    -0.084 Cl
HETATM   25  C   UNL     1      35.079  50.986  42.184  1.00  0.00     0.003 A 
HETATM   26  C   UNL     1      34.289  50.206  41.336  1.00  0.00     0.014 A 
ENDBRANCH   1  20
TORSDOF 5
ENDMDL
MODEL 5
REMARK VINA RESULT:      -8.0     12.441     13.636
REMARK  5 active torsions:
REMARK  status: ('A' for Active; 'I' for Inactive)
REMARK    1  A    between atoms: C_6  and  C_7 
REMARK    2  A    between atoms: C_12  and  C_13 
REMARK    3  A    between atoms: C_13  and  N_14 
REMARK    4  A    between atoms: C_17  and  C_19 
REMARK    5  A    between atoms: C_17  and  O_18 
ROOT
HETATM    1  C   UNL     1      28.337  48.282  40.811  1.00  0.00     0.096 A 
HETATM    2  N   UNL     1      27.589  47.394  41.476  1.00  0.00    -0.174 NA
HETATM    3  N   UNL     1      26.364  47.501  40.956  1.00  0.00    -0.288 N 
HETATM    4  H   UNL     1      25.634  46.891  41.315  1.00  0.00     0.188 HD
HETATM    5  C   UNL     1      26.284  48.442  39.972  1.00  0.00     0.120 A 
HETATM    6  C   UNL     1      27.550  48.986  39.843  1.00  0.00     0.016 A 
ENDROOT
BRANCH   6   7
HETATM    7  C   UNL     1      27.998  50.009  38.868  1.00  0.00     0.277 C 
BRANCH   7   8
HETATM    8  N   UNL     1      28.125  51.382  39.470  1.00  0.00    -0.064 N 
HETATM    9  H   UNL     1      27.577  52.036  38.889  1.00  0.00     0.280 HD
HETATM   10  C   UNL     1      29.534  51.937  39.537  1.00  0.00     0.282 C 
HETATM   11  C   UNL     1      29.401  53.119  40.500  1.00  0.00     0.180 C 
HETATM   12  C   UNL     1      28.192  52.798  41.390  1.00  0.00     0.076 C 
HETATM   13  C   UNL     1      27.638  51.475  40.886  1.00  0.00     0.238 C 
BRANCH  11  14
HETATM   14  C   UNL     1      30.707  53.259  41.281  1.00  0.00     0.419 C 
HETATM   15  F   UNL     1      31.611  52.346  40.878  1.00  0.00    -0.168 F 
HETATM   16  F   UNL     1      31.232  54.487  41.110  1.00  0.00    -0.168 F 
HETATM   17  F   UNL     1      30.483  53.071  42.600  1.00  0.00    -0.168 F 
ENDBRANCH  11  14
BRANCH  11  18
HETATM   18  O   UNL     1      29.052  54.285  39.725  1.00  0.00    -0.379 OA
HETATM   19  H   UNL     1      28.075  54.330  39.647  1.00  0.00     0.211 HD
ENDBRANCH  11  18
ENDBRANCH   7   8
ENDBRANCH   6   7
BRANCH   1  20
HETATM   20  C   UNL     1      29.765  48.397  41.100  1.00  0.00    -0.003 A 
HETATM   21  C   UNL     1      30.237  49.264  42.091  1.00  0.00     0.037 A 
HETATM   22  C   UNL     1      31.609  49.379  42.324  1.00  0.00     0.035 A 
HETATM   23  C   UNL     1      32.521  48.623  41.593  1.00  0.00     0.024 A 
HETATM   24 CL   UNL     1      32.165  50.481  43.521  1.00  0.00    -0.084 Cl
HETATM   25  C   UNL     1      32.058  47.737  40.622  1.00  0.00     0.003 A 
HETATM   26  C   UNL     1      30.687  47.625  40.377  1.00  0.00     0.014 A 
ENDBRANCH   1  20
TORSDOF 5
ENDMDL
MODEL 6
REMARK VINA RESULT:      -7.9      3.947      5.255
REMARK  5 active torsions:
REMARK  status: ('A' for Active; 'I' for Inactive)
REMARK    1  A    between atoms: C_6  and  C_7 
REMARK    2  A    between atoms: C_12  and  C_13 
REMARK    3  A    between atoms: C_13  and  N_14 
REMARK    4  A    between atoms: C_17  and  C_19 
REMARK    5  A    between atoms: C_17  and  O_18 
ROOT
HETATM    1  C   UNL     1      27.084  44.399  53.487  1.00  0.00     0.096 A 
HETATM    2  N   UNL     1      26.019  44.906  54.119  1.00  0.00    -0.174 NA
HETATM    3  N   UNL     1      25.038  44.913  53.213  1.00  0.00    -0.288 N 
HETATM    4  H   UNL     1      24.122  45.250  53.498  1.00  0.00     0.188 HD
HETATM    5  C   UNL     1      25.431  44.431  51.999  1.00  0.00     0.120 A 
HETATM    6  C   UNL     1      26.765  44.086  52.125  1.00  0.00     0.016 A 
ENDROOT
BRANCH   6   7
HETATM    7  C   UNL     1      27.637  43.462  51.101  1.00  0.00     0.277 C 
BRANCH   7   8
HETATM    8  N   UNL     1      27.101  42.152  50.589  1.00  0.00    -0.064 N 
HETATM    9  H   UNL     1      26.131  42.053  50.925  1.00  0.00     0.280 HD
HETATM   10  C   UNL     1      27.849  40.916  51.051  1.00  0.00     0.282 C 
HETATM   11  C   UNL     1      27.340  39.825  50.108  1.00  0.00     0.180 C 
HETATM   12  C   UNL     1      26.891  40.551  48.832  1.00  0.00     0.076 C 
HETATM   13  C   UNL     1      27.107  42.033  49.094  1.00  0.00     0.238 C 
BRANCH  11  14
HETATM   14  C   UNL     1      28.470  38.824  49.869  1.00  0.00     0.419 C 
HETATM   15  F   UNL     1      29.082  39.058  48.693  1.00  0.00    -0.168 F 
HETATM   16  F   UNL     1      29.386  38.899  50.852  1.00  0.00    -0.168 F 
HETATM   17  F   UNL     1      27.978  37.566  49.840  1.00  0.00    -0.168 F 
ENDBRANCH  11  14
BRANCH  11  18
HETATM   18  O   UNL     1      26.157  39.245  50.697  1.00  0.00    -0.379 OA
HETATM   19  H   UNL     1      25.380  39.784  50.437  1.00  0.00     0.211 HD
ENDBRANCH  11  18
ENDBRANCH   7   8
ENDBRANCH   6   7
BRANCH   1  20
HETATM   20  C   UNL     1      28.339  44.204  54.209  1.00  0.00    -0.003 A 
HETATM   21  C   UNL     1      28.716  45.057  55.251  1.00  0.00     0.037 A 
HETATM   22  C   UNL     1      29.936  44.867  55.903  1.00  0.00     0.035 A 
HETATM   23  C   UNL     1      30.781  43.820  55.542  1.00  0.00     0.024 A 
HETATM   24 CL   UNL     1      30.395  45.954  57.154  1.00  0.00    -0.084 Cl
HETATM   25  C   UNL     1      30.400  42.949  54.524  1.00  0.00     0.003 A 
HETATM   26  C   UNL     1      29.186  43.140  53.860  1.00  0.00     0.014 A 
ENDBRANCH   1  20
TORSDOF 5
ENDMDL
MODEL 7
REMARK VINA RESULT:      -7.8      5.445      8.682
REMARK  5 active torsions:
REMARK  status: ('A' for Active; 'I' for Inactive)
REMARK    1  A    between atoms: C_6  and  C_7 
REMARK    2  A    between atoms: C_12  and  C_13 
REMARK    3  A    between atoms: C_13  and  N_14 
REMARK    4  A    between atoms: C_17  and  C_19 
REMARK    5  A    between atoms: C_17  and  O_18 
ROOT
HETATM    1  C   UNL     1      24.850  49.480  48.474  1.00  0.00     0.096 A 
HETATM    2  N   UNL     1      25.712  50.207  47.754  1.00  0.00    -0.174 NA
HETATM    3  N   UNL     1      26.923  49.748  48.079  1.00  0.00    -0.288 N 
HETATM    4  H   UNL     1      27.733  50.160  47.623  1.00  0.00     0.188 HD
HETATM    5  C   UNL     1      26.882  48.743  49.001  1.00  0.00     0.120 A 
HETATM    6  C   UNL     1      25.546  48.535  49.296  1.00  0.00     0.016 A 
ENDROOT
BRANCH   6   7
HETATM    7  C   UNL     1      24.970  47.510  50.200  1.00  0.00     0.277 C 
BRANCH   7   8
HETATM    8  N   UNL     1      25.756  46.226  50.213  1.00  0.00    -0.064 N 
HETATM    9  H   UNL     1      26.618  46.377  49.667  1.00  0.00     0.280 HD
HETATM   10  C   UNL     1      25.057  45.028  49.600  1.00  0.00     0.282 C 
HETATM   11  C   UNL     1      25.899  43.846  50.084  1.00  0.00     0.180 C 
HETATM   12  C   UNL     1      26.567  44.313  51.385  1.00  0.00     0.076 C 
HETATM   13  C   UNL     1      26.132  45.755  51.586  1.00  0.00     0.238 C 
BRANCH  11  14
HETATM   14  C   UNL     1      24.981  42.640  50.273  1.00  0.00     0.419 C 
HETATM   15  F   UNL     1      23.883  42.975  50.978  1.00  0.00    -0.168 F 
HETATM   16  F   UNL     1      24.592  42.148  49.082  1.00  0.00    -0.168 F 
HETATM   17  F   UNL     1      25.628  41.664  50.946  1.00  0.00    -0.168 F 
ENDBRANCH  11  14
BRANCH  11  18
HETATM   18  O   UNL     1      26.957  43.634  49.125  1.00  0.00    -0.379 OA
HETATM   19  H   UNL     1      27.198  42.683  49.128  1.00  0.00     0.211 HD
ENDBRANCH  11  18
ENDBRANCH   7   8
ENDBRANCH   6   7
BRANCH   1  20
HETATM   20  C   UNL     1      23.412  49.692  48.325  1.00  0.00    -0.003 A 
HETATM   21  C   UNL     1      22.562  48.651  47.935  1.00  0.00     0.037 A 
HETATM   22  C   UNL     1      21.197  48.889  47.770  1.00  0.00     0.035 A 
HETATM   23  C   UNL     1      20.660  50.151  48.008  1.00  0.00     0.024 A 
HETATM   24 CL   UNL     1      20.180  47.603  47.250  1.00  0.00    -0.084 Cl
HETATM   25  C   UNL     1      21.495  51.187  48.423  1.00  0.00     0.003 A 
HETATM   26  C   UNL     1      22.864  50.958  48.581  1.00  0.00     0.014 A 
ENDBRANCH   1  20
TORSDOF 5
ENDMDL
MODEL 8
REMARK VINA RESULT:      -7.8      4.496      7.359
REMARK  5 active torsions:
REMARK  status: ('A' for Active; 'I' for Inactive)
REMARK    1  A    between atoms: C_6  and  C_7 
REMARK    2  A    between atoms: C_12  and  C_13 
REMARK    3  A    between atoms: C_13  and  N_14 
REMARK    4  A    between atoms: C_17  and  C_19 
REMARK    5  A    between atoms: C_17  and  O_18 
ROOT
HETATM    1  C   UNL     1      24.548  46.340  49.949  1.00  0.00     0.096 A 
HETATM    2  N   UNL     1      23.419  45.868  49.410  1.00  0.00    -0.174 NA
HETATM    3  N   UNL     1      23.143  44.750  50.085  1.00  0.00    -0.288 N 
HETATM    4  H   UNL     1      22.300  44.235  49.841  1.00  0.00     0.188 HD
HETATM    5  C   UNL     1      24.065  44.468  51.050  1.00  0.00     0.120 A 
HETATM    6  C   UNL     1      25.010  45.478  50.997  1.00  0.00     0.016 A 
ENDROOT
BRANCH   6   7
HETATM    7  C   UNL     1      26.187  45.661  51.880  1.00  0.00     0.277 C 
BRANCH   7   8
HETATM    8  N   UNL     1      26.791  44.359  52.335  1.00  0.00    -0.064 N 
HETATM    9  H   UNL     1      26.022  43.687  52.482  1.00  0.00     0.280 HD
HETATM   10  C   UNL     1      27.569  44.421  53.635  1.00  0.00     0.282 C 
HETATM   11  C   UNL     1      28.350  43.105  53.639  1.00  0.00     0.180 C 
HETATM   12  C   UNL     1      28.502  42.705  52.165  1.00  0.00     0.076 C 
HETATM   13  C   UNL     1      27.768  43.768  51.363  1.00  0.00     0.238 C 
BRANCH  11  14
HETATM   14  C   UNL     1      29.686  43.335  54.345  1.00  0.00     0.419 C 
HETATM   15  F   UNL     1      30.716  43.179  53.491  1.00  0.00    -0.168 F 
HETATM   16  F   UNL     1      29.741  44.577  54.862  1.00  0.00    -0.168 F 
HETATM   17  F   UNL     1      29.838  42.447  55.351  1.00  0.00    -0.168 F 
ENDBRANCH  11  14
BRANCH  11  18
HETATM   18  O   UNL     1      27.522  42.100  54.261  1.00  0.00    -0.379 OA
HETATM   19  H   UNL     1      27.785  41.219  53.918  1.00  0.00     0.211 HD
ENDBRANCH  11  18
ENDBRANCH   7   8
ENDBRANCH   6   7
BRANCH   1  20
HETATM   20  C   UNL     1      25.117  47.598  49.472  1.00  0.00    -0.003 A 
HETATM   21  C   UNL     1      24.300  48.629  48.995  1.00  0.00     0.037 A 
HETATM   22  C   UNL     1      24.872  49.808  48.514  1.00  0.00     0.035 A 
HETATM   23  C   UNL     1      26.253  49.985  48.522  1.00  0.00     0.024 A 
HETATM   24 CL   UNL     1      23.848  51.043  47.895  1.00  0.00    -0.084 Cl
HETATM   25  C   UNL     1      27.073  48.974  49.021  1.00  0.00     0.003 A 
HETATM   26  C   UNL     1      26.507  47.787  49.493  1.00  0.00     0.014 A 
ENDBRANCH   1  20
TORSDOF 5
ENDMDL
MODEL 9
REMARK VINA RESULT:      -7.7      3.316      4.771
REMARK  5 active torsions:
REMARK  status: ('A' for Active; 'I' for Inactive)
REMARK    1  A    between atoms: C_6  and  C_7 
REMARK    2  A    between atoms: C_12  and  C_13 
REMARK    3  A    between atoms: C_13  and  N_14 
REMARK    4  A    between atoms: C_17  and  C_19 
REMARK    5  A    between atoms: C_17  and  O_18 
ROOT
HETATM    1  C   UNL     1      27.695  46.292  55.163  1.00  0.00     0.096 A 
HETATM    2  N   UNL     1      27.569  47.589  54.861  1.00  0.00    -0.174 NA
HETATM    3  N   UNL     1      26.535  47.659  54.019  1.00  0.00    -0.288 N 
HETATM    4  H   UNL     1      26.255  48.575  53.675  1.00  0.00     0.188 HD
HETATM    5  C   UNL     1      25.982  46.441  53.752  1.00  0.00     0.120 A 
HETATM    6  C   UNL     1      26.710  45.511  54.473  1.00  0.00     0.016 A 
ENDROOT
BRANCH   6   7
HETATM    7  C   UNL     1      26.470  44.051  54.567  1.00  0.00     0.277 C 
BRANCH   7   8
HETATM    8  N   UNL     1      27.516  43.235  53.858  1.00  0.00    -0.064 N 
HETATM    9  H   UNL     1      28.424  43.711  53.975  1.00  0.00     0.280 HD
HETATM   10  C   UNL     1      27.306  43.060  52.366  1.00  0.00     0.282 C 
HETATM   11  C   UNL     1      28.264  41.922  52.008  1.00  0.00     0.180 C 
HETATM   12  C   UNL     1      28.452  41.112  53.298  1.00  0.00     0.076 C 
HETATM   13  C   UNL     1      27.642  41.830  54.366  1.00  0.00     0.238 C 
BRANCH  11  14
HETATM   14  C   UNL     1      27.649  41.111  50.868  1.00  0.00     0.419 C 
HETATM   15  F   UNL     1      28.361  39.992  50.634  1.00  0.00    -0.168 F 
HETATM   16  F   UNL     1      26.383  40.761  51.164  1.00  0.00    -0.168 F 
HETATM   17  F   UNL     1      27.635  41.842  49.732  1.00  0.00    -0.168 F 
ENDBRANCH  11  14
BRANCH  11  18
HETATM   18  O   UNL     1      29.546  42.504  51.690  1.00  0.00    -0.379 OA
HETATM   19  H   UNL     1      29.833  42.172  50.813  1.00  0.00     0.211 HD
ENDBRANCH  11  18
ENDBRANCH   7   8
ENDBRANCH   6   7
BRANCH   1  20
HETATM   20  C   UNL     1      28.717  45.858  56.113  1.00  0.00    -0.003 A 
HETATM   21  C   UNL     1      29.716  44.952  55.740  1.00  0.00     0.037 A 
HETATM   22  C   UNL     1      30.661  44.530  56.677  1.00  0.00     0.035 A 
HETATM   23  C   UNL     1      30.637  45.015  57.981  1.00  0.00     0.024 A 
HETATM   24 CL   UNL     1      31.853  43.384  56.204  1.00  0.00    -0.084 Cl
HETATM   25  C   UNL     1      29.662  45.939  58.354  1.00  0.00     0.003 A 
HETATM   26  C   UNL     1      28.707  46.357  57.424  1.00  0.00     0.014 A 
ENDBRANCH   1  20
TORSDOF 5
ENDMDL
MODEL 10
REMARK VINA RESULT:      -7.6      3.825      5.287
REMARK  5 active torsions:
REMARK  status: ('A' for Active; 'I' for Inactive)
REMARK    1  A    between atoms: C_6  and  C_7 
REMARK    2  A    between atoms: C_12  and  C_13 
REMARK    3  A    between atoms: C_13  and  N_14 
REMARK    4  A    between atoms: C_17  and  C_19 
REMARK    5  A    between atoms: C_17  and  O_18 
ROOT
HETATM    1  C   UNL     1      25.060  45.349  51.768  1.00  0.00     0.096 A 
HETATM    2  N   UNL     1      24.211  44.326  51.914  1.00  0.00    -0.174 NA
HETATM    3  N   UNL     1      23.567  44.229  50.748  1.00  0.00    -0.288 N 
HETATM    4  H   UNL     1      22.876  43.490  50.639  1.00  0.00     0.188 HD
HETATM    5  C   UNL     1      23.964  45.167  49.840  1.00  0.00     0.120 A 
HETATM    6  C   UNL     1      24.937  45.929  50.463  1.00  0.00     0.016 A 
ENDROOT
BRANCH   6   7
HETATM    7  C   UNL     1      25.725  47.041  49.878  1.00  0.00     0.277 C 
BRANCH   7   8
HETATM    8  N   UNL     1      24.952  48.330  49.793  1.00  0.00    -0.064 N 
HETATM    9  H   UNL     1      25.040  48.813  50.701  1.00  0.00     0.280 HD
HETATM   10  C   UNL     1      23.467  48.183  49.522  1.00  0.00     0.282 C 
HETATM   11  C   UNL     1      23.043  49.598  49.125  1.00  0.00     0.180 C 
HETATM   12  C   UNL     1      24.304  50.274  48.571  1.00  0.00     0.076 C 
HETATM   13  C   UNL     1      25.423  49.253  48.710  1.00  0.00     0.238 C 
BRANCH  11  14
HETATM   14  C   UNL     1      21.912  49.497  48.101  1.00  0.00     0.419 C 
HETATM   15  F   UNL     1      21.916  50.557  47.271  1.00  0.00    -0.168 F 
HETATM   16  F   UNL     1      22.036  48.376  47.367  1.00  0.00    -0.168 F 
HETATM   17  F   UNL     1      20.717  49.463  48.731  1.00  0.00    -0.168 F 
ENDBRANCH  11  14
BRANCH  11  18
HETATM   18  O   UNL     1      22.683  50.308  50.329  1.00  0.00    -0.379 OA
HETATM   19  H   UNL     1      22.014  49.781  50.816  1.00  0.00     0.211 HD
ENDBRANCH  11  18
ENDBRANCH   7   8
ENDBRANCH   6   7
BRANCH   1  20
HETATM   20  C   UNL     1      25.968  45.707  52.855  1.00  0.00    -0.003 A 
HETATM   21  C   UNL     1      25.770  46.866  53.613  1.00  0.00     0.037 A 
HETATM   22  C   UNL     1      26.672  47.201  54.625  1.00  0.00     0.035 A 
HETATM   23  C   UNL     1      27.762  46.382  54.907  1.00  0.00     0.024 A 
HETATM   24 CL   UNL     1      26.429  48.652  55.515  1.00  0.00    -0.084 Cl
HETATM   25  C   UNL     1      27.951  45.212  54.175  1.00  0.00     0.003 A 
HETATM   26  C   UNL     1      27.059  44.876  53.154  1.00  0.00     0.014 A 
ENDBRANCH   1  20
TORSDOF 5
ENDMDL
