MODEL 1
REMARK VINA RESULT:      -9.4      0.000      0.000
REMARK  10 active torsions:
REMARK  status: ('A' for Active; 'I' for Inactive)
REMARK    1  A    between atoms: C_2  and  C_3 
REMARK    2  A    between atoms: C_3  and  O_4 
REMARK    3  A    between atoms: O_4  and  C_5 
REMARK    4  A    between atoms: C_7  and  C_8 
REMARK       I    between atoms: C_8  and  N_9 
REMARK    5  A    between atoms: N_9  and  C_10 
REMARK    6  A    between atoms: C_10  and  N_11 
REMARK    7  A    between atoms: N_11  and  C_12 
REMARK    8  A    between atoms: C_15  and  N_16 
REMARK    9  A    between atoms: N_19  and  C_21 
REMARK   10  A    between atoms: C_21  and  C_22 
ROOT
HETATM    1  C   UNL     1      25.254  45.186  49.533  1.00  0.00     0.034 A 
HETATM    2  C   UNL     1      23.964  45.054  49.023  1.00  0.00     0.032 A 
HETATM    3  C   UNL     1      23.131  46.173  48.894  1.00  0.00     0.031 A 
HETATM    4  C   UNL     1      23.542  47.453  49.297  1.00  0.00     0.030 A 
HETATM    5  C   UNL     1      24.826  47.554  49.852  1.00  0.00     0.031 A 
HETATM    6  C   UNL     1      25.670  46.438  49.974  1.00  0.00     0.032 A 
ENDROOT
BRANCH   1   7
HETATM    7  N   UNL     1      26.037  44.020  49.629  1.00  0.00    -0.333 N 
HETATM    8  H   UNL     1      26.303  43.614  48.738  1.00  0.00     0.168 HD
BRANCH   7   9
HETATM    9  C   UNL     1      26.252  43.202  50.682  1.00  0.00     0.179 C 
HETATM   10  S   UNL     1      25.966  41.562  50.501  1.00  0.00    -0.040 SA
BRANCH   9  11
HETATM   11  N   UNL     1      26.776  43.627  51.867  1.00  0.00    -0.299 N 
HETATM   12  C   UNL     1      26.123  44.239  52.936  1.00  0.00     0.257 C 
HETATM   13  O   UNL     1      24.958  44.094  53.278  1.00  0.00    -0.267 OA
HETATM   14  H   UNL     1      27.752  43.873  51.762  1.00  0.00     0.171 HD
BRANCH  12  15
HETATM   15  C   UNL     1      27.000  45.089  53.782  1.00  0.00     0.035 A 
HETATM   16  C   UNL     1      28.141  44.562  54.402  1.00  0.00     0.053 A 
HETATM   17  C   UNL     1      28.945  45.398  55.175  1.00  0.00     0.069 A 
HETATM   18  C   UNL     1      28.597  46.737  55.359  1.00  0.00     0.037 A 
HETATM   19  C   UNL     1      27.476  47.267  54.720  1.00  0.00     0.004 A 
HETATM   20  C   UNL     1      26.681  46.446  53.921  1.00  0.00     0.017 A 
BRANCH  17  21
HETATM   21  O   UNL     1      30.068  44.973  55.829  1.00  0.00    -0.351 OA
BRANCH  21  22
HETATM   22  C   UNL     1      30.144  45.403  57.193  1.00  0.00     0.175 C 
BRANCH  22  23
HETATM   23  C   UNL     1      31.203  44.551  57.888  1.00  0.00     0.022 C 
HETATM   24  C   UNL     1      31.624  43.366  57.038  1.00  0.00     0.007 C 
ENDBRANCH  22  23
ENDBRANCH  21  22
ENDBRANCH  17  21
ENDBRANCH  12  15
ENDBRANCH   9  11
ENDBRANCH   7   9
ENDBRANCH   1   7
BRANCH   4  25
HETATM   25  N   UNL     1      22.711  48.557  49.077  1.00  0.00    -0.378 N 
HETATM   26  C   UNL     1      21.259  48.303  49.111  1.00  0.00     0.150 C 
HETATM   27  C   UNL     1      20.516  49.410  48.332  1.00  0.00     0.255 C 
HETATM   28  N   UNL     1      20.889  50.796  48.850  1.00  0.00    -0.064 N 
HETATM   29  H   UNL     1      20.571  50.851  49.828  1.00  0.00     0.280 HD
HETATM   30  C   UNL     1      22.404  50.996  48.847  1.00  0.00     0.255 C 
HETATM   31  C   UNL     1      23.116  49.866  49.615  1.00  0.00     0.150 C 
BRANCH  28  32
HETATM   32  C   UNL     1      20.159  51.881  48.094  1.00  0.00     0.276 C 
BRANCH  32  33
HETATM   33  C   UNL     1      18.696  51.964  48.409  1.00  0.00     0.006 A 
HETATM   34  C   UNL     1      17.756  51.737  47.399  1.00  0.00     0.124 A 
HETATM   35  F   UNL     1      18.190  51.406  46.174  1.00  0.00    -0.206 F 
HETATM   36  C   UNL     1      16.390  51.808  47.644  1.00  0.00     0.043 A 
HETATM   37  C   UNL     1      15.943  52.114  48.928  1.00  0.00     0.003 A 
HETATM   38  C   UNL     1      16.864  52.346  49.950  1.00  0.00     0.001 A 
HETATM   39  C   UNL     1      18.236  52.276  49.695  1.00  0.00     0.012 A 
ENDBRANCH  32  33
ENDBRANCH  28  32
ENDBRANCH   4  25
TORSDOF 10
ENDMDL
MODEL 2
REMARK VINA RESULT:      -9.3      1.526      2.852
REMARK  10 active torsions:
REMARK  status: ('A' for Active; 'I' for Inactive)
REMARK    1  A    between atoms: C_2  and  C_3 
REMARK    2  A    between atoms: C_3  and  O_4 
REMARK    3  A    between atoms: O_4  and  C_5 
REMARK    4  A    between atoms: C_7  and  C_8 
REMARK       I    between atoms: C_8  and  N_9 
REMARK    5  A    between atoms: N_9  and  C_10 
REMARK    6  A    between atoms: C_10  and  N_11 
REMARK    7  A    between atoms: N_11  and  C_12 
REMARK    8  A    between atoms: C_15  and  N_16 
REMARK    9  A    between atoms: N_19  and  C_21 
REMARK   10  A    between atoms: C_21  and  C_22 
ROOT
HETATM    1  C   UNL     1      25.826  45.173  49.582  1.00  0.00     0.034 A 
HETATM    2  C   UNL     1      24.494  44.947  49.238  1.00  0.00     0.032 A 
HETATM    3  C   UNL     1      23.592  46.016  49.148  1.00  0.00     0.031 A 
HETATM    4  C   UNL     1      23.976  47.336  49.428  1.00  0.00     0.030 A 
HETATM    5  C   UNL     1      25.309  47.532  49.818  1.00  0.00     0.031 A 
HETATM    6  C   UNL     1      26.222  46.468  49.900  1.00  0.00     0.032 A 
ENDROOT
BRANCH   1   7
HETATM    7  N   UNL     1      26.678  44.054  49.648  1.00  0.00    -0.333 N 
HETATM    8  H   UNL     1      26.873  43.617  48.753  1.00  0.00     0.168 HD
BRANCH   7   9
HETATM    9  C   UNL     1      27.045  43.302  50.708  1.00  0.00     0.179 C 
HETATM   10  S   UNL     1      26.415  41.757  50.858  1.00  0.00    -0.040 SA
BRANCH   9  11
HETATM   11  N   UNL     1      27.972  43.700  51.624  1.00  0.00    -0.299 N 
HETATM   12  C   UNL     1      28.720  42.916  52.502  1.00  0.00     0.257 C 
HETATM   13  O   UNL     1      29.091  41.762  52.337  1.00  0.00    -0.267 OA
HETATM   14  H   UNL     1      27.781  44.640  51.946  1.00  0.00     0.171 HD
BRANCH  12  15
HETATM   15  C   UNL     1      29.170  43.627  53.726  1.00  0.00     0.035 A 
HETATM   16  C   UNL     1      28.467  44.734  54.221  1.00  0.00     0.053 A 
HETATM   17  C   UNL     1      28.916  45.363  55.382  1.00  0.00     0.069 A 
HETATM   18  C   UNL     1      30.073  44.918  56.022  1.00  0.00     0.037 A 
HETATM   19  C   UNL     1      30.757  43.801  55.544  1.00  0.00     0.004 A 
HETATM   20  C   UNL     1      30.300  43.146  54.400  1.00  0.00     0.017 A 
BRANCH  17  21
HETATM   21  O   UNL     1      28.306  46.456  55.933  1.00  0.00    -0.351 OA
BRANCH  21  22
HETATM   22  C   UNL     1      28.040  47.507  54.996  1.00  0.00     0.175 C 
BRANCH  22  23
HETATM   23  C   UNL     1      26.542  47.796  55.038  1.00  0.00     0.022 C 
HETATM   24  C   UNL     1      25.832  47.288  53.796  1.00  0.00     0.007 C 
ENDBRANCH  22  23
ENDBRANCH  21  22
ENDBRANCH  17  21
ENDBRANCH  12  15
ENDBRANCH   9  11
ENDBRANCH   7   9
ENDBRANCH   1   7
BRANCH   4  25
HETATM   25  N   UNL     1      23.067  48.383  49.248  1.00  0.00    -0.378 N 
HETATM   26  C   UNL     1      23.602  49.625  48.659  1.00  0.00     0.150 C 
HETATM   27  C   UNL     1      22.690  50.815  49.027  1.00  0.00     0.255 C 
HETATM   28  N   UNL     1      21.242  50.544  48.626  1.00  0.00    -0.064 N 
HETATM   29  H   UNL     1      21.221  50.455  47.601  1.00  0.00     0.280 HD
HETATM   30  C   UNL     1      20.745  49.224  49.213  1.00  0.00     0.255 C 
HETATM   31  C   UNL     1      21.687  48.061  48.846  1.00  0.00     0.150 C 
BRANCH  28  32
HETATM   32  C   UNL     1      20.347  51.709  48.979  1.00  0.00     0.276 C 
BRANCH  32  33
HETATM   33  C   UNL     1      19.018  51.689  48.286  1.00  0.00     0.006 A 
HETATM   34  C   UNL     1      17.887  52.182  48.943  1.00  0.00     0.124 A 
HETATM   35  F   UNL     1      18.028  52.704  50.170  1.00  0.00    -0.206 F 
HETATM   36  C   UNL     1      16.635  52.180  48.341  1.00  0.00     0.043 A 
HETATM   37  C   UNL     1      16.500  51.672  47.050  1.00  0.00     0.003 A 
HETATM   38  C   UNL     1      17.615  51.173  46.376  1.00  0.00     0.001 A 
HETATM   39  C   UNL     1      18.871  51.176  46.990  1.00  0.00     0.012 A 
ENDBRANCH  32  33
ENDBRANCH  28  32
ENDBRANCH   4  25
TORSDOF 10
ENDMDL
MODEL 3
REMARK VINA RESULT:      -9.3      2.046      3.474
REMARK  10 active torsions:
REMARK  status: ('A' for Active; 'I' for Inactive)
REMARK    1  A    between atoms: C_2  and  C_3 
REMARK    2  A    between atoms: C_3  and  O_4 
REMARK    3  A    between atoms: O_4  and  C_5 
REMARK    4  A    between atoms: C_7  and  C_8 
REMARK       I    between atoms: C_8  and  N_9 
REMARK    5  A    between atoms: N_9  and  C_10 
REMARK    6  A    between atoms: C_10  and  N_11 
REMARK    7  A    between atoms: N_11  and  C_12 
REMARK    8  A    between atoms: C_15  and  N_16 
REMARK    9  A    between atoms: N_19  and  C_21 
REMARK   10  A    between atoms: C_21  and  C_22 
ROOT
HETATM    1  C   UNL     1      24.843  43.226  50.740  1.00  0.00     0.034 A 
HETATM    2  C   UNL     1      25.033  44.604  50.833  1.00  0.00     0.032 A 
HETATM    3  C   UNL     1      24.210  45.485  50.119  1.00  0.00     0.031 A 
HETATM    4  C   UNL     1      23.196  45.025  49.266  1.00  0.00     0.030 A 
HETATM    5  C   UNL     1      23.055  43.634  49.151  1.00  0.00     0.031 A 
HETATM    6  C   UNL     1      23.868  42.745  49.872  1.00  0.00     0.032 A 
ENDROOT
BRANCH   1   7
HETATM    7  N   UNL     1      25.702  42.400  51.490  1.00  0.00    -0.333 N 
HETATM    8  H   UNL     1      25.326  42.097  52.382  1.00  0.00     0.168 HD
BRANCH   7   9
HETATM    9  C   UNL     1      27.028  42.179  51.359  1.00  0.00     0.179 C 
HETATM   10  S   UNL     1      27.569  41.254  50.071  1.00  0.00    -0.040 SA
BRANCH   9  11
HETATM   11  N   UNL     1      27.966  42.741  52.173  1.00  0.00    -0.299 N 
HETATM   12  C   UNL     1      28.520  42.227  53.345  1.00  0.00     0.257 C 
HETATM   13  O   UNL     1      28.690  41.051  53.634  1.00  0.00    -0.267 OA
HETATM   14  H   UNL     1      27.927  43.751  52.124  1.00  0.00     0.171 HD
BRANCH  12  15
HETATM   15  C   UNL     1      29.029  43.259  54.285  1.00  0.00     0.035 A 
HETATM   16  C   UNL     1      28.254  44.376  54.624  1.00  0.00     0.053 A 
HETATM   17  C   UNL     1      28.764  45.313  55.522  1.00  0.00     0.069 A 
HETATM   18  C   UNL     1      30.047  45.158  56.049  1.00  0.00     0.037 A 
HETATM   19  C   UNL     1      30.807  44.032  55.732  1.00  0.00     0.004 A 
HETATM   20  C   UNL     1      30.294  43.074  54.857  1.00  0.00     0.017 A 
BRANCH  17  21
HETATM   21  O   UNL     1      28.090  46.440  55.902  1.00  0.00    -0.351 OA
BRANCH  21  22
HETATM   22  C   UNL     1      27.901  47.388  54.845  1.00  0.00     0.175 C 
BRANCH  22  23
HETATM   23  C   UNL     1      26.404  47.666  54.734  1.00  0.00     0.022 C 
HETATM   24  C   UNL     1      25.829  47.154  53.426  1.00  0.00     0.007 C 
ENDBRANCH  22  23
ENDBRANCH  21  22
ENDBRANCH  17  21
ENDBRANCH  12  15
ENDBRANCH   9  11
ENDBRANCH   7   9
ENDBRANCH   1   7
BRANCH   4  25
HETATM   25  N   UNL     1      22.345  45.938  48.634  1.00  0.00    -0.378 N 
HETATM   26  C   UNL     1      22.510  47.356  49.006  1.00  0.00     0.150 C 
HETATM   27  C   UNL     1      21.213  48.134  48.694  1.00  0.00     0.255 C 
HETATM   28  N   UNL     1      20.793  47.947  47.239  1.00  0.00    -0.064 N 
HETATM   29  H   UNL     1      21.535  48.353  46.653  1.00  0.00     0.280 HD
HETATM   30  C   UNL     1      20.685  46.465  46.883  1.00  0.00     0.255 C 
HETATM   31  C   UNL     1      21.987  45.714  47.224  1.00  0.00     0.150 C 
BRANCH  28  32
HETATM   32  C   UNL     1      19.527  48.711  46.930  1.00  0.00     0.276 C 
BRANCH  32  33
HETATM   33  C   UNL     1      19.268  49.860  47.856  1.00  0.00     0.006 A 
HETATM   34  C   UNL     1      18.268  49.755  48.828  1.00  0.00     0.124 A 
HETATM   35  F   UNL     1      17.589  48.603  48.934  1.00  0.00    -0.206 F 
HETATM   36  C   UNL     1      17.990  50.796  49.705  1.00  0.00     0.043 A 
HETATM   37  C   UNL     1      18.725  51.977  49.616  1.00  0.00     0.003 A 
HETATM   38  C   UNL     1      19.727  52.104  48.653  1.00  0.00     0.001 A 
HETATM   39  C   UNL     1      19.998  51.053  47.772  1.00  0.00     0.012 A 
ENDBRANCH  32  33
ENDBRANCH  28  32
ENDBRANCH   4  25
TORSDOF 10
ENDMDL
MODEL 4
REMARK VINA RESULT:      -8.8      2.136      2.989
REMARK  10 active torsions:
REMARK  status: ('A' for Active; 'I' for Inactive)
REMARK    1  A    between atoms: C_2  and  C_3 
REMARK    2  A    between atoms: C_3  and  O_4 
REMARK    3  A    between atoms: O_4  and  C_5 
REMARK    4  A    between atoms: C_7  and  C_8 
REMARK       I    between atoms: C_8  and  N_9 
REMARK    5  A    between atoms: N_9  and  C_10 
REMARK    6  A    between atoms: C_10  and  N_11 
REMARK    7  A    between atoms: N_11  and  C_12 
REMARK    8  A    between atoms: C_15  and  N_16 
REMARK    9  A    between atoms: N_19  and  C_21 
REMARK   10  A    between atoms: C_21  and  C_22 
ROOT
HETATM    1  C   UNL     1      25.173  42.112  50.140  1.00  0.00     0.034 A 
HETATM    2  C   UNL     1      24.474  42.052  48.936  1.00  0.00     0.032 A 
HETATM    3  C   UNL     1      23.632  43.102  48.549  1.00  0.00     0.031 A 
HETATM    4  C   UNL     1      23.432  44.230  49.360  1.00  0.00     0.030 A 
HETATM    5  C   UNL     1      24.109  44.246  50.589  1.00  0.00     0.031 A 
HETATM    6  C   UNL     1      24.963  43.202  50.979  1.00  0.00     0.032 A 
ENDROOT
BRANCH   1   7
HETATM    7  N   UNL     1      26.006  41.024  50.462  1.00  0.00    -0.333 N 
HETATM    8  H   UNL     1      25.520  40.213  50.831  1.00  0.00     0.168 HD
BRANCH   7   9
HETATM    9  C   UNL     1      27.345  40.974  50.632  1.00  0.00     0.179 C 
HETATM   10  S   UNL     1      28.242  39.930  49.677  1.00  0.00    -0.040 SA
BRANCH   9  11
HETATM   11  N   UNL     1      28.023  41.794  51.484  1.00  0.00    -0.299 N 
HETATM   12  C   UNL     1      28.471  41.526  52.777  1.00  0.00     0.257 C 
HETATM   13  O   UNL     1      28.805  40.444  53.240  1.00  0.00    -0.267 OA
HETATM   14  H   UNL     1      27.809  42.765  51.297  1.00  0.00     0.171 HD
BRANCH  12  15
HETATM   15  C   UNL     1      28.627  42.730  53.632  1.00  0.00     0.035 A 
HETATM   16  C   UNL     1      29.819  42.975  54.328  1.00  0.00     0.053 A 
HETATM   17  C   UNL     1      29.930  44.127  55.107  1.00  0.00     0.069 A 
HETATM   18  C   UNL     1      28.852  45.006  55.222  1.00  0.00     0.037 A 
HETATM   19  C   UNL     1      27.676  44.775  54.508  1.00  0.00     0.004 A 
HETATM   20  C   UNL     1      27.566  43.642  53.702  1.00  0.00     0.017 A 
BRANCH  17  21
HETATM   21  O   UNL     1      31.045  44.443  55.832  1.00  0.00    -0.351 OA
BRANCH  21  22
HETATM   22  C   UNL     1      31.273  43.582  56.954  1.00  0.00     0.175 C 
BRANCH  22  23
HETATM   23  C   UNL     1      31.600  44.464  58.156  1.00  0.00     0.022 C 
HETATM   24  C   UNL     1      30.555  45.545  58.365  1.00  0.00     0.007 C 
ENDBRANCH  22  23
ENDBRANCH  21  22
ENDBRANCH  17  21
ENDBRANCH  12  15
ENDBRANCH   9  11
ENDBRANCH   7   9
ENDBRANCH   1   7
BRANCH   4  25
HETATM   25  N   UNL     1      22.647  45.292  48.902  1.00  0.00    -0.378 N 
HETATM   26  C   UNL     1      21.186  45.126  49.014  1.00  0.00     0.150 C 
HETATM   27  C   UNL     1      20.474  46.058  48.010  1.00  0.00     0.255 C 
HETATM   28  N   UNL     1      20.922  47.506  48.187  1.00  0.00    -0.064 N 
HETATM   29  H   UNL     1      20.631  47.802  49.130  1.00  0.00     0.280 HD
HETATM   30  C   UNL     1      22.443  47.625  48.116  1.00  0.00     0.255 C 
HETATM   31  C   UNL     1      23.123  46.669  49.116  1.00  0.00     0.150 C 
BRANCH  28  32
HETATM   32  C   UNL     1      20.223  48.421  47.210  1.00  0.00     0.276 C 
BRANCH  32  33
HETATM   33  C   UNL     1      19.610  49.635  47.843  1.00  0.00     0.006 A 
HETATM   34  C   UNL     1      20.371  50.798  47.989  1.00  0.00     0.124 A 
HETATM   35  F   UNL     1      21.627  50.814  47.517  1.00  0.00    -0.206 F 
HETATM   36  C   UNL     1      19.847  51.945  48.572  1.00  0.00     0.043 A 
HETATM   37  C   UNL     1      18.528  51.937  49.025  1.00  0.00     0.003 A 
HETATM   38  C   UNL     1      17.751  50.786  48.891  1.00  0.00     0.001 A 
HETATM   39  C   UNL     1      18.287  49.636  48.305  1.00  0.00     0.012 A 
ENDBRANCH  32  33
ENDBRANCH  28  32
ENDBRANCH   4  25
TORSDOF 10
ENDMDL
MODEL 5
REMARK VINA RESULT:      -8.4      4.469     11.085
REMARK  10 active torsions:
REMARK  status: ('A' for Active; 'I' for Inactive)
REMARK    1  A    between atoms: C_2  and  C_3 
REMARK    2  A    between atoms: C_3  and  O_4 
REMARK    3  A    between atoms: O_4  and  C_5 
REMARK    4  A    between atoms: C_7  and  C_8 
REMARK       I    between atoms: C_8  and  N_9 
REMARK    5  A    between atoms: N_9  and  C_10 
REMARK    6  A    between atoms: C_10  and  N_11 
REMARK    7  A    between atoms: N_11  and  C_12 
REMARK    8  A    between atoms: C_15  and  N_16 
REMARK    9  A    between atoms: N_19  and  C_21 
REMARK   10  A    between atoms: C_21  and  C_22 
ROOT
HETATM    1  C   UNL     1      22.771  44.070  47.727  1.00  0.00     0.034 A 
HETATM    2  C   UNL     1      23.159  45.364  48.070  1.00  0.00     0.032 A 
HETATM    3  C   UNL     1      23.889  45.601  49.242  1.00  0.00     0.031 A 
HETATM    4  C   UNL     1      24.229  44.565  50.125  1.00  0.00     0.030 A 
HETATM    5  C   UNL     1      23.787  43.278  49.783  1.00  0.00     0.031 A 
HETATM    6  C   UNL     1      23.064  43.032  48.605  1.00  0.00     0.032 A 
ENDROOT
BRANCH   1   7
HETATM    7  N   UNL     1      22.045  43.905  46.532  1.00  0.00    -0.333 N 
HETATM    8  H   UNL     1      22.553  44.152  45.689  1.00  0.00     0.168 HD
BRANCH   7   9
HETATM    9  C   UNL     1      20.718  43.749  46.335  1.00  0.00     0.179 C 
HETATM   10  S   UNL     1      20.165  42.325  45.648  1.00  0.00    -0.040 SA
BRANCH   9  11
HETATM   11  N   UNL     1      19.788  44.657  46.747  1.00  0.00    -0.299 N 
HETATM   12  C   UNL     1      19.881  46.047  46.769  1.00  0.00     0.257 C 
HETATM   13  O   UNL     1      20.533  46.762  46.021  1.00  0.00    -0.267 OA
HETATM   14  H   UNL     1      19.179  44.256  47.449  1.00  0.00     0.171 HD
BRANCH  12  15
HETATM   15  C   UNL     1      19.006  46.703  47.775  1.00  0.00     0.035 A 
HETATM   16  C   UNL     1      19.520  47.637  48.685  1.00  0.00     0.053 A 
HETATM   17  C   UNL     1      18.661  48.240  49.602  1.00  0.00     0.069 A 
HETATM   18  C   UNL     1      17.310  47.891  49.638  1.00  0.00     0.037 A 
HETATM   19  C   UNL     1      16.795  46.981  48.715  1.00  0.00     0.004 A 
HETATM   20  C   UNL     1      17.640  46.394  47.774  1.00  0.00     0.017 A 
BRANCH  17  21
HETATM   21  O   UNL     1      19.072  49.150  50.536  1.00  0.00    -0.351 OA
BRANCH  21  22
HETATM   22  C   UNL     1      18.727  50.505  50.220  1.00  0.00     0.175 C 
BRANCH  22  23
HETATM   23  C   UNL     1      20.022  51.254  49.919  1.00  0.00     0.022 C 
HETATM   24  C   UNL     1      20.048  51.792  48.501  1.00  0.00     0.007 C 
ENDBRANCH  22  23
ENDBRANCH  21  22
ENDBRANCH  17  21
ENDBRANCH  12  15
ENDBRANCH   9  11
ENDBRANCH   7   9
ENDBRANCH   1   7
BRANCH   4  25
HETATM   25  N   UNL     1      25.028  44.832  51.242  1.00  0.00    -0.378 N 
HETATM   26  C   UNL     1      25.648  43.666  51.900  1.00  0.00     0.150 C 
HETATM   27  C   UNL     1      26.005  44.017  53.360  1.00  0.00     0.255 C 
HETATM   28  N   UNL     1      26.874  45.270  53.430  1.00  0.00    -0.064 N 
HETATM   29  H   UNL     1      27.758  45.055  52.948  1.00  0.00     0.280 HD
HETATM   30  C   UNL     1      26.219  46.437  52.693  1.00  0.00     0.255 C 
HETATM   31  C   UNL     1      25.857  46.048  51.246  1.00  0.00     0.150 C 
BRANCH  28  32
HETATM   32  C   UNL     1      27.230  45.613  54.857  1.00  0.00     0.276 C 
BRANCH  32  33
HETATM   33  C   UNL     1      28.565  45.090  55.295  1.00  0.00     0.006 A 
HETATM   34  C   UNL     1      29.197  45.651  56.409  1.00  0.00     0.124 A 
HETATM   35  F   UNL     1      28.569  46.622  57.088  1.00  0.00    -0.206 F 
HETATM   36  C   UNL     1      30.436  45.201  56.848  1.00  0.00     0.043 A 
HETATM   37  C   UNL     1      31.068  44.165  56.161  1.00  0.00     0.003 A 
HETATM   38  C   UNL     1      30.455  43.592  55.047  1.00  0.00     0.001 A 
HETATM   39  C   UNL     1      29.210  44.052  54.609  1.00  0.00     0.012 A 
ENDBRANCH  32  33
ENDBRANCH  28  32
ENDBRANCH   4  25
TORSDOF 10
ENDMDL
MODEL 6
REMARK VINA RESULT:      -8.3      4.418     11.711
REMARK  10 active torsions:
REMARK  status: ('A' for Active; 'I' for Inactive)
REMARK    1  A    between atoms: C_2  and  C_3 
REMARK    2  A    between atoms: C_3  and  O_4 
REMARK    3  A    between atoms: O_4  and  C_5 
REMARK    4  A    between atoms: C_7  and  C_8 
REMARK       I    between atoms: C_8  and  N_9 
REMARK    5  A    between atoms: N_9  and  C_10 
REMARK    6  A    between atoms: C_10  and  N_11 
REMARK    7  A    between atoms: N_11  and  C_12 
REMARK    8  A    between atoms: C_15  and  N_16 
REMARK    9  A    between atoms: N_19  and  C_21 
REMARK   10  A    between atoms: C_21  and  C_22 
ROOT
HETATM    1  C   UNL     1      23.459  43.101  49.166  1.00  0.00     0.034 A 
HETATM    2  C   UNL     1      23.159  44.152  50.031  1.00  0.00     0.032 A 
HETATM    3  C   UNL     1      24.042  44.498  51.062  1.00  0.00     0.031 A 
HETATM    4  C   UNL     1      25.233  43.791  51.287  1.00  0.00     0.030 A 
HETATM    5  C   UNL     1      25.491  42.708  50.434  1.00  0.00     0.031 A 
HETATM    6  C   UNL     1      24.616  42.362  49.391  1.00  0.00     0.032 A 
ENDROOT
BRANCH   1   7
HETATM    7  N   UNL     1      22.530  42.812  48.149  1.00  0.00    -0.333 N 
HETATM    8  H   UNL     1      22.236  41.842  48.106  1.00  0.00     0.168 HD
BRANCH   7   9
HETATM    9  C   UNL     1      22.185  43.529  47.057  1.00  0.00     0.179 C 
HETATM   10  S   UNL     1      22.314  42.815  45.548  1.00  0.00    -0.040 SA
BRANCH   9  11
HETATM   11  N   UNL     1      21.652  44.782  47.122  1.00  0.00    -0.299 N 
HETATM   12  C   UNL     1      20.475  45.196  47.744  1.00  0.00     0.257 C 
HETATM   13  O   UNL     1      19.944  44.707  48.732  1.00  0.00    -0.267 OA
HETATM   14  H   UNL     1      21.929  45.333  46.320  1.00  0.00     0.171 HD
BRANCH  12  15
HETATM   15  C   UNL     1      19.876  46.425  47.164  1.00  0.00     0.035 A 
HETATM   16  C   UNL     1      19.669  47.569  47.946  1.00  0.00     0.053 A 
HETATM   17  C   UNL     1      19.118  48.707  47.358  1.00  0.00     0.069 A 
HETATM   18  C   UNL     1      18.743  48.694  46.014  1.00  0.00     0.037 A 
HETATM   19  C   UNL     1      18.973  47.564  45.230  1.00  0.00     0.004 A 
HETATM   20  C   UNL     1      19.551  46.430  45.801  1.00  0.00     0.017 A 
BRANCH  17  21
HETATM   21  O   UNL     1      18.866  49.864  48.042  1.00  0.00    -0.351 OA
BRANCH  21  22
HETATM   22  C   UNL     1      19.790  50.124  49.105  1.00  0.00     0.175 C 
BRANCH  22  23
HETATM   23  C   UNL     1      19.728  51.617  49.418  1.00  0.00     0.022 C 
HETATM   24  C   UNL     1      19.054  52.400  48.306  1.00  0.00     0.007 C 
ENDBRANCH  22  23
ENDBRANCH  21  22
ENDBRANCH  17  21
ENDBRANCH  12  15
ENDBRANCH   9  11
ENDBRANCH   7   9
ENDBRANCH   1   7
BRANCH   4  25
HETATM   25  N   UNL     1      26.125  44.219  52.276  1.00  0.00    -0.378 N 
HETATM   26  C   UNL     1      25.529  44.822  53.483  1.00  0.00     0.150 C 
HETATM   27  C   UNL     1      26.569  45.717  54.190  1.00  0.00     0.255 C 
HETATM   28  N   UNL     1      27.853  44.946  54.484  1.00  0.00    -0.064 N 
HETATM   29  H   UNL     1      27.611  44.191  55.140  1.00  0.00     0.280 HD
HETATM   30  C   UNL     1      28.407  44.295  53.217  1.00  0.00     0.255 C 
HETATM   31  C   UNL     1      27.340  43.425  52.526  1.00  0.00     0.150 C 
BRANCH  28  32
HETATM   32  C   UNL     1      28.871  45.818  55.181  1.00  0.00     0.276 C 
BRANCH  32  33
HETATM   33  C   UNL     1      29.857  45.056  56.014  1.00  0.00     0.006 A 
HETATM   34  C   UNL     1      30.126  45.472  57.321  1.00  0.00     0.124 A 
HETATM   35  F   UNL     1      29.458  46.525  57.816  1.00  0.00    -0.206 F 
HETATM   36  C   UNL     1      31.035  44.800  58.128  1.00  0.00     0.043 A 
HETATM   37  C   UNL     1      31.698  43.682  57.624  1.00  0.00     0.003 A 
HETATM   38  C   UNL     1      31.445  43.251  56.321  1.00  0.00     0.001 A 
HETATM   39  C   UNL     1      30.532  43.934  55.515  1.00  0.00     0.012 A 
ENDBRANCH  32  33
ENDBRANCH  28  32
ENDBRANCH   4  25
TORSDOF 10
ENDMDL
MODEL 7
REMARK VINA RESULT:      -8.1      2.405      3.154
REMARK  10 active torsions:
REMARK  status: ('A' for Active; 'I' for Inactive)
REMARK    1  A    between atoms: C_2  and  C_3 
REMARK    2  A    between atoms: C_3  and  O_4 
REMARK    3  A    between atoms: O_4  and  C_5 
REMARK    4  A    between atoms: C_7  and  C_8 
REMARK       I    between atoms: C_8  and  N_9 
REMARK    5  A    between atoms: N_9  and  C_10 
REMARK    6  A    between atoms: C_10  and  N_11 
REMARK    7  A    between atoms: N_11  and  C_12 
REMARK    8  A    between atoms: C_15  and  N_16 
REMARK    9  A    between atoms: N_19  and  C_21 
REMARK   10  A    between atoms: C_21  and  C_22 
ROOT
HETATM    1  C   UNL     1      24.142  42.302  49.449  1.00  0.00     0.034 A 
HETATM    2  C   UNL     1      23.927  42.524  48.089  1.00  0.00     0.032 A 
HETATM    3  C   UNL     1      22.997  43.481  47.663  1.00  0.00     0.031 A 
HETATM    4  C   UNL     1      22.229  44.224  48.572  1.00  0.00     0.030 A 
HETATM    5  C   UNL     1      22.428  43.950  49.933  1.00  0.00     0.031 A 
HETATM    6  C   UNL     1      23.366  43.000  50.368  1.00  0.00     0.032 A 
ENDROOT
BRANCH   1   7
HETATM    7  N   UNL     1      25.095  41.329  49.805  1.00  0.00    -0.333 N 
HETATM    8  H   UNL     1      24.760  40.373  49.766  1.00  0.00     0.168 HD
BRANCH   7   9
HETATM    9  C   UNL     1      26.273  41.463  50.453  1.00  0.00     0.179 C 
HETATM   10  S   UNL     1      27.614  40.648  49.867  1.00  0.00    -0.040 SA
BRANCH   9  11
HETATM   11  N   UNL     1      26.453  42.297  51.516  1.00  0.00    -0.299 N 
HETATM   12  C   UNL     1      26.860  43.630  51.516  1.00  0.00     0.257 C 
HETATM   13  O   UNL     1      26.672  44.465  50.643  1.00  0.00    -0.267 OA
HETATM   14  H   UNL     1      26.697  41.774  52.348  1.00  0.00     0.171 HD
BRANCH  12  15
HETATM   15  C   UNL     1      27.516  44.070  52.775  1.00  0.00     0.035 A 
HETATM   16  C   UNL     1      28.581  43.346  53.329  1.00  0.00     0.053 A 
HETATM   17  C   UNL     1      29.178  43.803  54.503  1.00  0.00     0.069 A 
HETATM   18  C   UNL     1      28.696  44.948  55.139  1.00  0.00     0.037 A 
HETATM   19  C   UNL     1      27.654  45.681  54.574  1.00  0.00     0.004 A 
HETATM   20  C   UNL     1      27.068  45.249  53.384  1.00  0.00     0.017 A 
BRANCH  17  21
HETATM   21  O   UNL     1      30.211  43.159  55.124  1.00  0.00    -0.351 OA
BRANCH  21  22
HETATM   22  C   UNL     1      31.137  44.037  55.775  1.00  0.00     0.175 C 
BRANCH  22  23
HETATM   23  C   UNL     1      31.378  43.495  57.182  1.00  0.00     0.022 C 
HETATM   24  C   UNL     1      31.320  44.592  58.229  1.00  0.00     0.007 C 
ENDBRANCH  22  23
ENDBRANCH  21  22
ENDBRANCH  17  21
ENDBRANCH  12  15
ENDBRANCH   9  11
ENDBRANCH   7   9
ENDBRANCH   1   7
BRANCH   4  25
HETATM   25  N   UNL     1      21.371  45.226  48.108  1.00  0.00    -0.378 N 
HETATM   26  C   UNL     1      21.725  45.850  46.819  1.00  0.00     0.150 C 
HETATM   27  C   UNL     1      21.067  47.242  46.712  1.00  0.00     0.255 C 
HETATM   28  N   UNL     1      19.559  47.159  46.937  1.00  0.00    -0.064 N 
HETATM   29  H   UNL     1      19.169  46.583  46.178  1.00  0.00     0.280 HD
HETATM   30  C   UNL     1      19.237  46.461  48.257  1.00  0.00     0.255 C 
HETATM   31  C   UNL     1      19.924  45.084  48.340  1.00  0.00     0.150 C 
BRANCH  28  32
HETATM   32  C   UNL     1      18.912  48.519  46.827  1.00  0.00     0.276 C 
BRANCH  32  33
HETATM   33  C   UNL     1      19.345  49.488  47.886  1.00  0.00     0.006 A 
HETATM   34  C   UNL     1      18.497  49.762  48.963  1.00  0.00     0.124 A 
HETATM   35  F   UNL     1      17.325  49.115  49.044  1.00  0.00    -0.206 F 
HETATM   36  C   UNL     1      18.856  50.655  49.965  1.00  0.00     0.043 A 
HETATM   37  C   UNL     1      20.092  51.296  49.896  1.00  0.00     0.003 A 
HETATM   38  C   UNL     1      20.953  51.038  48.830  1.00  0.00     0.001 A 
HETATM   39  C   UNL     1      20.584  50.140  47.824  1.00  0.00     0.012 A 
ENDBRANCH  32  33
ENDBRANCH  28  32
ENDBRANCH   4  25
TORSDOF 10
ENDMDL
MODEL 8
REMARK VINA RESULT:      -8.0      4.464     12.398
REMARK  10 active torsions:
REMARK  status: ('A' for Active; 'I' for Inactive)
REMARK    1  A    between atoms: C_2  and  C_3 
REMARK    2  A    between atoms: C_3  and  O_4 
REMARK    3  A    between atoms: O_4  and  C_5 
REMARK    4  A    between atoms: C_7  and  C_8 
REMARK       I    between atoms: C_8  and  N_9 
REMARK    5  A    between atoms: N_9  and  C_10 
REMARK    6  A    between atoms: C_10  and  N_11 
REMARK    7  A    between atoms: N_11  and  C_12 
REMARK    8  A    between atoms: C_15  and  N_16 
REMARK    9  A    between atoms: N_19  and  C_21 
REMARK   10  A    between atoms: C_21  and  C_22 
ROOT
HETATM    1  C   UNL     1      22.419  46.836  47.992  1.00  0.00     0.034 A 
HETATM    2  C   UNL     1      22.861  45.514  47.979  1.00  0.00     0.032 A 
HETATM    3  C   UNL     1      23.823  45.077  48.899  1.00  0.00     0.031 A 
HETATM    4  C   UNL     1      24.400  45.946  49.838  1.00  0.00     0.030 A 
HETATM    5  C   UNL     1      23.974  47.282  49.800  1.00  0.00     0.031 A 
HETATM    6  C   UNL     1      23.003  47.725  48.888  1.00  0.00     0.032 A 
ENDROOT
BRANCH   1   7
HETATM    7  N   UNL     1      21.446  47.205  47.043  1.00  0.00    -0.333 N 
HETATM    8  H   UNL     1      21.812  47.673  46.220  1.00  0.00     0.168 HD
BRANCH   7   9
HETATM    9  C   UNL     1      20.104  47.298  47.164  1.00  0.00     0.179 C 
HETATM   10  S   UNL     1      19.253  45.976  47.742  1.00  0.00    -0.040 SA
BRANCH   9  11
HETATM   11  N   UNL     1      19.408  48.444  46.923  1.00  0.00    -0.299 N 
HETATM   12  C   UNL     1      19.569  49.699  47.507  1.00  0.00     0.257 C 
HETATM   13  O   UNL     1      20.600  50.187  47.949  1.00  0.00    -0.267 OA
HETATM   14  H   UNL     1      18.469  48.236  46.607  1.00  0.00     0.171 HD
BRANCH  12  15
HETATM   15  C   UNL     1      18.347  50.543  47.493  1.00  0.00     0.035 A 
HETATM   16  C   UNL     1      17.588  50.740  48.655  1.00  0.00     0.053 A 
HETATM   17  C   UNL     1      16.456  51.553  48.601  1.00  0.00     0.069 A 
HETATM   18  C   UNL     1      16.063  52.133  47.394  1.00  0.00     0.037 A 
HETATM   19  C   UNL     1      16.832  51.958  46.245  1.00  0.00     0.004 A 
HETATM   20  C   UNL     1      17.983  51.171  46.295  1.00  0.00     0.017 A 
BRANCH  17  21
HETATM   21  O   UNL     1      15.647  51.793  49.676  1.00  0.00    -0.351 OA
BRANCH  21  22
HETATM   22  C   UNL     1      15.649  53.157  50.113  1.00  0.00     0.175 C 
BRANCH  22  23
HETATM   23  C   UNL     1      14.203  53.643  50.119  1.00  0.00     0.022 C 
HETATM   24  C   UNL     1      14.043  54.953  49.369  1.00  0.00     0.007 C 
ENDBRANCH  22  23
ENDBRANCH  21  22
ENDBRANCH  17  21
ENDBRANCH  12  15
ENDBRANCH   9  11
ENDBRANCH   7   9
ENDBRANCH   1   7
BRANCH   4  25
HETATM   25  N   UNL     1      25.296  45.452  50.791  1.00  0.00    -0.378 N 
HETATM   26  C   UNL     1      26.623  45.040  50.293  1.00  0.00     0.150 C 
HETATM   27  C   UNL     1      27.265  44.042  51.280  1.00  0.00     0.255 C 
HETATM   28  N   UNL     1      27.313  44.616  52.694  1.00  0.00    -0.064 N 
HETATM   29  H   UNL     1      27.923  45.445  52.665  1.00  0.00     0.280 HD
HETATM   30  C   UNL     1      25.929  45.078  53.148  1.00  0.00     0.255 C 
HETATM   31  C   UNL     1      25.308  46.056  52.133  1.00  0.00     0.150 C 
BRANCH  28  32
HETATM   32  C   UNL     1      27.947  43.644  53.661  1.00  0.00     0.276 C 
BRANCH  32  33
HETATM   33  C   UNL     1      28.768  44.297  54.731  1.00  0.00     0.006 A 
HETATM   34  C   UNL     1      30.059  43.829  54.995  1.00  0.00     0.124 A 
HETATM   35  F   UNL     1      30.549  42.828  54.250  1.00  0.00    -0.206 F 
HETATM   36  C   UNL     1      30.855  44.401  55.980  1.00  0.00     0.043 A 
HETATM   37  C   UNL     1      30.356  45.468  56.725  1.00  0.00     0.003 A 
HETATM   38  C   UNL     1      29.070  45.950  56.479  1.00  0.00     0.001 A 
HETATM   39  C   UNL     1      28.274  45.367  55.489  1.00  0.00     0.012 A 
ENDBRANCH  32  33
ENDBRANCH  28  32
ENDBRANCH   4  25
TORSDOF 10
ENDMDL
MODEL 9
REMARK VINA RESULT:      -7.8      2.878      4.493
REMARK  10 active torsions:
REMARK  status: ('A' for Active; 'I' for Inactive)
REMARK    1  A    between atoms: C_2  and  C_3 
REMARK    2  A    between atoms: C_3  and  O_4 
REMARK    3  A    between atoms: O_4  and  C_5 
REMARK    4  A    between atoms: C_7  and  C_8 
REMARK       I    between atoms: C_8  and  N_9 
REMARK    5  A    between atoms: N_9  and  C_10 
REMARK    6  A    between atoms: C_10  and  N_11 
REMARK    7  A    between atoms: N_11  and  C_12 
REMARK    8  A    between atoms: C_15  and  N_16 
REMARK    9  A    between atoms: N_19  and  C_21 
REMARK   10  A    between atoms: C_21  and  C_22 
ROOT
HETATM    1  C   UNL     1      24.226  42.028  48.071  1.00  0.00     0.034 A 
HETATM    2  C   UNL     1      23.817  42.576  49.286  1.00  0.00     0.032 A 
HETATM    3  C   UNL     1      22.867  43.606  49.318  1.00  0.00     0.031 A 
HETATM    4  C   UNL     1      22.319  44.145  48.144  1.00  0.00     0.030 A 
HETATM    5  C   UNL     1      22.782  43.611  46.932  1.00  0.00     0.031 A 
HETATM    6  C   UNL     1      23.725  42.572  46.892  1.00  0.00     0.032 A 
ENDROOT
BRANCH   1   7
HETATM    7  N   UNL     1      25.178  40.992  48.114  1.00  0.00    -0.333 N 
HETATM    8  H   UNL     1      24.800  40.077  48.335  1.00  0.00     0.168 HD
BRANCH   7   9
HETATM    9  C   UNL     1      26.525  41.052  48.193  1.00  0.00     0.179 C 
HETATM   10  S   UNL     1      27.424  40.910  46.787  1.00  0.00    -0.040 SA
BRANCH   9  11
HETATM   11  N   UNL     1      27.197  41.310  49.351  1.00  0.00    -0.299 N 
HETATM   12  C   UNL     1      26.836  40.982  50.657  1.00  0.00     0.257 C 
HETATM   13  O   UNL     1      26.169  40.027  51.028  1.00  0.00    -0.267 OA
HETATM   14  H   UNL     1      27.769  42.140  49.259  1.00  0.00     0.171 HD
BRANCH  12  15
HETATM   15  C   UNL     1      27.421  41.870  51.695  1.00  0.00     0.035 A 
HETATM   16  C   UNL     1      26.893  43.145  51.939  1.00  0.00     0.053 A 
HETATM   17  C   UNL     1      27.462  43.940  52.934  1.00  0.00     0.069 A 
HETATM   18  C   UNL     1      28.569  43.486  53.651  1.00  0.00     0.037 A 
HETATM   19  C   UNL     1      29.077  42.207  53.425  1.00  0.00     0.004 A 
HETATM   20  C   UNL     1      28.497  41.392  52.454  1.00  0.00     0.017 A 
BRANCH  17  21
HETATM   21  O   UNL     1      27.026  45.200  53.234  1.00  0.00    -0.351 OA
BRANCH  21  22
HETATM   22  C   UNL     1      25.882  45.616  52.478  1.00  0.00     0.175 C 
BRANCH  22  23
HETATM   23  C   UNL     1      26.037  47.106  52.186  1.00  0.00     0.022 C 
HETATM   24  C   UNL     1      25.932  47.406  50.702  1.00  0.00     0.007 C 
ENDBRANCH  22  23
ENDBRANCH  21  22
ENDBRANCH  17  21
ENDBRANCH  12  15
ENDBRANCH   9  11
ENDBRANCH   7   9
ENDBRANCH   1   7
BRANCH   4  25
HETATM   25  N   UNL     1      21.315  45.116  48.222  1.00  0.00    -0.378 N 
HETATM   26  C   UNL     1      21.761  46.522  48.239  1.00  0.00     0.150 C 
HETATM   27  C   UNL     1      20.667  47.411  48.869  1.00  0.00     0.255 C 
HETATM   28  N   UNL     1      19.326  47.221  48.163  1.00  0.00    -0.064 N 
HETATM   29  H   UNL     1      19.447  47.537  47.191  1.00  0.00     0.280 HD
HETATM   30  C   UNL     1      18.929  45.746  48.122  1.00  0.00     0.255 C 
HETATM   31  C   UNL     1      20.049  44.885  47.507  1.00  0.00     0.150 C 
BRANCH  28  32
HETATM   32  C   UNL     1      18.255  48.093  48.774  1.00  0.00     0.276 C 
BRANCH  32  33
HETATM   33  C   UNL     1      18.550  49.561  48.700  1.00  0.00     0.006 A 
HETATM   34  C   UNL     1      18.731  50.291  49.879  1.00  0.00     0.124 A 
HETATM   35  F   UNL     1      18.678  49.646  51.053  1.00  0.00    -0.206 F 
HETATM   36  C   UNL     1      19.002  51.654  49.859  1.00  0.00     0.043 A 
HETATM   37  C   UNL     1      19.094  52.312  48.633  1.00  0.00     0.003 A 
HETATM   38  C   UNL     1      18.916  51.603  47.445  1.00  0.00     0.001 A 
HETATM   39  C   UNL     1      18.641  50.234  47.474  1.00  0.00     0.012 A 
ENDBRANCH  32  33
ENDBRANCH  28  32
ENDBRANCH   4  25
TORSDOF 10
ENDMDL
MODEL 10
REMARK VINA RESULT:      -7.7      5.320     12.774
REMARK  10 active torsions:
REMARK  status: ('A' for Active; 'I' for Inactive)
REMARK    1  A    between atoms: C_2  and  C_3 
REMARK    2  A    between atoms: C_3  and  O_4 
REMARK    3  A    between atoms: O_4  and  C_5 
REMARK    4  A    between atoms: C_7  and  C_8 
REMARK       I    between atoms: C_8  and  N_9 
REMARK    5  A    between atoms: N_9  and  C_10 
REMARK    6  A    between atoms: C_10  and  N_11 
REMARK    7  A    between atoms: N_11  and  C_12 
REMARK    8  A    between atoms: C_15  and  N_16 
REMARK    9  A    between atoms: N_19  and  C_21 
REMARK   10  A    between atoms: C_21  and  C_22 
ROOT
HETATM    1  C   UNL     1      24.911  46.370  50.518  1.00  0.00     0.034 A 
HETATM    2  C   UNL     1      24.488  45.523  49.494  1.00  0.00     0.032 A 
HETATM    3  C   UNL     1      25.098  44.276  49.306  1.00  0.00     0.031 A 
HETATM    4  C   UNL     1      26.168  43.846  50.105  1.00  0.00     0.030 A 
HETATM    5  C   UNL     1      26.607  44.735  51.098  1.00  0.00     0.031 A 
HETATM    6  C   UNL     1      25.994  45.981  51.300  1.00  0.00     0.032 A 
ENDROOT
BRANCH   1   7
HETATM    7  N   UNL     1      24.249  47.605  50.653  1.00  0.00    -0.333 N 
HETATM    8  H   UNL     1      23.741  47.721  51.523  1.00  0.00     0.168 HD
BRANCH   7   9
HETATM    9  C   UNL     1      23.941  48.533  49.721  1.00  0.00     0.179 C 
HETATM   10  S   UNL     1      25.176  49.202  48.809  1.00  0.00    -0.040 SA
BRANCH   9  11
HETATM   11  N   UNL     1      22.662  48.898  49.420  1.00  0.00    -0.299 N 
HETATM   12  C   UNL     1      22.007  48.837  48.191  1.00  0.00     0.257 C 
HETATM   13  O   UNL     1      22.202  48.041  47.283  1.00  0.00    -0.267 OA
HETATM   14  H   UNL     1      22.340  49.628  50.042  1.00  0.00     0.171 HD
BRANCH  12  15
HETATM   15  C   UNL     1      20.894  49.809  48.042  1.00  0.00     0.035 A 
HETATM   16  C   UNL     1      19.762  49.504  47.274  1.00  0.00     0.053 A 
HETATM   17  C   UNL     1      18.733  50.439  47.174  1.00  0.00     0.069 A 
HETATM   18  C   UNL     1      18.846  51.681  47.801  1.00  0.00     0.037 A 
HETATM   19  C   UNL     1      19.961  51.974  48.586  1.00  0.00     0.004 A 
HETATM   20  C   UNL     1      20.982  51.033  48.718  1.00  0.00     0.017 A 
BRANCH  17  21
HETATM   21  O   UNL     1      17.599  50.238  46.438  1.00  0.00    -0.351 OA
BRANCH  21  22
HETATM   22  C   UNL     1      17.268  51.327  45.568  1.00  0.00     0.175 C 
BRANCH  22  23
HETATM   23  C   UNL     1      18.031  51.125  44.262  1.00  0.00     0.022 C 
HETATM   24  C   UNL     1      17.249  51.632  43.065  1.00  0.00     0.007 C 
ENDBRANCH  22  23
ENDBRANCH  21  22
ENDBRANCH  17  21
ENDBRANCH  12  15
ENDBRANCH   9  11
ENDBRANCH   7   9
ENDBRANCH   1   7
BRANCH   4  25
HETATM   25  N   UNL     1      26.696  42.561  49.937  1.00  0.00    -0.378 N 
HETATM   26  C   UNL     1      27.023  41.818  51.168  1.00  0.00     0.150 C 
HETATM   27  C   UNL     1      28.064  40.722  50.858  1.00  0.00     0.255 C 
HETATM   28  N   UNL     1      27.591  39.815  49.725  1.00  0.00    -0.064 N 
HETATM   29  H   UNL     1      26.740  39.337  50.053  1.00  0.00     0.280 HD
HETATM   30  C   UNL     1      27.213  40.629  48.488  1.00  0.00     0.255 C 
HETATM   31  C   UNL     1      26.188  41.726  48.836  1.00  0.00     0.150 C 
BRANCH  28  32
HETATM   32  C   UNL     1      28.605  38.738  49.423  1.00  0.00     0.276 C 
BRANCH  32  33
HETATM   33  C   UNL     1      28.138  37.724  48.422  1.00  0.00     0.006 A 
HETATM   34  C   UNL     1      27.063  36.887  48.735  1.00  0.00     0.124 A 
HETATM   35  F   UNL     1      26.444  37.042  49.915  1.00  0.00    -0.206 F 
HETATM   36  C   UNL     1      26.598  35.931  47.841  1.00  0.00     0.043 A 
HETATM   37  C   UNL     1      27.219  35.800  46.600  1.00  0.00     0.003 A 
HETATM   38  C   UNL     1      28.295  36.624  46.267  1.00  0.00     0.001 A 
HETATM   39  C   UNL     1      28.758  37.581  47.174  1.00  0.00     0.012 A 
ENDBRANCH  32  33
ENDBRANCH  28  32
ENDBRANCH   4  25
TORSDOF 10
ENDMDL
