MODEL 1
REMARK VINA RESULT:     -11.0      0.000      0.000
REMARK  6 active torsions:
REMARK  status: ('A' for Active; 'I' for Inactive)
REMARK       I    between atoms: C_2  and  N_3 
REMARK    1  A    between atoms: C_2  and  C_12 
REMARK    2  A    between atoms: N_3  and  C_4 
REMARK    3  A    between atoms: C_4  and  C_5 
REMARK    4  A    between atoms: C_5  and  C_6 
REMARK    5  A    between atoms: C_18  and  C_22 
REMARK    6  A    between atoms: C_28  and  C_34 
ROOT
HETATM    1  C   UNL     1      23.372  44.444  48.878  1.00  0.00     0.032 A 
HETATM    2  C   UNL     1      22.626  43.565  49.671  1.00  0.00     0.020 A 
HETATM    3  C   UNL     1      23.226  42.414  50.187  1.00  0.00     0.038 A 
HETATM    4  C   UNL     1      24.567  42.141  49.919  1.00  0.00     0.075 A 
HETATM    5  O   UNL     1      25.097  41.039  50.541  1.00  0.00    -0.350 OA
HETATM    6  C   UNL     1      26.372  40.611  50.045  1.00  0.00     0.188 C 
HETATM    7  C   UNL     1      27.355  41.769  49.899  1.00  0.00     0.082 C 
HETATM    8  C   UNL     1      26.784  42.758  48.882  1.00  0.00     0.056 C 
HETATM    9  C   UNL     1      25.333  43.024  49.151  1.00  0.00    -0.023 A 
HETATM   10  C   UNL     1      24.723  44.169  48.621  1.00  0.00     0.027 A 
ENDROOT
BRANCH   7  11
HETATM   11  C   UNL     1      27.652  42.464  51.195  1.00  0.00     0.091 A 
HETATM   12  N   UNL     1      28.779  42.139  51.821  1.00  0.00    -0.345 N 
HETATM   13  H   UNL     1      29.396  41.435  51.424  1.00  0.00     0.167 HD
HETATM   14  C   UNL     1      29.126  42.775  52.980  1.00  0.00     0.049 A 
HETATM   15  C   UNL     1      30.324  42.444  53.615  1.00  0.00     0.031 A 
HETATM   16  C   UNL     1      28.329  43.763  53.559  1.00  0.00     0.059 A 
HETATM   17  C   UNL     1      30.707  43.099  54.795  1.00  0.00     0.014 A 
HETATM   18  C   UNL     1      29.903  44.099  55.363  1.00  0.00    -0.022 A 
HETATM   19  C   UNL     1      28.696  44.426  54.736  1.00  0.00     0.031 A 
HETATM   20  C   UNL     1      27.083  44.086  52.870  1.00  0.00     0.259 A 
HETATM   21  O   UNL     1      26.261  44.904  53.231  1.00  0.00    -0.267 OA
HETATM   22  N   UNL     1      26.833  43.375  51.678  1.00  0.00    -0.312 N 
HETATM   23  H   UNL     1      25.983  43.619  51.172  1.00  0.00     0.170 HD
BRANCH  18  24
HETATM   24  C   UNL     1      30.323  44.772  56.579  1.00  0.00     0.010 A 
HETATM   25  C   UNL     1      29.931  46.012  57.134  1.00  0.00     0.152 A 
HETATM   26  N   UNL     1      30.540  46.276  58.291  1.00  0.00    -0.187 NA
HETATM   27  N   UNL     1      31.324  45.206  58.489  1.00  0.00    -0.289 N 
HETATM   28  H   UNL     1      31.893  45.175  59.331  1.00  0.00     0.188 HD
HETATM   29  C   UNL     1      31.231  44.275  57.492  1.00  0.00     0.123 A 
ENDBRANCH  18  24
ENDBRANCH   7  11
BRANCH   1  30
HETATM   30  C   UNL     1      22.803  45.710  48.343  1.00  0.00     0.251 C 
HETATM   31  O   UNL     1      22.388  45.741  47.191  1.00  0.00    -0.268 OA
HETATM   32  N   UNL     1      22.753  46.779  49.210  1.00  0.00    -0.357 N 
HETATM   33  H   UNL     1      22.886  46.618  50.200  1.00  0.00     0.162 HD
BRANCH  32  34
HETATM   34  C   UNL     1      22.151  48.036  48.794  1.00  0.00     0.129 C 
BRANCH  34  35
HETATM   35  C   UNL     1      22.843  49.239  49.427  1.00  0.00     0.079 C 
BRANCH  35  36
HETATM   36  C   UNL     1      24.326  49.206  49.184  1.00  0.00     0.035 A 
HETATM   37  C   UNL     1      24.904  50.004  48.199  1.00  0.00     0.027 A 
HETATM   38  C   UNL     1      26.280  49.930  47.999  1.00  0.00     0.003 A 
HETATM   39  C   UNL     1      27.037  49.066  48.778  1.00  0.00     0.019 A 
HETATM   40  C   UNL     1      26.383  48.304  49.731  1.00  0.00     0.117 A 
HETATM   41  N   UNL     1      25.050  48.353  49.948  1.00  0.00    -0.266 NA
ENDBRANCH  35  36
ENDBRANCH  34  35
ENDBRANCH  32  34
ENDBRANCH   1  30
TORSDOF 6
ENDMDL
MODEL 2
REMARK VINA RESULT:     -10.5      3.057     10.077
REMARK  6 active torsions:
REMARK  status: ('A' for Active; 'I' for Inactive)
REMARK       I    between atoms: C_2  and  N_3 
REMARK    1  A    between atoms: C_2  and  C_12 
REMARK    2  A    between atoms: N_3  and  C_4 
REMARK    3  A    between atoms: C_4  and  C_5 
REMARK    4  A    between atoms: C_5  and  C_6 
REMARK    5  A    between atoms: C_18  and  C_22 
REMARK    6  A    between atoms: C_28  and  C_34 
ROOT
HETATM    1  C   UNL     1      25.573  44.938  52.092  1.00  0.00     0.032 A 
HETATM    2  C   UNL     1      26.460  45.328  51.083  1.00  0.00     0.020 A 
HETATM    3  C   UNL     1      26.103  45.165  49.742  1.00  0.00     0.038 A 
HETATM    4  C   UNL     1      24.864  44.619  49.407  1.00  0.00     0.075 A 
HETATM    5  O   UNL     1      24.561  44.581  48.070  1.00  0.00    -0.350 OA
HETATM    6  C   UNL     1      23.429  43.773  47.722  1.00  0.00     0.188 C 
HETATM    7  C   UNL     1      22.226  44.046  48.620  1.00  0.00     0.082 C 
HETATM    8  C   UNL     1      22.608  43.692  50.058  1.00  0.00     0.056 C 
HETATM    9  C   UNL     1      23.956  44.250  50.405  1.00  0.00    -0.023 A 
HETATM   10  C   UNL     1      24.325  44.400  51.748  1.00  0.00     0.027 A 
ENDROOT
BRANCH   7  11
HETATM   11  C   UNL     1      21.735  45.462  48.542  1.00  0.00     0.091 A 
HETATM   12  N   UNL     1      20.496  45.706  48.959  1.00  0.00    -0.345 N 
HETATM   13  H   UNL     1      19.916  44.945  49.302  1.00  0.00     0.167 HD
HETATM   14  C   UNL     1      20.013  46.985  48.956  1.00  0.00     0.049 A 
HETATM   15  C   UNL     1      18.721  47.234  49.420  1.00  0.00     0.031 A 
HETATM   16  C   UNL     1      20.771  48.070  48.516  1.00  0.00     0.059 A 
HETATM   17  C   UNL     1      18.213  48.541  49.444  1.00  0.00     0.014 A 
HETATM   18  C   UNL     1      18.989  49.628  49.008  1.00  0.00    -0.022 A 
HETATM   19  C   UNL     1      20.281  49.381  48.533  1.00  0.00     0.031 A 
HETATM   20  C   UNL     1      22.120  47.777  48.038  1.00  0.00     0.259 A 
HETATM   21  O   UNL     1      22.914  48.587  47.606  1.00  0.00    -0.267 OA
HETATM   22  N   UNL     1      22.515  46.424  48.096  1.00  0.00    -0.312 N 
HETATM   23  H   UNL     1      23.467  46.215  47.797  1.00  0.00     0.170 HD
BRANCH  18  24
HETATM   24  C   UNL     1      18.449  50.974  49.052  1.00  0.00     0.010 A 
HETATM   25  C   UNL     1      17.360  51.512  49.778  1.00  0.00     0.152 A 
HETATM   26  N   UNL     1      17.189  52.817  49.561  1.00  0.00    -0.187 NA
HETATM   27  N   UNL     1      18.168  53.127  48.698  1.00  0.00    -0.289 N 
HETATM   28  H   UNL     1      18.246  54.091  48.385  1.00  0.00     0.188 HD
HETATM   29  C   UNL     1      18.951  52.058  48.362  1.00  0.00     0.123 A 
ENDBRANCH  18  24
ENDBRANCH   7  11
BRANCH   1  30
HETATM   30  C   UNL     1      25.876  45.135  53.535  1.00  0.00     0.251 C 
HETATM   31  O   UNL     1      25.006  44.905  54.367  1.00  0.00    -0.268 OA
HETATM   32  N   UNL     1      27.153  45.543  53.848  1.00  0.00    -0.357 N 
HETATM   33  H   UNL     1      27.877  45.481  53.144  1.00  0.00     0.162 HD
BRANCH  32  34
HETATM   34  C   UNL     1      27.558  45.696  55.238  1.00  0.00     0.129 C 
BRANCH  34  35
HETATM   35  C   UNL     1      28.971  46.254  55.363  1.00  0.00     0.079 C 
BRANCH  35  36
HETATM   36  C   UNL     1      29.887  45.277  56.049  1.00  0.00     0.035 A 
HETATM   37  C   UNL     1      30.257  44.089  55.424  1.00  0.00     0.027 A 
HETATM   38  C   UNL     1      31.093  43.207  56.102  1.00  0.00     0.003 A 
HETATM   39  C   UNL     1      31.533  43.530  57.379  1.00  0.00     0.019 A 
HETATM   40  C   UNL     1      31.113  44.728  57.930  1.00  0.00     0.117 A 
HETATM   41  N   UNL     1      30.301  45.603  57.297  1.00  0.00    -0.266 NA
ENDBRANCH  35  36
ENDBRANCH  34  35
ENDBRANCH  32  34
ENDBRANCH   1  30
TORSDOF 6
ENDMDL
MODEL 3
REMARK VINA RESULT:     -10.3      2.019      3.071
REMARK  6 active torsions:
REMARK  status: ('A' for Active; 'I' for Inactive)
REMARK       I    between atoms: C_2  and  N_3 
REMARK    1  A    between atoms: C_2  and  C_12 
REMARK    2  A    between atoms: N_3  and  C_4 
REMARK    3  A    between atoms: C_4  and  C_5 
REMARK    4  A    between atoms: C_5  and  C_6 
REMARK    5  A    between atoms: C_18  and  C_22 
REMARK    6  A    between atoms: C_28  and  C_34 
ROOT
HETATM    1  C   UNL     1      23.197  45.099  49.254  1.00  0.00     0.032 A 
HETATM    2  C   UNL     1      22.453  44.175  49.995  1.00  0.00     0.020 A 
HETATM    3  C   UNL     1      23.036  42.969  50.392  1.00  0.00     0.038 A 
HETATM    4  C   UNL     1      24.360  42.687  50.056  1.00  0.00     0.075 A 
HETATM    5  O   UNL     1      24.878  41.523  50.564  1.00  0.00    -0.350 OA
HETATM    6  C   UNL     1      26.125  41.106  49.990  1.00  0.00     0.188 C 
HETATM    7  C   UNL     1      27.134  42.248  49.909  1.00  0.00     0.082 C 
HETATM    8  C   UNL     1      26.560  43.334  48.999  1.00  0.00     0.056 C 
HETATM    9  C   UNL     1      25.125  43.612  49.339  1.00  0.00    -0.023 A 
HETATM   10  C   UNL     1      24.531  44.813  48.929  1.00  0.00     0.027 A 
ENDROOT
BRANCH   7  11
HETATM   11  C   UNL     1      27.492  42.821  51.248  1.00  0.00     0.091 A 
HETATM   12  N   UNL     1      28.655  42.458  51.780  1.00  0.00    -0.345 N 
HETATM   13  H   UNL     1      29.259  41.806  51.287  1.00  0.00     0.167 HD
HETATM   14  C   UNL     1      29.056  42.987  52.976  1.00  0.00     0.049 A 
HETATM   15  C   UNL     1      30.290  42.620  53.513  1.00  0.00     0.031 A 
HETATM   16  C   UNL     1      28.278  43.902  53.687  1.00  0.00     0.059 A 
HETATM   17  C   UNL     1      30.728  43.166  54.728  1.00  0.00     0.014 A 
HETATM   18  C   UNL     1      29.943  44.094  55.430  1.00  0.00    -0.022 A 
HETATM   19  C   UNL     1      28.700  44.457  54.901  1.00  0.00     0.031 A 
HETATM   20  C   UNL     1      26.993  44.267  53.098  1.00  0.00     0.259 A 
HETATM   21  O   UNL     1      26.181  45.032  53.578  1.00  0.00    -0.267 OA
HETATM   22  N   UNL     1      26.688  43.668  51.858  1.00  0.00    -0.312 N 
HETATM   23  H   UNL     1      25.810  43.944  51.423  1.00  0.00     0.170 HD
BRANCH  18  24
HETATM   24  C   UNL     1      30.420  44.655  56.681  1.00  0.00     0.010 A 
HETATM   25  C   UNL     1      31.319  44.141  57.644  1.00  0.00     0.152 A 
HETATM   26  N   UNL     1      31.520  44.979  58.662  1.00  0.00    -0.187 NA
HETATM   27  N   UNL     1      30.756  46.038  58.359  1.00  0.00    -0.289 N 
HETATM   28  H   UNL     1      30.750  46.827  58.999  1.00  0.00     0.188 HD
HETATM   29  C   UNL     1      30.076  45.895  57.181  1.00  0.00     0.123 A 
ENDBRANCH  18  24
ENDBRANCH   7  11
BRANCH   1  30
HETATM   30  C   UNL     1      22.647  46.420  48.848  1.00  0.00     0.251 C 
HETATM   31  O   UNL     1      23.417  47.318  48.529  1.00  0.00    -0.268 OA
HETATM   32  N   UNL     1      21.275  46.538  48.831  1.00  0.00    -0.357 N 
HETATM   33  H   UNL     1      20.708  45.702  48.872  1.00  0.00     0.162 HD
BRANCH  32  34
HETATM   34  C   UNL     1      20.648  47.773  48.383  1.00  0.00     0.129 C 
BRANCH  34  35
HETATM   35  C   UNL     1      19.483  48.180  49.278  1.00  0.00     0.079 C 
BRANCH  35  36
HETATM   36  C   UNL     1      19.231  49.661  49.208  1.00  0.00     0.035 A 
HETATM   37  C   UNL     1      20.041  50.485  48.430  1.00  0.00     0.027 A 
HETATM   38  C   UNL     1      19.781  51.852  48.406  1.00  0.00     0.003 A 
HETATM   39  C   UNL     1      18.728  52.359  49.157  1.00  0.00     0.019 A 
HETATM   40  C   UNL     1      17.975  51.472  49.908  1.00  0.00     0.117 A 
HETATM   41  N   UNL     1      18.205  50.140  49.951  1.00  0.00    -0.266 NA
ENDBRANCH  35  36
ENDBRANCH  34  35
ENDBRANCH  32  34
ENDBRANCH   1  30
TORSDOF 6
ENDMDL
MODEL 4
REMARK VINA RESULT:      -9.5      5.751      8.232
REMARK  6 active torsions:
REMARK  status: ('A' for Active; 'I' for Inactive)
REMARK       I    between atoms: C_2  and  N_3 
REMARK    1  A    between atoms: C_2  and  C_12 
REMARK    2  A    between atoms: N_3  and  C_4 
REMARK    3  A    between atoms: C_4  and  C_5 
REMARK    4  A    between atoms: C_5  and  C_6 
REMARK    5  A    between atoms: C_18  and  C_22 
REMARK    6  A    between atoms: C_28  and  C_34 
ROOT
HETATM    1  C   UNL     1      18.669  49.842  49.179  1.00  0.00     0.032 A 
HETATM    2  C   UNL     1      18.117  48.843  49.989  1.00  0.00     0.020 A 
HETATM    3  C   UNL     1      18.532  47.518  49.839  1.00  0.00     0.038 A 
HETATM    4  C   UNL     1      19.500  47.189  48.890  1.00  0.00     0.075 A 
HETATM    5  O   UNL     1      19.912  45.881  48.875  1.00  0.00    -0.350 OA
HETATM    6  C   UNL     1      20.683  45.495  47.729  1.00  0.00     0.188 C 
HETATM    7  C   UNL     1      21.791  46.497  47.413  1.00  0.00     0.082 C 
HETATM    8  C   UNL     1      21.144  47.844  47.090  1.00  0.00     0.056 C 
HETATM    9  C   UNL     1      20.080  48.180  48.092  1.00  0.00    -0.023 A 
HETATM   10  C   UNL     1      19.649  49.505  48.234  1.00  0.00     0.027 A 
ENDROOT
BRANCH   7  11
HETATM   11  C   UNL     1      22.789  46.647  48.523  1.00  0.00     0.091 A 
HETATM   12  N   UNL     1      22.990  45.599  49.315  1.00  0.00    -0.345 N 
HETATM   13  H   UNL     1      22.467  44.740  49.165  1.00  0.00     0.167 HD
HETATM   14  C   UNL     1      23.923  45.663  50.312  1.00  0.00     0.049 A 
HETATM   15  C   UNL     1      24.144  44.547  51.122  1.00  0.00     0.031 A 
HETATM   16  C   UNL     1      24.685  46.807  50.552  1.00  0.00     0.059 A 
HETATM   17  C   UNL     1      25.111  44.586  52.137  1.00  0.00     0.014 A 
HETATM   18  C   UNL     1      25.879  45.739  52.362  1.00  0.00    -0.022 A 
HETATM   19  C   UNL     1      25.654  46.863  51.561  1.00  0.00     0.031 A 
HETATM   20  C   UNL     1      24.431  47.956  49.687  1.00  0.00     0.259 A 
HETATM   21  O   UNL     1      24.983  49.035  49.756  1.00  0.00    -0.267 OA
HETATM   22  N   UNL     1      23.453  47.773  48.687  1.00  0.00    -0.312 N 
HETATM   23  H   UNL     1      23.295  48.558  48.057  1.00  0.00     0.170 HD
BRANCH  18  24
HETATM   24  C   UNL     1      26.883  45.754  53.411  1.00  0.00     0.010 A 
HETATM   25  C   UNL     1      27.847  44.789  53.784  1.00  0.00     0.152 A 
HETATM   26  N   UNL     1      28.611  45.189  54.803  1.00  0.00    -0.187 NA
HETATM   27  N   UNL     1      28.145  46.414  55.088  1.00  0.00    -0.289 N 
HETATM   28  H   UNL     1      28.586  46.933  55.843  1.00  0.00     0.188 HD
HETATM   29  C   UNL     1      27.110  46.800  54.283  1.00  0.00     0.123 A 
ENDBRANCH  18  24
ENDBRANCH   7  11
BRANCH   1  30
HETATM   30  C   UNL     1      18.305  51.277  49.327  1.00  0.00     0.251 C 
HETATM   31  O   UNL     1      19.192  52.121  49.351  1.00  0.00    -0.268 OA
HETATM   32  N   UNL     1      16.961  51.567  49.400  1.00  0.00    -0.357 N 
HETATM   33  H   UNL     1      16.288  50.860  49.136  1.00  0.00     0.162 HD
BRANCH  32  34
HETATM   34  C   UNL     1      16.510  52.949  49.478  1.00  0.00     0.129 C 
BRANCH  34  35
HETATM   35  C   UNL     1      15.401  53.131  50.509  1.00  0.00     0.079 C 
BRANCH  35  36
HETATM   36  C   UNL     1      14.165  53.719  49.885  1.00  0.00     0.035 A 
HETATM   37  C   UNL     1      14.195  54.228  48.589  1.00  0.00     0.027 A 
HETATM   38  C   UNL     1      13.032  54.778  48.057  1.00  0.00     0.003 A 
HETATM   39  C   UNL     1      11.878  54.808  48.829  1.00  0.00     0.019 A 
HETATM   40  C   UNL     1      11.935  54.287  50.110  1.00  0.00     0.117 A 
HETATM   41  N   UNL     1      13.050  53.748  50.653  1.00  0.00    -0.266 NA
ENDBRANCH  35  36
ENDBRANCH  34  35
ENDBRANCH  32  34
ENDBRANCH   1  30
TORSDOF 6
ENDMDL
MODEL 5
REMARK VINA RESULT:      -9.5      3.540      6.079
REMARK  6 active torsions:
REMARK  status: ('A' for Active; 'I' for Inactive)
REMARK       I    between atoms: C_2  and  N_3 
REMARK    1  A    between atoms: C_2  and  C_12 
REMARK    2  A    between atoms: N_3  and  C_4 
REMARK    3  A    between atoms: C_4  and  C_5 
REMARK    4  A    between atoms: C_5  and  C_6 
REMARK    5  A    between atoms: C_18  and  C_22 
REMARK    6  A    between atoms: C_28  and  C_34 
ROOT
HETATM    1  C   UNL     1      18.309  47.643  47.943  1.00  0.00     0.032 A 
HETATM    2  C   UNL     1      17.678  46.490  48.422  1.00  0.00     0.020 A 
HETATM    3  C   UNL     1      18.242  45.235  48.180  1.00  0.00     0.038 A 
HETATM    4  C   UNL     1      19.436  45.129  47.466  1.00  0.00     0.075 A 
HETATM    5  O   UNL     1      19.964  43.869  47.354  1.00  0.00    -0.350 OA
HETATM    6  C   UNL     1      21.021  43.730  46.395  1.00  0.00     0.188 C 
HETATM    7  C   UNL     1      22.070  44.830  46.528  1.00  0.00     0.082 C 
HETATM    8  C   UNL     1      21.394  46.175  46.263  1.00  0.00     0.056 C 
HETATM    9  C   UNL     1      20.093  46.274  47.005  1.00  0.00    -0.023 A 
HETATM   10  C   UNL     1      19.515  47.529  47.235  1.00  0.00     0.027 A 
ENDROOT
BRANCH   7  11
HETATM   11  C   UNL     1      22.754  44.841  47.864  1.00  0.00     0.091 A 
HETATM   12  N   UNL     1      23.509  45.895  48.159  1.00  0.00    -0.345 N 
HETATM   13  H   UNL     1      23.615  46.649  47.485  1.00  0.00     0.167 HD
HETATM   14  C   UNL     1      24.116  45.982  49.380  1.00  0.00     0.049 A 
HETATM   15  C   UNL     1      24.885  47.104  49.690  1.00  0.00     0.031 A 
HETATM   16  C   UNL     1      23.988  44.987  50.351  1.00  0.00     0.059 A 
HETATM   17  C   UNL     1      25.500  47.221  50.945  1.00  0.00     0.014 A 
HETATM   18  C   UNL     1      25.356  46.220  51.918  1.00  0.00    -0.022 A 
HETATM   19  C   UNL     1      24.595  45.088  51.609  1.00  0.00     0.031 A 
HETATM   20  C   UNL     1      23.177  43.826  49.998  1.00  0.00     0.259 A 
HETATM   21  O   UNL     1      22.967  42.862  50.705  1.00  0.00    -0.267 OA
HETATM   22  N   UNL     1      22.591  43.849  48.715  1.00  0.00    -0.312 N 
HETATM   23  H   UNL     1      21.994  43.060  48.473  1.00  0.00     0.170 HD
BRANCH  18  24
HETATM   24  C   UNL     1      25.992  46.366  53.215  1.00  0.00     0.010 A 
HETATM   25  C   UNL     1      26.831  45.487  53.939  1.00  0.00     0.152 A 
HETATM   26  N   UNL     1      27.234  46.000  55.103  1.00  0.00    -0.187 NA
HETATM   27  N   UNL     1      26.662  47.212  55.133  1.00  0.00    -0.289 N 
HETATM   28  H   UNL     1      26.833  47.807  55.939  1.00  0.00     0.188 HD
HETATM   29  C   UNL     1      25.907  47.480  54.024  1.00  0.00     0.123 A 
ENDBRANCH  18  24
ENDBRANCH   7  11
BRANCH   1  30
HETATM   30  C   UNL     1      17.784  49.008  48.213  1.00  0.00     0.251 C 
HETATM   31  O   UNL     1      17.152  49.213  49.243  1.00  0.00    -0.268 OA
HETATM   32  N   UNL     1      18.074  49.977  47.280  1.00  0.00    -0.357 N 
HETATM   33  H   UNL     1      18.791  49.798  46.589  1.00  0.00     0.162 HD
BRANCH  32  34
HETATM   34  C   UNL     1      17.657  51.355  47.496  1.00  0.00     0.129 C 
BRANCH  34  35
HETATM   35  C   UNL     1      18.843  52.273  47.774  1.00  0.00     0.079 C 
BRANCH  35  36
HETATM   36  C   UNL     1      19.971  51.526  48.430  1.00  0.00     0.035 A 
HETATM   37  C   UNL     1      20.108  51.516  49.816  1.00  0.00     0.027 A 
HETATM   38  C   UNL     1      21.176  50.824  50.380  1.00  0.00     0.003 A 
HETATM   39  C   UNL     1      22.076  50.169  49.551  1.00  0.00     0.019 A 
HETATM   40  C   UNL     1      21.872  50.234  48.183  1.00  0.00     0.117 A 
HETATM   41  N   UNL     1      20.845  50.898  47.608  1.00  0.00    -0.266 NA
ENDBRANCH  35  36
ENDBRANCH  34  35
ENDBRANCH  32  34
ENDBRANCH   1  30
TORSDOF 6
ENDMDL
MODEL 6
REMARK VINA RESULT:      -9.4      3.106      9.821
REMARK  6 active torsions:
REMARK  status: ('A' for Active; 'I' for Inactive)
REMARK       I    between atoms: C_2  and  N_3 
REMARK    1  A    between atoms: C_2  and  C_12 
REMARK    2  A    between atoms: N_3  and  C_4 
REMARK    3  A    between atoms: C_4  and  C_5 
REMARK    4  A    between atoms: C_5  and  C_6 
REMARK    5  A    between atoms: C_18  and  C_22 
REMARK    6  A    between atoms: C_28  and  C_34 
ROOT
HETATM    1  C   UNL     1      25.891  46.598  52.129  1.00  0.00     0.032 A 
HETATM    2  C   UNL     1      26.535  47.066  50.979  1.00  0.00     0.020 A 
HETATM    3  C   UNL     1      26.187  46.551  49.728  1.00  0.00     0.038 A 
HETATM    4  C   UNL     1      25.195  45.576  49.622  1.00  0.00     0.075 A 
HETATM    5  O   UNL     1      24.855  45.195  48.349  1.00  0.00    -0.350 OA
HETATM    6  C   UNL     1      24.053  44.009  48.259  1.00  0.00     0.188 C 
HETATM    7  C   UNL     1      22.878  44.031  49.233  1.00  0.00     0.082 C 
HETATM    8  C   UNL     1      23.433  44.093  50.656  1.00  0.00     0.056 C 
HETATM    9  C   UNL     1      24.523  45.118  50.760  1.00  0.00    -0.023 A 
HETATM   10  C   UNL     1      24.887  45.625  52.014  1.00  0.00     0.027 A 
ENDROOT
BRANCH   7  11
HETATM   11  C   UNL     1      21.927  45.166  48.991  1.00  0.00     0.091 A 
HETATM   12  N   UNL     1      22.423  46.399  49.019  1.00  0.00    -0.345 N 
HETATM   13  H   UNL     1      23.410  46.546  49.210  1.00  0.00     0.167 HD
HETATM   14  C   UNL     1      21.612  47.469  48.757  1.00  0.00     0.049 A 
HETATM   15  C   UNL     1      22.149  48.757  48.763  1.00  0.00     0.031 A 
HETATM   16  C   UNL     1      20.255  47.326  48.467  1.00  0.00     0.059 A 
HETATM   17  C   UNL     1      21.339  49.866  48.478  1.00  0.00     0.014 A 
HETATM   18  C   UNL     1      19.976  49.710  48.177  1.00  0.00    -0.022 A 
HETATM   19  C   UNL     1      19.432  48.421  48.180  1.00  0.00     0.031 A 
HETATM   20  C   UNL     1      19.724  45.965  48.468  1.00  0.00     0.259 A 
HETATM   21  O   UNL     1      18.572  45.650  48.254  1.00  0.00    -0.267 OA
HETATM   22  N   UNL     1      20.654  44.939  48.741  1.00  0.00    -0.312 N 
HETATM   23  H   UNL     1      20.300  43.985  48.709  1.00  0.00     0.170 HD
BRANCH  18  24
HETATM   24  C   UNL     1      19.158  50.869  47.874  1.00  0.00     0.010 A 
HETATM   25  C   UNL     1      18.016  51.008  47.050  1.00  0.00     0.152 A 
HETATM   26  N   UNL     1      17.530  52.250  47.045  1.00  0.00    -0.187 NA
HETATM   27  N   UNL     1      18.353  52.917  47.868  1.00  0.00    -0.289 N 
HETATM   28  H   UNL     1      18.174  53.904  48.032  1.00  0.00     0.188 HD
HETATM   29  C   UNL     1      19.345  52.135  48.391  1.00  0.00     0.123 A 
ENDBRANCH  18  24
ENDBRANCH   7  11
BRANCH   1  30
HETATM   30  C   UNL     1      26.182  47.144  53.481  1.00  0.00     0.251 C 
HETATM   31  O   UNL     1      25.395  47.933  53.992  1.00  0.00    -0.268 OA
HETATM   32  N   UNL     1      27.331  46.695  54.094  1.00  0.00    -0.357 N 
HETATM   33  H   UNL     1      27.799  45.878  53.726  1.00  0.00     0.162 HD
BRANCH  32  34
HETATM   34  C   UNL     1      27.660  47.125  55.445  1.00  0.00     0.129 C 
BRANCH  34  35
HETATM   35  C   UNL     1      28.475  46.076  56.196  1.00  0.00     0.079 C 
BRANCH  35  36
HETATM   36  C   UNL     1      28.603  44.809  55.397  1.00  0.00     0.035 A 
HETATM   37  C   UNL     1      29.857  44.299  55.066  1.00  0.00     0.027 A 
HETATM   38  C   UNL     1      29.929  43.132  54.312  1.00  0.00     0.003 A 
HETATM   39  C   UNL     1      28.756  42.509  53.907  1.00  0.00     0.019 A 
HETATM   40  C   UNL     1      27.551  43.084  54.273  1.00  0.00     0.117 A 
HETATM   41  N   UNL     1      27.451  44.217  55.003  1.00  0.00    -0.266 NA
ENDBRANCH  35  36
ENDBRANCH  34  35
ENDBRANCH  32  34
ENDBRANCH   1  30
TORSDOF 6
ENDMDL
MODEL 7
REMARK VINA RESULT:      -9.4      6.489     13.783
REMARK  6 active torsions:
REMARK  status: ('A' for Active; 'I' for Inactive)
REMARK       I    between atoms: C_2  and  N_3 
REMARK    1  A    between atoms: C_2  and  C_12 
REMARK    2  A    between atoms: N_3  and  C_4 
REMARK    3  A    between atoms: C_4  and  C_5 
REMARK    4  A    between atoms: C_5  and  C_6 
REMARK    5  A    between atoms: C_18  and  C_22 
REMARK    6  A    between atoms: C_28  and  C_34 
ROOT
HETATM    1  C   UNL     1      22.714  49.735  48.486  1.00  0.00     0.032 A 
HETATM    2  C   UNL     1      22.111  48.482  48.636  1.00  0.00     0.020 A 
HETATM    3  C   UNL     1      20.733  48.394  48.852  1.00  0.00     0.038 A 
HETATM    4  C   UNL     1      19.957  49.552  48.913  1.00  0.00     0.075 A 
HETATM    5  O   UNL     1      18.604  49.367  49.036  1.00  0.00    -0.350 OA
HETATM    6  C   UNL     1      17.854  50.541  49.378  1.00  0.00     0.188 C 
HETATM    7  C   UNL     1      18.239  51.743  48.520  1.00  0.00     0.082 C 
HETATM    8  C   UNL     1      19.713  52.060  48.769  1.00  0.00     0.056 C 
HETATM    9  C   UNL     1      20.542  50.810  48.737  1.00  0.00    -0.023 A 
HETATM   10  C   UNL     1      21.926  50.894  48.538  1.00  0.00     0.027 A 
ENDROOT
BRANCH   7  11
HETATM   11  C   UNL     1      17.988  51.532  47.056  1.00  0.00     0.091 A 
HETATM   12  N   UNL     1      17.545  52.570  46.353  1.00  0.00    -0.345 N 
HETATM   13  H   UNL     1      17.378  53.461  46.813  1.00  0.00     0.167 HD
HETATM   14  C   UNL     1      17.346  52.450  45.006  1.00  0.00     0.049 A 
HETATM   15  C   UNL     1      16.905  53.553  44.274  1.00  0.00     0.031 A 
HETATM   16  C   UNL     1      17.578  51.258  44.319  1.00  0.00     0.059 A 
HETATM   17  C   UNL     1      16.713  53.456  42.888  1.00  0.00     0.014 A 
HETATM   18  C   UNL     1      16.961  52.255  42.204  1.00  0.00    -0.022 A 
HETATM   19  C   UNL     1      17.392  51.144  42.936  1.00  0.00     0.031 A 
HETATM   20  C   UNL     1      18.039  50.123  45.113  1.00  0.00     0.259 A 
HETATM   21  O   UNL     1      18.278  49.009  44.693  1.00  0.00    -0.267 OA
HETATM   22  N   UNL     1      18.219  50.365  46.491  1.00  0.00    -0.312 N 
HETATM   23  H   UNL     1      18.574  49.588  47.047  1.00  0.00     0.170 HD
BRANCH  18  24
HETATM   24  C   UNL     1      16.767  52.179  40.768  1.00  0.00     0.010 A 
HETATM   25  C   UNL     1      15.584  52.099  39.996  1.00  0.00     0.152 A 
HETATM   26  N   UNL     1      15.824  52.064  38.685  1.00  0.00    -0.187 NA
HETATM   27  N   UNL     1      17.162  52.126  38.604  1.00  0.00    -0.289 N 
HETATM   28  H   UNL     1      17.590  52.122  37.682  1.00  0.00     0.188 HD
HETATM   29  C   UNL     1      17.774  52.196  39.825  1.00  0.00     0.123 A 
ENDBRANCH  18  24
ENDBRANCH   7  11
BRANCH   1  30
HETATM   30  C   UNL     1      24.166  49.889  48.204  1.00  0.00     0.251 C 
HETATM   31  O   UNL     1      24.529  50.697  47.357  1.00  0.00    -0.268 OA
HETATM   32  N   UNL     1      25.026  49.116  48.951  1.00  0.00    -0.357 N 
HETATM   33  H   UNL     1      24.679  48.658  49.784  1.00  0.00     0.162 HD
BRANCH  32  34
HETATM   34  C   UNL     1      26.466  49.250  48.790  1.00  0.00     0.129 C 
BRANCH  34  35
HETATM   35  C   UNL     1      27.232  48.224  49.618  1.00  0.00     0.079 C 
BRANCH  35  36
HETATM   36  C   UNL     1      26.308  47.189  50.197  1.00  0.00     0.035 A 
HETATM   37  C   UNL     1      26.063  47.140  51.568  1.00  0.00     0.027 A 
HETATM   38  C   UNL     1      25.212  46.156  52.063  1.00  0.00     0.003 A 
HETATM   39  C   UNL     1      24.636  45.249  51.183  1.00  0.00     0.019 A 
HETATM   40  C   UNL     1      24.937  45.363  49.837  1.00  0.00     0.117 A 
HETATM   41  N   UNL     1      25.759  46.307  49.328  1.00  0.00    -0.266 NA
ENDBRANCH  35  36
ENDBRANCH  34  35
ENDBRANCH  32  34
ENDBRANCH   1  30
TORSDOF 6
ENDMDL
MODEL 8
REMARK VINA RESULT:      -9.3      3.831      7.499
REMARK  6 active torsions:
REMARK  status: ('A' for Active; 'I' for Inactive)
REMARK       I    between atoms: C_2  and  N_3 
REMARK    1  A    between atoms: C_2  and  C_12 
REMARK    2  A    between atoms: N_3  and  C_4 
REMARK    3  A    between atoms: C_4  and  C_5 
REMARK    4  A    between atoms: C_5  and  C_6 
REMARK    5  A    between atoms: C_18  and  C_22 
REMARK    6  A    between atoms: C_28  and  C_34 
ROOT
HETATM    1  C   UNL     1      24.848  48.090  49.324  1.00  0.00     0.032 A 
HETATM    2  C   UNL     1      26.230  48.179  49.527  1.00  0.00     0.020 A 
HETATM    3  C   UNL     1      26.885  47.208  50.289  1.00  0.00     0.038 A 
HETATM    4  C   UNL     1      26.166  46.149  50.843  1.00  0.00     0.075 A 
HETATM    5  O   UNL     1      26.903  45.195  51.498  1.00  0.00    -0.350 OA
HETATM    6  C   UNL     1      26.144  44.276  52.295  1.00  0.00     0.188 C 
HETATM    7  C   UNL     1      24.939  43.717  51.544  1.00  0.00     0.082 C 
HETATM    8  C   UNL     1      24.012  44.880  51.190  1.00  0.00     0.056 C 
HETATM    9  C   UNL     1      24.790  46.031  50.626  1.00  0.00    -0.023 A 
HETATM   10  C   UNL     1      24.134  47.016  49.875  1.00  0.00     0.027 A 
ENDROOT
BRANCH   7  11
HETATM   11  C   UNL     1      25.312  42.949  50.309  1.00  0.00     0.091 A 
HETATM   12  N   UNL     1      26.481  42.315  50.311  1.00  0.00    -0.345 N 
HETATM   13  H   UNL     1      27.089  42.372  51.123  1.00  0.00     0.167 HD
HETATM   14  C   UNL     1      26.851  41.560  49.233  1.00  0.00     0.049 A 
HETATM   15  C   UNL     1      28.068  40.878  49.255  1.00  0.00     0.031 A 
HETATM   16  C   UNL     1      26.047  41.429  48.100  1.00  0.00     0.059 A 
HETATM   17  C   UNL     1      28.457  40.082  48.168  1.00  0.00     0.014 A 
HETATM   18  C   UNL     1      27.635  39.949  47.037  1.00  0.00    -0.022 A 
HETATM   19  C   UNL     1      26.420  40.639  47.006  1.00  0.00     0.031 A 
HETATM   20  C   UNL     1      24.780  42.155  48.108  1.00  0.00     0.259 A 
HETATM   21  O   UNL     1      23.963  42.172  47.210  1.00  0.00    -0.267 OA
HETATM   22  N   UNL     1      24.498  42.894  49.276  1.00  0.00    -0.312 N 
HETATM   23  H   UNL     1      23.600  43.374  49.305  1.00  0.00     0.170 HD
BRANCH  18  24
HETATM   24  C   UNL     1      28.052  39.111  45.927  1.00  0.00     0.010 A 
HETATM   25  C   UNL     1      28.519  37.776  45.898  1.00  0.00     0.152 A 
HETATM   26  N   UNL     1      28.786  37.348  44.663  1.00  0.00    -0.187 NA
HETATM   27  N   UNL     1      28.488  38.403  43.890  1.00  0.00    -0.289 N 
HETATM   28  H   UNL     1      28.606  38.312  42.884  1.00  0.00     0.188 HD
HETATM   29  C   UNL     1      28.043  39.484  44.599  1.00  0.00     0.123 A 
ENDBRANCH  18  24
ENDBRANCH   7  11
BRANCH   1  30
HETATM   30  C   UNL     1      24.105  49.064  48.480  1.00  0.00     0.251 C 
HETATM   31  O   UNL     1      24.728  49.797  47.721  1.00  0.00    -0.268 OA
HETATM   32  N   UNL     1      22.733  49.054  48.590  1.00  0.00    -0.357 N 
HETATM   33  H   UNL     1      22.280  48.273  49.045  1.00  0.00     0.162 HD
BRANCH  32  34
HETATM   34  C   UNL     1      21.921  49.926  47.753  1.00  0.00     0.129 C 
BRANCH  34  35
HETATM   35  C   UNL     1      21.619  51.255  48.437  1.00  0.00     0.079 C 
BRANCH  35  36
HETATM   36  C   UNL     1      20.191  51.318  48.903  1.00  0.00     0.035 A 
HETATM   37  C   UNL     1      19.356  52.358  48.500  1.00  0.00     0.027 A 
HETATM   38  C   UNL     1      18.045  52.385  48.968  1.00  0.00     0.003 A 
HETATM   39  C   UNL     1      17.606  51.383  49.823  1.00  0.00     0.019 A 
HETATM   40  C   UNL     1      18.502  50.389  50.179  1.00  0.00     0.117 A 
HETATM   41  N   UNL     1      19.780  50.338  49.742  1.00  0.00    -0.266 NA
ENDBRANCH  35  36
ENDBRANCH  34  35
ENDBRANCH  32  34
ENDBRANCH   1  30
TORSDOF 6
ENDMDL
MODEL 9
REMARK VINA RESULT:      -9.2      6.546     13.779
REMARK  6 active torsions:
REMARK  status: ('A' for Active; 'I' for Inactive)
REMARK       I    between atoms: C_2  and  N_3 
REMARK    1  A    between atoms: C_2  and  C_12 
REMARK    2  A    between atoms: N_3  and  C_4 
REMARK    3  A    between atoms: C_4  and  C_5 
REMARK    4  A    between atoms: C_5  and  C_6 
REMARK    5  A    between atoms: C_18  and  C_22 
REMARK    6  A    between atoms: C_28  and  C_34 
ROOT
HETATM    1  C   UNL     1      21.921  50.055  48.653  1.00  0.00     0.032 A 
HETATM    2  C   UNL     1      21.308  48.989  49.320  1.00  0.00     0.020 A 
HETATM    3  C   UNL     1      19.994  49.117  49.776  1.00  0.00     0.038 A 
HETATM    4  C   UNL     1      19.290  50.302  49.564  1.00  0.00     0.075 A 
HETATM    5  O   UNL     1      17.978  50.306  49.964  1.00  0.00    -0.350 OA
HETATM    6  C   UNL     1      17.354  51.597  50.002  1.00  0.00     0.188 C 
HETATM    7  C   UNL     1      17.616  52.404  48.734  1.00  0.00     0.082 C 
HETATM    8  C   UNL     1      19.123  52.634  48.613  1.00  0.00     0.056 C 
HETATM    9  C   UNL     1      19.880  51.366  48.875  1.00  0.00    -0.023 A 
HETATM   10  C   UNL     1      21.204  51.240  48.434  1.00  0.00     0.027 A 
ENDROOT
BRANCH   7  11
HETATM   11  C   UNL     1      17.085  51.749  47.492  1.00  0.00     0.091 A 
HETATM   12  N   UNL     1      16.267  50.713  47.647  1.00  0.00    -0.345 N 
HETATM   13  H   UNL     1      16.033  50.384  48.580  1.00  0.00     0.167 HD
HETATM   14  C   UNL     1      15.713  50.108  46.553  1.00  0.00     0.049 A 
HETATM   15  C   UNL     1      14.836  49.037  46.727  1.00  0.00     0.031 A 
HETATM   16  C   UNL     1      15.982  50.530  45.250  1.00  0.00     0.059 A 
HETATM   17  C   UNL     1      14.243  48.416  45.618  1.00  0.00     0.014 A 
HETATM   18  C   UNL     1      14.511  48.856  44.312  1.00  0.00    -0.022 A 
HETATM   19  C   UNL     1      15.398  49.922  44.132  1.00  0.00     0.031 A 
HETATM   20  C   UNL     1      16.902  51.654  45.101  1.00  0.00     0.259 A 
HETATM   21  O   UNL     1      17.263  52.145  44.051  1.00  0.00    -0.267 OA
HETATM   22  N   UNL     1      17.404  52.204  46.299  1.00  0.00    -0.312 N 
HETATM   23  H   UNL     1      18.020  53.011  46.206  1.00  0.00     0.170 HD
BRANCH  18  24
HETATM   24  C   UNL     1      13.877  48.206  43.179  1.00  0.00     0.010 A 
HETATM   25  C   UNL     1      12.512  47.984  42.884  1.00  0.00     0.152 A 
HETATM   26  N   UNL     1      12.331  47.360  41.719  1.00  0.00    -0.187 NA
HETATM   27  N   UNL     1      13.576  47.181  41.256  1.00  0.00    -0.289 N 
HETATM   28  H   UNL     1      13.695  46.721  40.357  1.00  0.00     0.188 HD
HETATM   29  C   UNL     1      14.540  47.670  42.094  1.00  0.00     0.123 A 
ENDBRANCH  18  24
ENDBRANCH   7  11
BRANCH   1  30
HETATM   30  C   UNL     1      23.299  49.960  48.100  1.00  0.00     0.251 C 
HETATM   31  O   UNL     1      23.543  50.461  47.009  1.00  0.00    -0.268 OA
HETATM   32  N   UNL     1      24.236  49.324  48.884  1.00  0.00    -0.357 N 
HETATM   33  H   UNL     1      24.028  49.152  49.858  1.00  0.00     0.162 HD
BRANCH  32  34
HETATM   34  C   UNL     1      25.624  49.244  48.452  1.00  0.00     0.129 C 
BRANCH  34  35
HETATM   35  C   UNL     1      26.553  48.837  49.591  1.00  0.00     0.079 C 
BRANCH  35  36
HETATM   36  C   UNL     1      26.201  47.476  50.124  1.00  0.00     0.035 A 
HETATM   37  C   UNL     1      26.811  46.332  49.614  1.00  0.00     0.027 A 
HETATM   38  C   UNL     1      26.444  45.091  50.127  1.00  0.00     0.003 A 
HETATM   39  C   UNL     1      25.482  45.024  51.126  1.00  0.00     0.019 A 
HETATM   40  C   UNL     1      24.920  46.208  51.572  1.00  0.00     0.117 A 
HETATM   41  N   UNL     1      25.256  47.427  51.093  1.00  0.00    -0.266 NA
ENDBRANCH  35  36
ENDBRANCH  34  35
ENDBRANCH  32  34
ENDBRANCH   1  30
TORSDOF 6
ENDMDL
MODEL 10
REMARK VINA RESULT:      -9.0      7.662     11.017
REMARK  6 active torsions:
REMARK  status: ('A' for Active; 'I' for Inactive)
REMARK       I    between atoms: C_2  and  N_3 
REMARK    1  A    between atoms: C_2  and  C_12 
REMARK    2  A    between atoms: N_3  and  C_4 
REMARK    3  A    between atoms: C_4  and  C_5 
REMARK    4  A    between atoms: C_5  and  C_6 
REMARK    5  A    between atoms: C_18  and  C_22 
REMARK    6  A    between atoms: C_28  and  C_34 
ROOT
HETATM    1  C   UNL     1      24.982  44.469  42.818  1.00  0.00     0.032 A 
HETATM    2  C   UNL     1      26.053  43.581  42.969  1.00  0.00     0.020 A 
HETATM    3  C   UNL     1      27.086  43.570  42.028  1.00  0.00     0.038 A 
HETATM    4  C   UNL     1      27.055  44.446  40.942  1.00  0.00     0.075 A 
HETATM    5  O   UNL     1      28.153  44.429  40.121  1.00  0.00    -0.350 OA
HETATM    6  C   UNL     1      27.993  45.113  38.871  1.00  0.00     0.188 C 
HETATM    7  C   UNL     1      27.372  46.496  39.044  1.00  0.00     0.082 C 
HETATM    8  C   UNL     1      25.977  46.325  39.647  1.00  0.00     0.056 C 
HETATM    9  C   UNL     1      26.006  45.357  40.793  1.00  0.00    -0.023 A 
HETATM   10  C   UNL     1      24.964  45.353  41.729  1.00  0.00     0.027 A 
ENDROOT
BRANCH   7  11
HETATM   11  C   UNL     1      28.200  47.418  39.891  1.00  0.00     0.091 A 
HETATM   12  N   UNL     1      29.513  47.211  39.920  1.00  0.00    -0.345 N 
HETATM   13  H   UNL     1      29.918  46.444  39.391  1.00  0.00     0.167 HD
HETATM   14  C   UNL     1      30.322  48.049  40.635  1.00  0.00     0.049 A 
HETATM   15  C   UNL     1      31.701  47.838  40.638  1.00  0.00     0.031 A 
HETATM   16  C   UNL     1      29.823  49.130  41.363  1.00  0.00     0.059 A 
HETATM   17  C   UNL     1      32.550  48.699  41.350  1.00  0.00     0.014 A 
HETATM   18  C   UNL     1      32.039  49.790  42.070  1.00  0.00    -0.022 A 
HETATM   19  C   UNL     1      30.656  49.999  42.078  1.00  0.00     0.031 A 
HETATM   20  C   UNL     1      28.376  49.325  41.338  1.00  0.00     0.259 A 
HETATM   21  O   UNL     1      27.764  50.197  41.920  1.00  0.00    -0.267 OA
HETATM   22  N   UNL     1      27.642  48.405  40.560  1.00  0.00    -0.312 N 
HETATM   23  H   UNL     1      26.635  48.554  40.509  1.00  0.00     0.170 HD
BRANCH  18  24
HETATM   24  C   UNL     1      32.936  50.675  42.790  1.00  0.00     0.010 A 
HETATM   25  C   UNL     1      34.282  51.033  42.540  1.00  0.00     0.152 A 
HETATM   26  N   UNL     1      34.759  51.902  43.433  1.00  0.00    -0.187 NA
HETATM   27  N   UNL     1      33.724  52.111  44.259  1.00  0.00    -0.289 N 
HETATM   28  H   UNL     1      33.849  52.757  45.034  1.00  0.00     0.188 HD
HETATM   29  C   UNL     1      32.607  51.399  43.917  1.00  0.00     0.123 A 
ENDBRANCH  18  24
ENDBRANCH   7  11
BRANCH   1  30
HETATM   30  C   UNL     1      23.881  44.563  43.813  1.00  0.00     0.251 C 
HETATM   31  O   UNL     1      22.956  45.341  43.612  1.00  0.00    -0.268 OA
HETATM   32  N   UNL     1      23.963  43.726  44.904  1.00  0.00    -0.357 N 
HETATM   33  H   UNL     1      24.614  42.953  44.885  1.00  0.00     0.162 HD
BRANCH  32  34
HETATM   34  C   UNL     1      22.896  43.702  45.894  1.00  0.00     0.129 C 
BRANCH  34  35
HETATM   35  C   UNL     1      23.211  44.585  47.096  1.00  0.00     0.079 C 
BRANCH  35  36
HETATM   36  C   UNL     1      22.045  45.466  47.449  1.00  0.00     0.035 A 
HETATM   37  C   UNL     1      20.987  44.976  48.212  1.00  0.00     0.027 A 
HETATM   38  C   UNL     1      19.921  45.823  48.501  1.00  0.00     0.003 A 
HETATM   39  C   UNL     1      19.937  47.126  48.023  1.00  0.00     0.019 A 
HETATM   40  C   UNL     1      21.023  47.532  47.267  1.00  0.00     0.117 A 
HETATM   41  N   UNL     1      22.071  46.732  46.969  1.00  0.00    -0.266 NA
ENDBRANCH  35  36
ENDBRANCH  34  35
ENDBRANCH  32  34
ENDBRANCH   1  30
TORSDOF 6
ENDMDL
