MODEL 1
REMARK VINA RESULT:      -8.9      0.000      0.000
REMARK  7 active torsions:
REMARK  status: ('A' for Active; 'I' for Inactive)
REMARK    1  A    between atoms: C_3  and  C_4 
REMARK    2  A    between atoms: C_4  and  N_5 
REMARK    3  A    between atoms: N_5  and  C_6 
REMARK    4  A    between atoms: C_13  and  C_14 
REMARK       I    between atoms: C_14  and  N_15 
REMARK    5  A    between atoms: C_19  and  O_20 
REMARK    6  A    between atoms: O_20  and  C_21 
REMARK    7  A    between atoms: C_21  and  C_22 
ROOT
HETATM    1  C   UNL     1      28.646  41.887  52.798  1.00  0.00     0.029 A 
HETATM    2  C   UNL     1      29.050  40.643  52.280  1.00  0.00     0.045 A 
HETATM    3  C   UNL     1      28.507  40.155  51.074  1.00  0.00     0.030 A 
HETATM    4  C   UNL     1      27.556  40.920  50.415  1.00  0.00     0.063 A 
HETATM    5  N   UNL     1      27.224  40.205  49.300  1.00  0.00    -0.277 N 
HETATM    6  H   UNL     1      26.556  40.464  48.583  1.00  0.00     0.189 HD
HETATM    7  N   UNL     1      27.862  39.028  49.182  1.00  0.00    -0.168 NA
HETATM    8  C   UNL     1      28.659  38.983  50.274  1.00  0.00     0.156 A 
HETATM    9  C   UNL     1      27.105  42.148  50.900  1.00  0.00     0.034 A 
HETATM   10  C   UNL     1      27.657  42.599  52.110  1.00  0.00     0.031 A 
ENDROOT
BRANCH   1  11
HETATM   11  N   UNL     1      29.163  42.278  54.029  1.00  0.00    -0.386 N 
HETATM   12  H   UNL     1      28.953  41.645  54.793  1.00  0.00     0.160 HD
BRANCH  11  13
HETATM   13  C   UNL     1      30.410  43.020  54.184  1.00  0.00     0.161 C 
BRANCH  13  14
HETATM   14  C   UNL     1      30.509  43.808  55.476  1.00  0.00    -0.007 A 
HETATM   15  C   UNL     1      31.336  43.377  56.530  1.00  0.00     0.011 A 
HETATM   16  C   UNL     1      31.392  44.081  57.731  1.00  0.00     0.001 A 
HETATM   17  C   UNL     1      30.609  45.216  57.908  1.00  0.00     0.003 A 
HETATM   18  C   UNL     1      29.767  45.651  56.881  1.00  0.00     0.037 A 
HETATM   19  C   UNL     1      29.715  44.958  55.667  1.00  0.00     0.076 A 
BRANCH  19  20
HETATM   20  O   UNL     1      28.900  45.305  54.621  1.00  0.00    -0.350 OA
BRANCH  20  21
HETATM   21  C   UNL     1      27.549  45.647  54.921  1.00  0.00     0.180 C 
BRANCH  21  22
HETATM   22  C   UNL     1      27.323  47.053  54.454  1.00  0.00     0.010 A 
HETATM   23  C   UNL     1      25.938  47.545  54.121  1.00  0.00     0.007 A 
HETATM   24  C   UNL     1      26.638  48.053  55.352  1.00  0.00     0.007 A 
ENDBRANCH  21  22
ENDBRANCH  20  21
ENDBRANCH  19  20
ENDBRANCH  13  14
ENDBRANCH  11  13
ENDBRANCH   1  11
BRANCH   8  25
HETATM   25  C   UNL     1      29.534  37.832  50.537  1.00  0.00     0.270 C 
HETATM   26  N   UNL     1      28.867  36.695  50.901  1.00  0.00    -0.365 N 
HETATM   27  H   UNL     1      27.856  36.729  50.971  1.00  0.00     0.159 HD
HETATM   28  H   UNL     1      29.382  35.859  51.121  1.00  0.00     0.159 HD
HETATM   29  O   UNL     1      30.758  37.852  50.452  1.00  0.00    -0.266 OA
ENDBRANCH   8  25
TORSDOF 7
ENDMDL
MODEL 2
REMARK VINA RESULT:      -8.8      3.198      4.667
REMARK  7 active torsions:
REMARK  status: ('A' for Active; 'I' for Inactive)
REMARK    1  A    between atoms: C_3  and  C_4 
REMARK    2  A    between atoms: C_4  and  N_5 
REMARK    3  A    between atoms: N_5  and  C_6 
REMARK    4  A    between atoms: C_13  and  C_14 
REMARK       I    between atoms: C_14  and  N_15 
REMARK    5  A    between atoms: C_19  and  O_20 
REMARK    6  A    between atoms: O_20  and  C_21 
REMARK    7  A    between atoms: C_21  and  C_22 
ROOT
HETATM    1  C   UNL     1      27.768  43.464  52.767  1.00  0.00     0.029 A 
HETATM    2  C   UNL     1      27.223  44.678  52.308  1.00  0.00     0.045 A 
HETATM    3  C   UNL     1      26.594  44.755  51.050  1.00  0.00     0.030 A 
HETATM    4  C   UNL     1      26.533  43.612  50.266  1.00  0.00     0.063 A 
HETATM    5  N   UNL     1      25.877  43.987  49.127  1.00  0.00    -0.277 N 
HETATM    6  H   UNL     1      25.652  43.403  48.330  1.00  0.00     0.189 HD
HETATM    7  N   UNL     1      25.519  45.281  49.091  1.00  0.00    -0.168 NA
HETATM    8  C   UNL     1      25.959  45.770  50.274  1.00  0.00     0.156 A 
HETATM    9  C   UNL     1      27.079  42.392  50.664  1.00  0.00     0.034 A 
HETATM   10  C   UNL     1      27.710  42.352  51.918  1.00  0.00     0.031 A 
ENDROOT
BRANCH   1  11
HETATM   11  N   UNL     1      28.441  43.472  53.984  1.00  0.00    -0.386 N 
HETATM   12  H   UNL     1      27.990  42.935  54.717  1.00  0.00     0.160 HD
BRANCH  11  13
HETATM   13  C   UNL     1      29.893  43.559  54.105  1.00  0.00     0.161 C 
BRANCH  13  14
HETATM   14  C   UNL     1      30.379  43.985  55.477  1.00  0.00    -0.007 A 
HETATM   15  C   UNL     1      31.217  43.153  56.242  1.00  0.00     0.011 A 
HETATM   16  C   UNL     1      31.627  43.529  57.520  1.00  0.00     0.001 A 
HETATM   17  C   UNL     1      31.191  44.732  58.064  1.00  0.00     0.003 A 
HETATM   18  C   UNL     1      30.342  45.564  57.329  1.00  0.00     0.037 A 
HETATM   19  C   UNL     1      29.937  45.200  56.040  1.00  0.00     0.076 A 
BRANCH  19  20
HETATM   20  O   UNL     1      29.090  45.947  55.264  1.00  0.00    -0.350 OA
BRANCH  20  21
HETATM   21  C   UNL     1      27.932  46.497  55.890  1.00  0.00     0.180 C 
BRANCH  21  22
HETATM   22  C   UNL     1      27.477  47.660  55.062  1.00  0.00     0.010 A 
HETATM   23  C   UNL     1      26.096  47.687  54.458  1.00  0.00     0.007 A 
HETATM   24  C   UNL     1      26.437  48.613  55.594  1.00  0.00     0.007 A 
ENDBRANCH  21  22
ENDBRANCH  20  21
ENDBRANCH  19  20
ENDBRANCH  13  14
ENDBRANCH  11  13
ENDBRANCH   1  11
BRANCH   8  25
HETATM   25  C   UNL     1      25.773  47.182  50.636  1.00  0.00     0.270 C 
HETATM   26  N   UNL     1      26.689  48.028  50.071  1.00  0.00    -0.365 N 
HETATM   27  H   UNL     1      27.409  47.633  49.476  1.00  0.00     0.159 HD
HETATM   28  H   UNL     1      26.656  49.013  50.276  1.00  0.00     0.159 HD
HETATM   29  O   UNL     1      24.891  47.603  51.377  1.00  0.00    -0.266 OA
ENDBRANCH   8  25
TORSDOF 7
ENDMDL
MODEL 3
REMARK VINA RESULT:      -8.4      5.496      8.203
REMARK  7 active torsions:
REMARK  status: ('A' for Active; 'I' for Inactive)
REMARK    1  A    between atoms: C_3  and  C_4 
REMARK    2  A    between atoms: C_4  and  N_5 
REMARK    3  A    between atoms: N_5  and  C_6 
REMARK    4  A    between atoms: C_13  and  C_14 
REMARK       I    between atoms: C_14  and  N_15 
REMARK    5  A    between atoms: C_19  and  O_20 
REMARK    6  A    between atoms: O_20  and  C_21 
REMARK    7  A    between atoms: C_21  and  C_22 
ROOT
HETATM    1  C   UNL     1      25.926  47.156  50.174  1.00  0.00     0.029 A 
HETATM    2  C   UNL     1      24.604  47.367  49.740  1.00  0.00     0.045 A 
HETATM    3  C   UNL     1      24.286  48.457  48.906  1.00  0.00     0.030 A 
HETATM    4  C   UNL     1      25.300  49.327  48.531  1.00  0.00     0.063 A 
HETATM    5  N   UNL     1      24.701  50.263  47.738  1.00  0.00    -0.277 N 
HETATM    6  H   UNL     1      25.144  51.054  47.284  1.00  0.00     0.189 HD
HETATM    7  N   UNL     1      23.378  50.092  47.575  1.00  0.00    -0.168 NA
HETATM    8  C   UNL     1      23.107  48.978  48.294  1.00  0.00     0.156 A 
HETATM    9  C   UNL     1      26.620  49.175  48.956  1.00  0.00     0.034 A 
HETATM   10  C   UNL     1      26.901  48.086  49.796  1.00  0.00     0.031 A 
ENDROOT
BRANCH   1  11
HETATM   11  N   UNL     1      26.161  46.107  51.056  1.00  0.00    -0.386 N 
HETATM   12  H   UNL     1      27.121  45.778  51.072  1.00  0.00     0.160 HD
BRANCH  11  13
HETATM   13  C   UNL     1      25.441  45.928  52.312  1.00  0.00     0.161 C 
BRANCH  13  14
HETATM   14  C   UNL     1      26.225  46.336  53.544  1.00  0.00    -0.007 A 
HETATM   15  C   UNL     1      26.001  47.576  54.172  1.00  0.00     0.011 A 
HETATM   16  C   UNL     1      26.753  47.966  55.278  1.00  0.00     0.001 A 
HETATM   17  C   UNL     1      27.756  47.134  55.764  1.00  0.00     0.003 A 
HETATM   18  C   UNL     1      28.008  45.907  55.145  1.00  0.00     0.037 A 
HETATM   19  C   UNL     1      27.248  45.502  54.042  1.00  0.00     0.076 A 
BRANCH  19  20
HETATM   20  O   UNL     1      27.446  44.327  53.365  1.00  0.00    -0.350 OA
BRANCH  20  21
HETATM   21  C   UNL     1      27.567  43.133  54.135  1.00  0.00     0.180 C 
BRANCH  21  22
HETATM   22  C   UNL     1      28.837  42.454  53.721  1.00  0.00     0.010 A 
HETATM   23  C   UNL     1      29.854  43.168  52.869  1.00  0.00     0.007 A 
HETATM   24  C   UNL     1      30.157  42.879  54.314  1.00  0.00     0.007 A 
ENDBRANCH  21  22
ENDBRANCH  20  21
ENDBRANCH  19  20
ENDBRANCH  13  14
ENDBRANCH  11  13
ENDBRANCH   1  11
BRANCH   8  25
HETATM   25  C   UNL     1      21.742  48.442  48.390  1.00  0.00     0.270 C 
HETATM   26  N   UNL     1      21.112  48.729  49.570  1.00  0.00    -0.365 N 
HETATM   27  H   UNL     1      21.616  49.261  50.270  1.00  0.00     0.159 HD
HETATM   28  H   UNL     1      20.180  48.387  49.737  1.00  0.00     0.159 HD
HETATM   29  O   UNL     1      21.185  47.788  47.513  1.00  0.00    -0.266 OA
ENDBRANCH   8  25
TORSDOF 7
ENDMDL
MODEL 4
REMARK VINA RESULT:      -8.4      4.662      7.742
REMARK  7 active torsions:
REMARK  status: ('A' for Active; 'I' for Inactive)
REMARK    1  A    between atoms: C_3  and  C_4 
REMARK    2  A    between atoms: C_4  and  N_5 
REMARK    3  A    between atoms: N_5  and  C_6 
REMARK    4  A    between atoms: C_13  and  C_14 
REMARK       I    between atoms: C_14  and  N_15 
REMARK    5  A    between atoms: C_19  and  O_20 
REMARK    6  A    between atoms: O_20  and  C_21 
REMARK    7  A    between atoms: C_21  and  C_22 
ROOT
HETATM    1  C   UNL     1      26.036  46.516  53.016  1.00  0.00     0.029 A 
HETATM    2  C   UNL     1      26.780  45.322  52.960  1.00  0.00     0.045 A 
HETATM    3  C   UNL     1      27.818  45.076  53.881  1.00  0.00     0.030 A 
HETATM    4  C   UNL     1      28.100  46.041  54.838  1.00  0.00     0.063 A 
HETATM    5  N   UNL     1      29.131  45.530  55.575  1.00  0.00    -0.277 N 
HETATM    6  H   UNL     1      29.594  45.967  56.364  1.00  0.00     0.189 HD
HETATM    7  N   UNL     1      29.560  44.322  55.171  1.00  0.00    -0.168 NA
HETATM    8  C   UNL     1      28.757  44.030  54.122  1.00  0.00     0.156 A 
HETATM    9  C   UNL     1      27.408  47.249  54.920  1.00  0.00     0.034 A 
HETATM   10  C   UNL     1      26.389  47.468  53.979  1.00  0.00     0.031 A 
ENDROOT
BRANCH   1  11
HETATM   11  N   UNL     1      25.077  46.731  52.033  1.00  0.00    -0.386 N 
HETATM   12  H   UNL     1      24.448  47.505  52.221  1.00  0.00     0.160 HD
BRANCH  11  13
HETATM   13  C   UNL     1      25.296  46.461  50.615  1.00  0.00     0.161 C 
BRANCH  13  14
HETATM   14  C   UNL     1      25.783  47.658  49.821  1.00  0.00    -0.007 A 
HETATM   15  C   UNL     1      27.156  47.940  49.699  1.00  0.00     0.011 A 
HETATM   16  C   UNL     1      27.599  49.064  49.005  1.00  0.00     0.001 A 
HETATM   17  C   UNL     1      26.676  49.937  48.438  1.00  0.00     0.003 A 
HETATM   18  C   UNL     1      25.308  49.687  48.564  1.00  0.00     0.037 A 
HETATM   19  C   UNL     1      24.856  48.553  49.248  1.00  0.00     0.076 A 
BRANCH  19  20
HETATM   20  O   UNL     1      23.533  48.248  49.435  1.00  0.00    -0.350 OA
BRANCH  20  21
HETATM   21  C   UNL     1      22.610  48.669  48.434  1.00  0.00     0.180 C 
BRANCH  21  22
HETATM   22  C   UNL     1      21.584  49.535  49.098  1.00  0.00     0.010 A 
HETATM   23  C   UNL     1      21.975  50.839  49.747  1.00  0.00     0.007 A 
HETATM   24  C   UNL     1      21.173  50.845  48.474  1.00  0.00     0.007 A 
ENDBRANCH  21  22
ENDBRANCH  20  21
ENDBRANCH  19  20
ENDBRANCH  13  14
ENDBRANCH  11  13
ENDBRANCH   1  11
BRANCH   8  25
HETATM   25  C   UNL     1      28.904  42.775  53.372  1.00  0.00     0.270 C 
HETATM   26  N   UNL     1      30.157  42.576  52.858  1.00  0.00    -0.365 N 
HETATM   27  H   UNL     1      30.863  43.286  53.016  1.00  0.00     0.159 HD
HETATM   28  H   UNL     1      30.350  41.753  52.311  1.00  0.00     0.159 HD
HETATM   29  O   UNL     1      28.007  41.956  53.197  1.00  0.00    -0.266 OA
ENDBRANCH   8  25
TORSDOF 7
ENDMDL
MODEL 5
REMARK VINA RESULT:      -8.3      1.441      1.776
REMARK  7 active torsions:
REMARK  status: ('A' for Active; 'I' for Inactive)
REMARK    1  A    between atoms: C_3  and  C_4 
REMARK    2  A    between atoms: C_4  and  N_5 
REMARK    3  A    between atoms: N_5  and  C_6 
REMARK    4  A    between atoms: C_13  and  C_14 
REMARK       I    between atoms: C_14  and  N_15 
REMARK    5  A    between atoms: C_19  and  O_20 
REMARK    6  A    between atoms: O_20  and  C_21 
REMARK    7  A    between atoms: C_21  and  C_22 
ROOT
HETATM    1  C   UNL     1      27.702  41.842  51.534  1.00  0.00     0.029 A 
HETATM    2  C   UNL     1      28.370  40.634  51.256  1.00  0.00     0.045 A 
HETATM    3  C   UNL     1      27.797  39.676  50.396  1.00  0.00     0.030 A 
HETATM    4  C   UNL     1      26.555  39.942  49.837  1.00  0.00     0.063 A 
HETATM    5  N   UNL     1      26.265  38.855  49.063  1.00  0.00    -0.277 N 
HETATM    6  H   UNL     1      25.433  38.707  48.503  1.00  0.00     0.189 HD
HETATM    7  N   UNL     1      27.202  37.892  49.080  1.00  0.00    -0.168 NA
HETATM    8  C   UNL     1      28.156  38.386  49.903  1.00  0.00     0.156 A 
HETATM    9  C   UNL     1      25.843  41.112  50.101  1.00  0.00     0.034 A 
HETATM   10  C   UNL     1      26.436  42.040  50.972  1.00  0.00     0.031 A 
ENDROOT
BRANCH   1  11
HETATM   11  N   UNL     1      28.285  42.711  52.449  1.00  0.00    -0.386 N 
HETATM   12  H   UNL     1      28.047  43.688  52.312  1.00  0.00     0.160 HD
BRANCH  11  13
HETATM   13  C   UNL     1      28.584  42.350  53.832  1.00  0.00     0.161 C 
BRANCH  13  14
HETATM   14  C   UNL     1      29.213  43.465  54.645  1.00  0.00    -0.007 A 
HETATM   15  C   UNL     1      30.503  43.329  55.191  1.00  0.00     0.011 A 
HETATM   16  C   UNL     1      31.060  44.338  55.974  1.00  0.00     0.001 A 
HETATM   17  C   UNL     1      30.332  45.492  56.241  1.00  0.00     0.003 A 
HETATM   18  C   UNL     1      29.043  45.640  55.724  1.00  0.00     0.037 A 
HETATM   19  C   UNL     1      28.480  44.637  54.926  1.00  0.00     0.076 A 
BRANCH  19  20
HETATM   20  O   UNL     1      27.216  44.694  54.401  1.00  0.00    -0.350 OA
BRANCH  20  21
HETATM   21  C   UNL     1      26.744  45.963  53.951  1.00  0.00     0.180 C 
BRANCH  21  22
HETATM   22  C   UNL     1      26.382  45.825  52.504  1.00  0.00     0.010 A 
HETATM   23  C   UNL     1      25.017  45.336  52.091  1.00  0.00     0.007 A 
HETATM   24  C   UNL     1      25.397  46.776  51.872  1.00  0.00     0.007 A 
ENDBRANCH  21  22
ENDBRANCH  20  21
ENDBRANCH  19  20
ENDBRANCH  13  14
ENDBRANCH  11  13
ENDBRANCH   1  11
BRANCH   8  25
HETATM   25  C   UNL     1      29.375  37.624  50.207  1.00  0.00     0.270 C 
HETATM   26  N   UNL     1      29.181  36.585  51.076  1.00  0.00    -0.365 N 
HETATM   27  H   UNL     1      28.249  36.429  51.442  1.00  0.00     0.159 HD
HETATM   28  H   UNL     1      29.961  36.017  51.361  1.00  0.00     0.159 HD
HETATM   29  O   UNL     1      30.485  37.869  49.746  1.00  0.00    -0.266 OA
ENDBRANCH   8  25
TORSDOF 7
ENDMDL
MODEL 6
REMARK VINA RESULT:      -7.8      1.366      3.675
REMARK  7 active torsions:
REMARK  status: ('A' for Active; 'I' for Inactive)
REMARK    1  A    between atoms: C_3  and  C_4 
REMARK    2  A    between atoms: C_4  and  N_5 
REMARK    3  A    between atoms: N_5  and  C_6 
REMARK    4  A    between atoms: C_13  and  C_14 
REMARK       I    between atoms: C_14  and  N_15 
REMARK    5  A    between atoms: C_19  and  O_20 
REMARK    6  A    between atoms: O_20  and  C_21 
REMARK    7  A    between atoms: C_21  and  C_22 
ROOT
HETATM    1  C   UNL     1      27.222  41.637  51.057  1.00  0.00     0.029 A 
HETATM    2  C   UNL     1      28.089  40.532  50.967  1.00  0.00     0.045 A 
HETATM    3  C   UNL     1      27.783  39.442  50.127  1.00  0.00     0.030 A 
HETATM    4  C   UNL     1      26.602  39.476  49.399  1.00  0.00     0.063 A 
HETATM    5  N   UNL     1      26.580  38.308  48.690  1.00  0.00    -0.277 N 
HETATM    6  H   UNL     1      25.862  37.996  48.047  1.00  0.00     0.189 HD
HETATM    7  N   UNL     1      27.636  37.505  48.905  1.00  0.00    -0.168 NA
HETATM    8  C   UNL     1      28.388  38.194  49.795  1.00  0.00     0.156 A 
HETATM    9  C   UNL     1      25.699  40.536  49.472  1.00  0.00     0.034 A 
HETATM   10  C   UNL     1      26.028  41.599  50.328  1.00  0.00     0.031 A 
ENDROOT
BRANCH   1  11
HETATM   11  N   UNL     1      27.544  42.644  51.960  1.00  0.00    -0.386 N 
HETATM   12  H   UNL     1      28.253  42.390  52.639  1.00  0.00     0.160 HD
BRANCH  11  13
HETATM   13  C   UNL     1      27.502  44.066  51.635  1.00  0.00     0.161 C 
BRANCH  13  14
HETATM   14  C   UNL     1      27.259  44.972  52.827  1.00  0.00    -0.007 A 
HETATM   15  C   UNL     1      26.174  45.867  52.851  1.00  0.00     0.011 A 
HETATM   16  C   UNL     1      25.978  46.728  53.929  1.00  0.00     0.001 A 
HETATM   17  C   UNL     1      26.874  46.723  54.993  1.00  0.00     0.003 A 
HETATM   18  C   UNL     1      27.969  45.855  54.980  1.00  0.00     0.037 A 
HETATM   19  C   UNL     1      28.165  44.978  53.907  1.00  0.00     0.076 A 
BRANCH  19  20
HETATM   20  O   UNL     1      29.223  44.114  53.808  1.00  0.00    -0.350 OA
BRANCH  20  21
HETATM   21  C   UNL     1      29.483  43.257  54.919  1.00  0.00     0.180 C 
BRANCH  21  22
HETATM   22  C   UNL     1      30.838  43.607  55.453  1.00  0.00     0.010 A 
HETATM   23  C   UNL     1      30.993  44.586  56.589  1.00  0.00     0.007 A 
HETATM   24  C   UNL     1      31.267  43.124  56.816  1.00  0.00     0.007 A 
ENDBRANCH  21  22
ENDBRANCH  20  21
ENDBRANCH  19  20
ENDBRANCH  13  14
ENDBRANCH  11  13
ENDBRANCH   1  11
BRANCH   8  25
HETATM   25  C   UNL     1      29.653  37.652  50.311  1.00  0.00     0.270 C 
HETATM   26  N   UNL     1      29.510  36.863  51.420  1.00  0.00    -0.365 N 
HETATM   27  H   UNL     1      28.579  36.724  51.797  1.00  0.00     0.159 HD
HETATM   28  H   UNL     1      30.322  36.461  51.859  1.00  0.00     0.159 HD
HETATM   29  O   UNL     1      30.757  37.867  49.821  1.00  0.00    -0.266 OA
ENDBRANCH   8  25
TORSDOF 7
ENDMDL
MODEL 7
REMARK VINA RESULT:      -7.8      2.523      7.306
REMARK  7 active torsions:
REMARK  status: ('A' for Active; 'I' for Inactive)
REMARK    1  A    between atoms: C_3  and  C_4 
REMARK    2  A    between atoms: C_4  and  N_5 
REMARK    3  A    between atoms: N_5  and  C_6 
REMARK    4  A    between atoms: C_13  and  C_14 
REMARK       I    between atoms: C_14  and  N_15 
REMARK    5  A    between atoms: C_19  and  O_20 
REMARK    6  A    between atoms: O_20  and  C_21 
REMARK    7  A    between atoms: C_21  and  C_22 
ROOT
HETATM    1  C   UNL     1      29.741  42.950  53.586  1.00  0.00     0.029 A 
HETATM    2  C   UNL     1      28.683  43.877  53.530  1.00  0.00     0.045 A 
HETATM    3  C   UNL     1      28.560  44.889  54.503  1.00  0.00     0.030 A 
HETATM    4  C   UNL     1      29.498  44.947  55.524  1.00  0.00     0.063 A 
HETATM    5  N   UNL     1      29.128  46.011  56.296  1.00  0.00    -0.277 N 
HETATM    6  H   UNL     1      29.589  46.350  57.132  1.00  0.00     0.189 HD
HETATM    7  N   UNL     1      28.019  46.644  55.878  1.00  0.00    -0.168 NA
HETATM    8  C   UNL     1      27.655  45.959  54.770  1.00  0.00     0.156 A 
HETATM    9  C   UNL     1      30.550  44.038  55.637  1.00  0.00     0.034 A 
HETATM   10  C   UNL     1      30.636  43.034  54.659  1.00  0.00     0.031 A 
ENDROOT
BRANCH   1  11
HETATM   11  N   UNL     1      29.763  41.931  52.640  1.00  0.00    -0.386 N 
HETATM   12  H   UNL     1      30.692  41.598  52.403  1.00  0.00     0.160 HD
BRANCH  11  13
HETATM   13  C   UNL     1      28.709  40.931  52.503  1.00  0.00     0.161 C 
BRANCH  13  14
HETATM   14  C   UNL     1      28.415  40.527  51.072  1.00  0.00    -0.007 A 
HETATM   15  C   UNL     1      28.833  39.282  50.566  1.00  0.00     0.011 A 
HETATM   16  C   UNL     1      28.598  38.933  49.237  1.00  0.00     0.001 A 
HETATM   17  C   UNL     1      27.960  39.828  48.386  1.00  0.00     0.003 A 
HETATM   18  C   UNL     1      27.554  41.077  48.863  1.00  0.00     0.037 A 
HETATM   19  C   UNL     1      27.774  41.431  50.199  1.00  0.00     0.076 A 
BRANCH  19  20
HETATM   20  O   UNL     1      27.427  42.642  50.738  1.00  0.00    -0.350 OA
BRANCH  20  21
HETATM   21  C   UNL     1      26.043  42.989  50.748  1.00  0.00     0.180 C 
BRANCH  21  22
HETATM   22  C   UNL     1      25.950  44.483  50.700  1.00  0.00     0.010 A 
HETATM   23  C   UNL     1      26.954  45.296  49.923  1.00  0.00     0.007 A 
HETATM   24  C   UNL     1      25.538  45.180  49.428  1.00  0.00     0.007 A 
ENDBRANCH  21  22
ENDBRANCH  20  21
ENDBRANCH  19  20
ENDBRANCH  13  14
ENDBRANCH  11  13
ENDBRANCH   1  11
BRANCH   8  25
HETATM   25  C   UNL     1      26.460  46.328  53.998  1.00  0.00     0.270 C 
HETATM   26  N   UNL     1      25.404  45.475  54.164  1.00  0.00    -0.365 N 
HETATM   27  H   UNL     1      25.520  44.674  54.775  1.00  0.00     0.159 HD
HETATM   28  H   UNL     1      24.546  45.634  53.660  1.00  0.00     0.159 HD
HETATM   29  O   UNL     1      26.380  47.304  53.258  1.00  0.00    -0.266 OA
ENDBRANCH   8  25
TORSDOF 7
ENDMDL
MODEL 8
REMARK VINA RESULT:      -7.8      5.563      8.855
REMARK  7 active torsions:
REMARK  status: ('A' for Active; 'I' for Inactive)
REMARK    1  A    between atoms: C_3  and  C_4 
REMARK    2  A    between atoms: C_4  and  N_5 
REMARK    3  A    between atoms: N_5  and  C_6 
REMARK    4  A    between atoms: C_13  and  C_14 
REMARK       I    between atoms: C_14  and  N_15 
REMARK    5  A    between atoms: C_19  and  O_20 
REMARK    6  A    between atoms: O_20  and  C_21 
REMARK    7  A    between atoms: C_21  and  C_22 
ROOT
HETATM    1  C   UNL     1      26.045  47.487  50.443  1.00  0.00     0.029 A 
HETATM    2  C   UNL     1      24.698  47.671  50.079  1.00  0.00     0.045 A 
HETATM    3  C   UNL     1      24.339  48.623  49.104  1.00  0.00     0.030 A 
HETATM    4  C   UNL     1      25.339  49.386  48.519  1.00  0.00     0.063 A 
HETATM    5  N   UNL     1      24.700  50.203  47.630  1.00  0.00    -0.277 N 
HETATM    6  H   UNL     1      25.123  50.895  47.022  1.00  0.00     0.189 HD
HETATM    7  N   UNL     1      23.365  50.053  47.596  1.00  0.00    -0.168 NA
HETATM    8  C   UNL     1      23.127  49.080  48.505  1.00  0.00     0.156 A 
HETATM    9  C   UNL     1      26.685  49.259  48.863  1.00  0.00     0.034 A 
HETATM   10  C   UNL     1      27.007  48.310  49.846  1.00  0.00     0.031 A 
ENDROOT
BRANCH   1  11
HETATM   11  N   UNL     1      26.326  46.586  51.464  1.00  0.00    -0.386 N 
HETATM   12  H   UNL     1      27.017  46.909  52.132  1.00  0.00     0.160 HD
BRANCH  11  13
HETATM   13  C   UNL     1      25.346  45.653  52.012  1.00  0.00     0.161 C 
BRANCH  13  14
HETATM   14  C   UNL     1      25.422  44.255  51.427  1.00  0.00    -0.007 A 
HETATM   15  C   UNL     1      24.372  43.735  50.647  1.00  0.00     0.011 A 
HETATM   16  C   UNL     1      24.425  42.435  50.148  1.00  0.00     0.001 A 
HETATM   17  C   UNL     1      25.519  41.626  50.435  1.00  0.00     0.003 A 
HETATM   18  C   UNL     1      26.563  42.116  51.223  1.00  0.00     0.037 A 
HETATM   19  C   UNL     1      26.523  43.425  51.718  1.00  0.00     0.076 A 
BRANCH  19  20
HETATM   20  O   UNL     1      27.494  43.972  52.515  1.00  0.00    -0.350 OA
BRANCH  20  21
HETATM   21  C   UNL     1      27.615  43.474  53.846  1.00  0.00     0.180 C 
BRANCH  21  22
HETATM   22  C   UNL     1      28.859  42.643  53.908  1.00  0.00     0.010 A 
HETATM   23  C   UNL     1      30.033  42.938  53.009  1.00  0.00     0.007 A 
HETATM   24  C   UNL     1      30.130  43.215  54.484  1.00  0.00     0.007 A 
ENDBRANCH  21  22
ENDBRANCH  20  21
ENDBRANCH  19  20
ENDBRANCH  13  14
ENDBRANCH  11  13
ENDBRANCH   1  11
BRANCH   8  25
HETATM   25  C   UNL     1      21.762  48.613  48.788  1.00  0.00     0.270 C 
HETATM   26  N   UNL     1      21.056  49.432  49.626  1.00  0.00    -0.365 N 
HETATM   27  H   UNL     1      21.510  50.264  49.986  1.00  0.00     0.159 HD
HETATM   28  H   UNL     1      20.117  49.186  49.895  1.00  0.00     0.159 HD
HETATM   29  O   UNL     1      21.268  47.585  48.336  1.00  0.00    -0.266 OA
ENDBRANCH   8  25
TORSDOF 7
ENDMDL
MODEL 9
REMARK VINA RESULT:      -7.7      8.044     11.339
REMARK  7 active torsions:
REMARK  status: ('A' for Active; 'I' for Inactive)
REMARK    1  A    between atoms: C_3  and  C_4 
REMARK    2  A    between atoms: C_4  and  N_5 
REMARK    3  A    between atoms: N_5  and  C_6 
REMARK    4  A    between atoms: C_13  and  C_14 
REMARK       I    between atoms: C_14  and  N_15 
REMARK    5  A    between atoms: C_19  and  O_20 
REMARK    6  A    between atoms: O_20  and  C_21 
REMARK    7  A    between atoms: C_21  and  C_22 
ROOT
HETATM    1  C   UNL     1      23.554  49.051  49.256  1.00  0.00     0.029 A 
HETATM    2  C   UNL     1      24.343  47.938  49.603  1.00  0.00     0.045 A 
HETATM    3  C   UNL     1      25.731  47.934  49.354  1.00  0.00     0.030 A 
HETATM    4  C   UNL     1      26.301  49.045  48.750  1.00  0.00     0.063 A 
HETATM    5  N   UNL     1      27.632  48.756  48.642  1.00  0.00    -0.277 N 
HETATM    6  H   UNL     1      28.356  49.346  48.248  1.00  0.00     0.189 HD
HETATM    7  N   UNL     1      27.979  47.545  49.108  1.00  0.00    -0.168 NA
HETATM    8  C   UNL     1      26.811  47.023  49.551  1.00  0.00     0.156 A 
HETATM    9  C   UNL     1      25.558  50.161  48.365  1.00  0.00     0.034 A 
HETATM   10  C   UNL     1      24.177  50.128  48.616  1.00  0.00     0.031 A 
ENDROOT
BRANCH   1  11
HETATM   11  N   UNL     1      22.181  48.962  49.459  1.00  0.00    -0.386 N 
HETATM   12  H   UNL     1      21.874  49.235  50.387  1.00  0.00     0.160 HD
BRANCH  11  13
HETATM   13  C   UNL     1      21.192  49.180  48.408  1.00  0.00     0.161 C 
BRANCH  13  14
HETATM   14  C   UNL     1      20.170  50.253  48.726  1.00  0.00    -0.007 A 
HETATM   15  C   UNL     1      20.202  51.503  48.080  1.00  0.00     0.011 A 
HETATM   16  C   UNL     1      19.287  52.503  48.406  1.00  0.00     0.001 A 
HETATM   17  C   UNL     1      18.337  52.278  49.396  1.00  0.00     0.003 A 
HETATM   18  C   UNL     1      18.300  51.052  50.064  1.00  0.00     0.037 A 
HETATM   19  C   UNL     1      19.207  50.038  49.733  1.00  0.00     0.076 A 
BRANCH  19  20
HETATM   20  O   UNL     1      19.251  48.817  50.354  1.00  0.00    -0.350 OA
BRANCH  20  21
HETATM   21  C   UNL     1      18.071  48.017  50.323  1.00  0.00     0.180 C 
BRANCH  21  22
HETATM   22  C   UNL     1      17.767  47.714  48.887  1.00  0.00     0.010 A 
HETATM   23  C   UNL     1      16.836  46.588  48.515  1.00  0.00     0.007 A 
HETATM   24  C   UNL     1      16.403  48.016  48.318  1.00  0.00     0.007 A 
ENDBRANCH  21  22
ENDBRANCH  20  21
ENDBRANCH  19  20
ENDBRANCH  13  14
ENDBRANCH  11  13
ENDBRANCH   1  11
BRANCH   8  25
HETATM   25  C   UNL     1      26.747  45.678  50.139  1.00  0.00     0.270 C 
HETATM   26  N   UNL     1      26.337  45.659  51.444  1.00  0.00    -0.365 N 
HETATM   27  H   UNL     1      26.126  46.541  51.897  1.00  0.00     0.159 HD
HETATM   28  H   UNL     1      26.280  44.785  51.940  1.00  0.00     0.159 HD
HETATM   29  O   UNL     1      27.030  44.642  49.545  1.00  0.00    -0.266 OA
ENDBRANCH   8  25
TORSDOF 7
ENDMDL
MODEL 10
REMARK VINA RESULT:      -7.7      2.496      3.827
REMARK  7 active torsions:
REMARK  status: ('A' for Active; 'I' for Inactive)
REMARK    1  A    between atoms: C_3  and  C_4 
REMARK    2  A    between atoms: C_4  and  N_5 
REMARK    3  A    between atoms: N_5  and  C_6 
REMARK    4  A    between atoms: C_13  and  C_14 
REMARK       I    between atoms: C_14  and  N_15 
REMARK    5  A    between atoms: C_19  and  O_20 
REMARK    6  A    between atoms: O_20  and  C_21 
REMARK    7  A    between atoms: C_21  and  C_22 
ROOT
HETATM    1  C   UNL     1      28.080  41.691  51.552  1.00  0.00     0.029 A 
HETATM    2  C   UNL     1      26.955  42.413  51.111  1.00  0.00     0.045 A 
HETATM    3  C   UNL     1      26.052  41.847  50.189  1.00  0.00     0.030 A 
HETATM    4  C   UNL     1      26.300  40.566  49.716  1.00  0.00     0.063 A 
HETATM    5  N   UNL     1      25.273  40.291  48.858  1.00  0.00    -0.277 N 
HETATM    6  H   UNL     1      25.130  39.439  48.329  1.00  0.00     0.189 HD
HETATM    7  N   UNL     1      24.384  41.288  48.716  1.00  0.00    -0.168 NA
HETATM    8  C   UNL     1      24.854  42.259  49.533  1.00  0.00     0.156 A 
HETATM    9  C   UNL     1      27.413  39.820  50.103  1.00  0.00     0.034 A 
HETATM   10  C   UNL     1      28.300  40.418  51.012  1.00  0.00     0.031 A 
ENDROOT
BRANCH   1  11
HETATM   11  N   UNL     1      28.973  42.334  52.402  1.00  0.00    -0.386 N 
HETATM   12  H   UNL     1      29.225  43.274  52.115  1.00  0.00     0.160 HD
BRANCH  11  13
HETATM   13  C   UNL     1      29.023  42.108  53.843  1.00  0.00     0.161 C 
BRANCH  13  14
HETATM   14  C   UNL     1      29.497  43.304  54.646  1.00  0.00    -0.007 A 
HETATM   15  C   UNL     1      30.667  43.240  55.425  1.00  0.00     0.011 A 
HETATM   16  C   UNL     1      31.075  44.328  56.196  1.00  0.00     0.001 A 
HETATM   17  C   UNL     1      30.313  45.490  56.215  1.00  0.00     0.003 A 
HETATM   18  C   UNL     1      29.138  45.568  55.464  1.00  0.00     0.037 A 
HETATM   19  C   UNL     1      28.727  44.485  54.677  1.00  0.00     0.076 A 
BRANCH  19  20
HETATM   20  O   UNL     1      27.578  44.473  53.930  1.00  0.00    -0.350 OA
BRANCH  20  21
HETATM   21  C   UNL     1      26.606  45.482  54.197  1.00  0.00     0.180 C 
BRANCH  21  22
HETATM   22  C   UNL     1      26.611  46.433  53.039  1.00  0.00     0.010 A 
HETATM   23  C   UNL     1      26.256  45.964  51.651  1.00  0.00     0.007 A 
HETATM   24  C   UNL     1      25.314  46.864  52.403  1.00  0.00     0.007 A 
ENDBRANCH  21  22
ENDBRANCH  20  21
ENDBRANCH  19  20
ENDBRANCH  13  14
ENDBRANCH  11  13
ENDBRANCH   1  11
BRANCH   8  25
HETATM   25  C   UNL     1      24.165  43.550  49.665  1.00  0.00     0.270 C 
HETATM   26  N   UNL     1      24.380  44.406  48.619  1.00  0.00    -0.365 N 
HETATM   27  H   UNL     1      24.984  44.104  47.864  1.00  0.00     0.159 HD
HETATM   28  H   UNL     1      23.965  45.324  48.629  1.00  0.00     0.159 HD
HETATM   29  O   UNL     1      23.455  43.869  50.614  1.00  0.00    -0.266 OA
ENDBRANCH   8  25
TORSDOF 7
ENDMDL
