MODEL 1
REMARK VINA RESULT:      -9.9      0.000      0.000
REMARK  5 active torsions:
REMARK  status: ('A' for Active; 'I' for Inactive)
REMARK    1  A    between atoms: C_2  and  N_3 
REMARK    2  A    between atoms: C_2  and  C_16 
REMARK    3  A    between atoms: N_3  and  C_6 
REMARK    4  A    between atoms: C_6  and  C_7 
REMARK    5  A    between atoms: C_19  and  C_20 
ROOT
HETATM    1  C   UNL     1      25.588  47.073  53.345  1.00  0.00     0.049 C 
HETATM    2  C   UNL     1      25.947  45.762  52.651  1.00  0.00     0.260 C 
ENDROOT
BRANCH   2   3
HETATM    3  N   UNL     1      26.042  46.042  51.173  1.00  0.00    -0.060 N 
HETATM    4  H   UNL     1      26.913  46.557  50.977  1.00  0.00     0.278 HD
HETATM    5  H   UNL     1      26.107  45.161  50.645  1.00  0.00     0.278 HD
BRANCH   3   6
HETATM    6  C   UNL     1      24.929  46.858  50.596  1.00  0.00     0.274 C 
BRANCH   6   7
HETATM    7  C   UNL     1      25.457  47.968  49.743  1.00  0.00     0.004 A 
HETATM    8  C   UNL     1      24.611  48.720  48.940  1.00  0.00     0.113 A 
HETATM    9  C   UNL     1      25.069  49.736  48.134  1.00  0.00     0.105 A 
HETATM   10  O   UNL     1      23.255  48.578  48.873  1.00  0.00    -0.322 OA
HETATM   11  O   UNL     1      24.070  50.342  47.445  1.00  0.00    -0.323 OA
HETATM   12  C   UNL     1      26.404  50.067  48.081  1.00  0.00     0.040 A 
HETATM   13  C   UNL     1      22.933  49.561  47.850  1.00  0.00     0.352 A 
HETATM   14  C   UNL     1      27.289  49.330  48.871  1.00  0.00     0.003 A 
HETATM   15  C   UNL     1      26.823  48.286  49.693  1.00  0.00     0.012 A 
ENDBRANCH   6   7
ENDBRANCH   3   6
ENDBRANCH   2   3
BRANCH   2  16
HETATM   16  C   UNL     1      27.178  45.167  53.246  1.00  0.00     0.203 A 
HETATM   17  O   UNL     1      27.857  44.268  52.481  1.00  0.00    -0.194 OA
HETATM   18  N   UNL     1      28.918  43.818  53.253  1.00  0.00    -0.106 NA
HETATM   19  C   UNL     1      28.805  44.502  54.405  1.00  0.00     0.189 A 
HETATM   20  N   UNL     1      27.695  45.329  54.439  1.00  0.00    -0.202 NA
BRANCH  19  21
HETATM   21  C   UNL     1      29.736  44.396  55.521  1.00  0.00     0.017 A 
HETATM   22  C   UNL     1      29.760  45.387  56.511  1.00  0.00     0.057 A 
HETATM   23  C   UNL     1      30.660  45.294  57.568  1.00  0.00     0.117 A 
HETATM   24  F   UNL     1      30.674  46.252  58.503  1.00  0.00    -0.206 F 
HETATM   25  C   UNL     1      31.545  44.227  57.667  1.00  0.00     0.042 A 
HETATM   26  C   UNL     1      31.530  43.234  56.691  1.00  0.00     0.004 A 
HETATM   27  C   UNL     1      30.632  43.319  55.622  1.00  0.00     0.016 A 
ENDBRANCH  19  21
ENDBRANCH   2  16
TORSDOF 5
ENDMDL
MODEL 2
REMARK VINA RESULT:      -9.7      1.109      1.521
REMARK  5 active torsions:
REMARK  status: ('A' for Active; 'I' for Inactive)
REMARK    1  A    between atoms: C_2  and  N_3 
REMARK    2  A    between atoms: C_2  and  C_16 
REMARK    3  A    between atoms: N_3  and  C_6 
REMARK    4  A    between atoms: C_6  and  C_7 
REMARK    5  A    between atoms: C_19  and  C_20 
ROOT
HETATM    1  C   UNL     1      25.030  44.003  51.875  1.00  0.00     0.049 C 
HETATM    2  C   UNL     1      26.201  44.945  51.613  1.00  0.00     0.260 C 
ENDROOT
BRANCH   2   3
HETATM    3  N   UNL     1      25.693  46.355  51.773  1.00  0.00    -0.060 N 
HETATM    4  H   UNL     1      25.194  46.440  52.671  1.00  0.00     0.278 HD
HETATM    5  H   UNL     1      26.480  47.016  51.821  1.00  0.00     0.278 HD
BRANCH   3   6
HETATM    6  C   UNL     1      24.745  46.825  50.717  1.00  0.00     0.274 C 
BRANCH   6   7
HETATM    7  C   UNL     1      25.365  47.890  49.867  1.00  0.00     0.004 A 
HETATM    8  C   UNL     1      24.587  48.703  49.055  1.00  0.00     0.113 A 
HETATM    9  C   UNL     1      25.130  49.679  48.252  1.00  0.00     0.105 A 
HETATM   10  O   UNL     1      23.225  48.666  48.975  1.00  0.00    -0.322 OA
HETATM   11  O   UNL     1      24.188  50.359  47.552  1.00  0.00    -0.323 OA
HETATM   12  C   UNL     1      26.487  49.906  48.211  1.00  0.00     0.040 A 
HETATM   13  C   UNL     1      22.990  49.669  47.947  1.00  0.00     0.352 A 
HETATM   14  C   UNL     1      27.305  49.104  49.011  1.00  0.00     0.003 A 
HETATM   15  C   UNL     1      26.752  48.101  49.830  1.00  0.00     0.012 A 
ENDBRANCH   6   7
ENDBRANCH   3   6
ENDBRANCH   2   3
BRANCH   2  16
HETATM   16  C   UNL     1      27.362  44.604  52.485  1.00  0.00     0.203 A 
HETATM   17  O   UNL     1      28.246  43.690  52.000  1.00  0.00    -0.194 OA
HETATM   18  N   UNL     1      29.196  43.497  52.993  1.00  0.00    -0.106 NA
HETATM   19  C   UNL     1      28.818  44.329  53.979  1.00  0.00     0.189 A 
HETATM   20  N   UNL     1      27.645  45.008  53.699  1.00  0.00    -0.202 NA
BRANCH  19  21
HETATM   21  C   UNL     1      29.547  44.511  55.228  1.00  0.00     0.017 A 
HETATM   22  C   UNL     1      30.609  43.655  55.552  1.00  0.00     0.057 A 
HETATM   23  C   UNL     1      31.295  43.820  56.751  1.00  0.00     0.117 A 
HETATM   24  F   UNL     1      32.302  42.990  57.049  1.00  0.00    -0.206 F 
HETATM   25  C   UNL     1      30.950  44.827  57.645  1.00  0.00     0.042 A 
HETATM   26  C   UNL     1      29.898  45.686  57.334  1.00  0.00     0.004 A 
HETATM   27  C   UNL     1      29.200  45.528  56.132  1.00  0.00     0.016 A 
ENDBRANCH  19  21
ENDBRANCH   2  16
TORSDOF 5
ENDMDL
MODEL 3
REMARK VINA RESULT:      -9.6      1.803      2.541
REMARK  5 active torsions:
REMARK  status: ('A' for Active; 'I' for Inactive)
REMARK    1  A    between atoms: C_2  and  N_3 
REMARK    2  A    between atoms: C_2  and  C_16 
REMARK    3  A    between atoms: N_3  and  C_6 
REMARK    4  A    between atoms: C_6  and  C_7 
REMARK    5  A    between atoms: C_19  and  C_20 
ROOT
HETATM    1  C   UNL     1      23.151  43.688  50.124  1.00  0.00     0.049 C 
HETATM    2  C   UNL     1      24.370  44.605  50.139  1.00  0.00     0.260 C 
ENDROOT
BRANCH   2   3
HETATM    3  N   UNL     1      23.872  46.024  50.029  1.00  0.00    -0.060 N 
HETATM    4  H   UNL     1      23.876  46.313  49.039  1.00  0.00     0.278 HD
HETATM    5  H   UNL     1      22.893  46.084  50.339  1.00  0.00     0.278 HD
BRANCH   3   6
HETATM    6  C   UNL     1      24.667  47.048  50.773  1.00  0.00     0.274 C 
BRANCH   6   7
HETATM    7  C   UNL     1      25.266  48.052  49.840  1.00  0.00     0.004 A 
HETATM    8  C   UNL     1      24.470  48.811  48.994  1.00  0.00     0.113 A 
HETATM    9  C   UNL     1      24.994  49.730  48.115  1.00  0.00     0.105 A 
HETATM   10  O   UNL     1      23.107  48.771  48.949  1.00  0.00    -0.322 OA
HETATM   11  O   UNL     1      24.035  50.363  47.394  1.00  0.00    -0.323 OA
HETATM   12  C   UNL     1      26.349  49.952  48.027  1.00  0.00     0.040 A 
HETATM   13  C   UNL     1      22.847  49.703  47.862  1.00  0.00     0.352 A 
HETATM   14  C   UNL     1      27.186  49.203  48.859  1.00  0.00     0.003 A 
HETATM   15  C   UNL     1      26.652  48.258  49.756  1.00  0.00     0.012 A 
ENDBRANCH   6   7
ENDBRANCH   3   6
ENDBRANCH   2   3
BRANCH   2  16
HETATM   16  C   UNL     1      25.218  44.340  51.336  1.00  0.00     0.203 A 
HETATM   17  O   UNL     1      24.581  44.280  52.538  1.00  0.00    -0.194 OA
HETATM   18  N   UNL     1      25.565  44.080  53.495  1.00  0.00    -0.106 NA
HETATM   19  C   UNL     1      26.706  44.011  52.788  1.00  0.00     0.189 A 
HETATM   20  N   UNL     1      26.518  44.210  51.431  1.00  0.00    -0.202 NA
BRANCH  19  21
HETATM   21  C   UNL     1      28.020  43.760  53.367  1.00  0.00     0.017 A 
HETATM   22  C   UNL     1      28.371  44.344  54.591  1.00  0.00     0.057 A 
HETATM   23  C   UNL     1      29.631  44.116  55.136  1.00  0.00     0.117 A 
HETATM   24  F   UNL     1      29.953  44.687  56.304  1.00  0.00    -0.206 F 
HETATM   25  C   UNL     1      30.560  43.311  54.488  1.00  0.00     0.042 A 
HETATM   26  C   UNL     1      30.224  42.722  53.271  1.00  0.00     0.004 A 
HETATM   27  C   UNL     1      28.960  42.947  52.713  1.00  0.00     0.016 A 
ENDBRANCH  19  21
ENDBRANCH   2  16
TORSDOF 5
ENDMDL
MODEL 4
REMARK VINA RESULT:      -9.5      1.403      2.185
REMARK  5 active torsions:
REMARK  status: ('A' for Active; 'I' for Inactive)
REMARK    1  A    between atoms: C_2  and  N_3 
REMARK    2  A    between atoms: C_2  and  C_16 
REMARK    3  A    between atoms: N_3  and  C_6 
REMARK    4  A    between atoms: C_6  and  C_7 
REMARK    5  A    between atoms: C_19  and  C_20 
ROOT
HETATM    1  C   UNL     1      24.850  44.534  52.268  1.00  0.00     0.049 C 
HETATM    2  C   UNL     1      26.004  45.487  51.972  1.00  0.00     0.260 C 
ENDROOT
BRANCH   2   3
HETATM    3  N   UNL     1      25.409  46.780  51.477  1.00  0.00    -0.060 N 
HETATM    4  H   UNL     1      24.906  47.243  52.248  1.00  0.00     0.278 HD
HETATM    5  H   UNL     1      26.153  47.431  51.192  1.00  0.00     0.278 HD
BRANCH   3   6
HETATM    6  C   UNL     1      24.434  46.654  50.351  1.00  0.00     0.274 C 
BRANCH   6   7
HETATM    7  C   UNL     1      24.397  47.901  49.524  1.00  0.00     0.004 A 
HETATM    8  C   UNL     1      25.563  48.568  49.178  1.00  0.00     0.113 A 
HETATM    9  C   UNL     1      25.559  49.723  48.432  1.00  0.00     0.105 A 
HETATM   10  O   UNL     1      26.828  48.160  49.493  1.00  0.00    -0.322 OA
HETATM   11  O   UNL     1      26.809  50.199  48.205  1.00  0.00    -0.323 OA
HETATM   12  C   UNL     1      24.387  50.285  47.981  1.00  0.00     0.040 A 
HETATM   13  C   UNL     1      27.608  49.258  48.941  1.00  0.00     0.352 A 
HETATM   14  C   UNL     1      23.189  49.646  48.312  1.00  0.00     0.003 A 
HETATM   15  C   UNL     1      23.191  48.466  49.080  1.00  0.00     0.012 A 
ENDBRANCH   6   7
ENDBRANCH   3   6
ENDBRANCH   2   3
BRANCH   2  16
HETATM   16  C   UNL     1      26.891  45.631  53.162  1.00  0.00     0.203 A 
HETATM   17  O   UNL     1      26.774  46.784  53.878  1.00  0.00    -0.194 OA
HETATM   18  N   UNL     1      27.720  46.717  54.889  1.00  0.00    -0.106 NA
HETATM   19  C   UNL     1      28.309  45.521  54.713  1.00  0.00     0.189 A 
HETATM   20  N   UNL     1      27.830  44.836  53.610  1.00  0.00    -0.202 NA
BRANCH  19  21
HETATM   21  C   UNL     1      29.351  44.980  55.578  1.00  0.00     0.017 A 
HETATM   22  C   UNL     1      29.678  45.632  56.775  1.00  0.00     0.057 A 
HETATM   23  C   UNL     1      30.682  45.123  57.592  1.00  0.00     0.117 A 
HETATM   24  F   UNL     1      30.987  45.762  58.729  1.00  0.00    -0.206 F 
HETATM   25  C   UNL     1      31.375  43.969  57.247  1.00  0.00     0.042 A 
HETATM   26  C   UNL     1      31.059  43.310  56.062  1.00  0.00     0.004 A 
HETATM   27  C   UNL     1      30.052  43.814  55.231  1.00  0.00     0.016 A 
ENDBRANCH  19  21
ENDBRANCH   2  16
TORSDOF 5
ENDMDL
MODEL 5
REMARK VINA RESULT:      -9.2      2.616      3.976
REMARK  5 active torsions:
REMARK  status: ('A' for Active; 'I' for Inactive)
REMARK    1  A    between atoms: C_2  and  N_3 
REMARK    2  A    between atoms: C_2  and  C_16 
REMARK    3  A    between atoms: N_3  and  C_6 
REMARK    4  A    between atoms: C_6  and  C_7 
REMARK    5  A    between atoms: C_19  and  C_20 
ROOT
HETATM    1  C   UNL     1      26.228  40.745  50.454  1.00  0.00     0.049 C 
HETATM    2  C   UNL     1      27.412  41.701  50.336  1.00  0.00     0.260 C 
ENDROOT
BRANCH   2   3
HETATM    3  N   UNL     1      26.919  42.950  49.650  1.00  0.00    -0.060 N 
HETATM    4  H   UNL     1      27.541  43.739  49.886  1.00  0.00     0.278 HD
HETATM    5  H   UNL     1      26.973  42.842  48.628  1.00  0.00     0.278 HD
BRANCH   3   6
HETATM    6  C   UNL     1      25.533  43.382  50.008  1.00  0.00     0.274 C 
BRANCH   6   7
HETATM    7  C   UNL     1      25.553  44.516  50.983  1.00  0.00     0.004 A 
HETATM    8  C   UNL     1      25.957  45.787  50.598  1.00  0.00     0.113 A 
HETATM    9  C   UNL     1      26.000  46.844  51.476  1.00  0.00     0.105 A 
HETATM   10  O   UNL     1      26.319  46.149  49.333  1.00  0.00    -0.322 OA
HETATM   11  O   UNL     1      26.415  47.993  50.885  1.00  0.00    -0.323 OA
HETATM   12  C   UNL     1      25.639  46.700  52.796  1.00  0.00     0.040 A 
HETATM   13  C   UNL     1      26.693  47.539  49.550  1.00  0.00     0.352 A 
HETATM   14  C   UNL     1      25.231  45.435  53.225  1.00  0.00     0.003 A 
HETATM   15  C   UNL     1      25.191  44.349  52.329  1.00  0.00     0.012 A 
ENDBRANCH   6   7
ENDBRANCH   3   6
ENDBRANCH   2   3
BRANCH   2  16
HETATM   16  C   UNL     1      28.038  41.936  51.669  1.00  0.00     0.203 A 
HETATM   17  O   UNL     1      28.267  40.838  52.441  1.00  0.00    -0.194 OA
HETATM   18  N   UNL     1      28.797  41.302  53.636  1.00  0.00    -0.106 NA
HETATM   19  C   UNL     1      28.867  42.634  53.473  1.00  0.00     0.189 A 
HETATM   20  N   UNL     1      28.360  43.061  52.258  1.00  0.00    -0.202 NA
BRANCH  19  21
HETATM   21  C   UNL     1      29.411  43.558  54.461  1.00  0.00     0.017 A 
HETATM   22  C   UNL     1      30.547  43.205  55.201  1.00  0.00     0.057 A 
HETATM   23  C   UNL     1      31.057  44.081  56.155  1.00  0.00     0.117 A 
HETATM   24  F   UNL     1      32.139  43.725  56.858  1.00  0.00    -0.206 F 
HETATM   25  C   UNL     1      30.460  45.313  56.391  1.00  0.00     0.042 A 
HETATM   26  C   UNL     1      29.332  45.678  55.660  1.00  0.00     0.004 A 
HETATM   27  C   UNL     1      28.809  44.804  54.701  1.00  0.00     0.016 A 
ENDBRANCH  19  21
ENDBRANCH   2  16
TORSDOF 5
ENDMDL
MODEL 6
REMARK VINA RESULT:      -9.2      3.229      4.475
REMARK  5 active torsions:
REMARK  status: ('A' for Active; 'I' for Inactive)
REMARK    1  A    between atoms: C_2  and  N_3 
REMARK    2  A    between atoms: C_2  and  C_16 
REMARK    3  A    between atoms: N_3  and  C_6 
REMARK    4  A    between atoms: C_6  and  C_7 
REMARK    5  A    between atoms: C_19  and  C_20 
ROOT
HETATM    1  C   UNL     1      26.257  40.298  50.516  1.00  0.00     0.049 C 
HETATM    2  C   UNL     1      26.387  41.775  50.876  1.00  0.00     0.260 C 
ENDROOT
BRANCH   2   3
HETATM    3  N   UNL     1      25.010  42.280  51.226  1.00  0.00    -0.060 N 
HETATM    4  H   UNL     1      24.316  41.539  51.043  1.00  0.00     0.278 HD
HETATM    5  H   UNL     1      24.949  42.483  52.233  1.00  0.00     0.278 HD
BRANCH   3   6
HETATM    6  C   UNL     1      24.551  43.485  50.471  1.00  0.00     0.274 C 
BRANCH   6   7
HETATM    7  C   UNL     1      25.080  44.743  51.085  1.00  0.00     0.004 A 
HETATM    8  C   UNL     1      25.114  44.912  52.462  1.00  0.00     0.113 A 
HETATM    9  C   UNL     1      25.580  46.062  53.053  1.00  0.00     0.105 A 
HETATM   10  O   UNL     1      24.735  43.976  53.380  1.00  0.00    -0.322 OA
HETATM   11  O   UNL     1      25.531  46.007  54.407  1.00  0.00    -0.323 OA
HETATM   12  C   UNL     1      26.046  47.119  52.304  1.00  0.00     0.040 A 
HETATM   13  C   UNL     1      24.924  44.720  54.615  1.00  0.00     0.352 A 
HETATM   14  C   UNL     1      26.023  46.991  50.913  1.00  0.00     0.003 A 
HETATM   15  C   UNL     1      25.542  45.816  50.306  1.00  0.00     0.012 A 
ENDBRANCH   6   7
ENDBRANCH   3   6
ENDBRANCH   2   3
BRANCH   2  16
HETATM   16  C   UNL     1      27.407  41.973  51.946  1.00  0.00     0.203 A 
HETATM   17  O   UNL     1      28.178  40.897  52.264  1.00  0.00    -0.194 OA
HETATM   18  N   UNL     1      29.003  41.298  53.304  1.00  0.00    -0.106 NA
HETATM   19  C   UNL     1      28.677  42.587  53.507  1.00  0.00     0.189 A 
HETATM   20  N   UNL     1      27.649  43.023  52.690  1.00  0.00    -0.202 NA
BRANCH  19  21
HETATM   21  C   UNL     1      29.321  43.456  54.485  1.00  0.00     0.017 A 
HETATM   22  C   UNL     1      30.457  43.013  55.176  1.00  0.00     0.057 A 
HETATM   23  C   UNL     1      31.063  43.837  56.120  1.00  0.00     0.117 A 
HETATM   24  F   UNL     1      32.143  43.396  56.777  1.00  0.00    -0.206 F 
HETATM   25  C   UNL     1      30.564  45.104  56.394  1.00  0.00     0.042 A 
HETATM   26  C   UNL     1      29.437  45.558  55.712  1.00  0.00     0.004 A 
HETATM   27  C   UNL     1      28.818  44.737  54.763  1.00  0.00     0.016 A 
ENDBRANCH  19  21
ENDBRANCH   2  16
TORSDOF 5
ENDMDL
MODEL 7
REMARK VINA RESULT:      -8.9      2.323      3.346
REMARK  5 active torsions:
REMARK  status: ('A' for Active; 'I' for Inactive)
REMARK    1  A    between atoms: C_2  and  N_3 
REMARK    2  A    between atoms: C_2  and  C_16 
REMARK    3  A    between atoms: N_3  and  C_6 
REMARK    4  A    between atoms: C_6  and  C_7 
REMARK    5  A    between atoms: C_19  and  C_20 
ROOT
HETATM    1  C   UNL     1      23.488  43.328  49.833  1.00  0.00     0.049 C 
HETATM    2  C   UNL     1      24.322  44.560  49.494  1.00  0.00     0.260 C 
ENDROOT
BRANCH   2   3
HETATM    3  N   UNL     1      23.520  45.774  49.889  1.00  0.00    -0.060 N 
HETATM    4  H   UNL     1      23.016  46.134  49.064  1.00  0.00     0.278 HD
HETATM    5  H   UNL     1      22.796  45.517  50.574  1.00  0.00     0.278 HD
BRANCH   3   6
HETATM    6  C   UNL     1      24.307  46.919  50.438  1.00  0.00     0.274 C 
BRANCH   6   7
HETATM    7  C   UNL     1      24.302  48.082  49.498  1.00  0.00     0.004 A 
HETATM    8  C   UNL     1      25.480  48.721  49.138  1.00  0.00     0.113 A 
HETATM    9  C   UNL     1      25.504  49.801  48.288  1.00  0.00     0.105 A 
HETATM   10  O   UNL     1      26.731  48.351  49.541  1.00  0.00    -0.322 OA
HETATM   11  O   UNL     1      26.762  50.261  48.068  1.00  0.00    -0.323 OA
HETATM   12  C   UNL     1      24.350  50.312  47.739  1.00  0.00     0.040 A 
HETATM   13  C   UNL     1      27.531  49.397  48.921  1.00  0.00     0.352 A 
HETATM   14  C   UNL     1      23.141  49.700  48.080  1.00  0.00     0.003 A 
HETATM   15  C   UNL     1      23.114  48.597  48.954  1.00  0.00     0.012 A 
ENDBRANCH   6   7
ENDBRANCH   3   6
ENDBRANCH   2   3
BRANCH   2  16
HETATM   16  C   UNL     1      25.670  44.478  50.127  1.00  0.00     0.203 A 
HETATM   17  O   UNL     1      26.740  44.749  49.330  1.00  0.00    -0.194 OA
HETATM   18  N   UNL     1      27.870  44.561  50.112  1.00  0.00    -0.106 NA
HETATM   19  C   UNL     1      27.385  44.218  51.318  1.00  0.00     0.189 A 
HETATM   20  N   UNL     1      26.005  44.122  51.343  1.00  0.00    -0.202 NA
BRANCH  19  21
HETATM   21  C   UNL     1      28.208  43.962  52.494  1.00  0.00     0.017 A 
HETATM   22  C   UNL     1      27.966  44.659  53.685  1.00  0.00     0.057 A 
HETATM   23  C   UNL     1      28.761  44.425  54.803  1.00  0.00     0.117 A 
HETATM   24  F   UNL     1      28.520  45.104  55.931  1.00  0.00    -0.206 F 
HETATM   25  C   UNL     1      29.800  43.503  54.766  1.00  0.00     0.042 A 
HETATM   26  C   UNL     1      30.050  42.802  53.589  1.00  0.00     0.004 A 
HETATM   27  C   UNL     1      29.259  43.031  52.458  1.00  0.00     0.016 A 
ENDBRANCH  19  21
ENDBRANCH   2  16
TORSDOF 5
ENDMDL
MODEL 8
REMARK VINA RESULT:      -8.9      3.504      8.098
REMARK  5 active torsions:
REMARK  status: ('A' for Active; 'I' for Inactive)
REMARK    1  A    between atoms: C_2  and  N_3 
REMARK    2  A    between atoms: C_2  and  C_16 
REMARK    3  A    between atoms: N_3  and  C_6 
REMARK    4  A    between atoms: C_6  and  C_7 
REMARK    5  A    between atoms: C_19  and  C_20 
ROOT
HETATM    1  C   UNL     1      27.880  42.008  51.002  1.00  0.00     0.049 C 
HETATM    2  C   UNL     1      26.926  42.462  52.103  1.00  0.00     0.260 C 
ENDROOT
BRANCH   2   3
HETATM    3  N   UNL     1      27.706  42.499  53.393  1.00  0.00    -0.060 N 
HETATM    4  H   UNL     1      27.245  43.142  54.054  1.00  0.00     0.278 HD
HETATM    5  H   UNL     1      27.697  41.574  53.843  1.00  0.00     0.278 HD
BRANCH   3   6
HETATM    6  C   UNL     1      29.125  42.955  53.278  1.00  0.00     0.274 C 
BRANCH   6   7
HETATM    7  C   UNL     1      29.539  43.746  54.479  1.00  0.00     0.004 A 
HETATM    8  C   UNL     1      28.856  44.894  54.853  1.00  0.00     0.113 A 
HETATM    9  C   UNL     1      29.223  45.649  55.942  1.00  0.00     0.105 A 
HETATM   10  O   UNL     1      27.747  45.389  54.230  1.00  0.00    -0.322 OA
HETATM   11  O   UNL     1      28.412  46.721  56.127  1.00  0.00    -0.323 OA
HETATM   12  C   UNL     1      30.296  45.302  56.730  1.00  0.00     0.040 A 
HETATM   13  C   UNL     1      27.527  46.604  55.001  1.00  0.00     0.352 A 
HETATM   14  C   UNL     1      31.014  44.155  56.384  1.00  0.00     0.003 A 
HETATM   15  C   UNL     1      30.643  43.383  55.266  1.00  0.00     0.012 A 
ENDBRANCH   6   7
ENDBRANCH   3   6
ENDBRANCH   2   3
BRANCH   2  16
HETATM   16  C   UNL     1      26.274  43.753  51.740  1.00  0.00     0.203 A 
HETATM   17  O   UNL     1      25.048  43.994  52.282  1.00  0.00    -0.194 OA
HETATM   18  N   UNL     1      24.623  45.210  51.766  1.00  0.00    -0.106 NA
HETATM   19  C   UNL     1      25.638  45.609  50.980  1.00  0.00     0.189 A 
HETATM   20  N   UNL     1      26.671  44.691  50.917  1.00  0.00    -0.202 NA
BRANCH  19  21
HETATM   21  C   UNL     1      25.668  46.872  50.252  1.00  0.00     0.017 A 
HETATM   22  C   UNL     1      24.470  47.512  49.907  1.00  0.00     0.057 A 
HETATM   23  C   UNL     1      24.500  48.710  49.199  1.00  0.00     0.117 A 
HETATM   24  F   UNL     1      23.347  49.305  48.871  1.00  0.00    -0.206 F 
HETATM   25  C   UNL     1      25.704  49.294  48.824  1.00  0.00     0.042 A 
HETATM   26  C   UNL     1      26.902  48.670  49.163  1.00  0.00     0.004 A 
HETATM   27  C   UNL     1      26.884  47.464  49.872  1.00  0.00     0.016 A 
ENDBRANCH  19  21
ENDBRANCH   2  16
TORSDOF 5
ENDMDL
MODEL 9
REMARK VINA RESULT:      -8.8      4.261      9.669
REMARK  5 active torsions:
REMARK  status: ('A' for Active; 'I' for Inactive)
REMARK    1  A    between atoms: C_2  and  N_3 
REMARK    2  A    between atoms: C_2  and  C_16 
REMARK    3  A    between atoms: N_3  and  C_6 
REMARK    4  A    between atoms: C_6  and  C_7 
REMARK    5  A    between atoms: C_19  and  C_20 
ROOT
HETATM    1  C   UNL     1      27.331  48.507  49.186  1.00  0.00     0.049 C 
HETATM    2  C   UNL     1      26.014  47.865  49.611  1.00  0.00     0.260 C 
ENDROOT
BRANCH   2   3
HETATM    3  N   UNL     1      26.064  47.673  51.106  1.00  0.00    -0.060 N 
HETATM    4  H   UNL     1      27.025  47.842  51.441  1.00  0.00     0.278 HD
HETATM    5  H   UNL     1      25.472  48.370  51.576  1.00  0.00     0.278 HD
BRANCH   3   6
HETATM    6  C   UNL     1      25.678  46.315  51.596  1.00  0.00     0.274 C 
BRANCH   6   7
HETATM    7  C   UNL     1      26.500  45.912  52.780  1.00  0.00     0.004 A 
HETATM    8  C   UNL     1      26.601  46.730  53.896  1.00  0.00     0.113 A 
HETATM    9  C   UNL     1      27.360  46.393  54.992  1.00  0.00     0.105 A 
HETATM   10  O   UNL     1      25.953  47.920  54.062  1.00  0.00    -0.322 OA
HETATM   11  O   UNL     1      27.307  47.333  55.969  1.00  0.00    -0.323 OA
HETATM   12  C   UNL     1      28.067  45.214  55.043  1.00  0.00     0.040 A 
HETATM   13  C   UNL     1      26.482  48.336  55.352  1.00  0.00     0.352 A 
HETATM   14  C   UNL     1      27.996  44.364  53.937  1.00  0.00     0.003 A 
HETATM   15  C   UNL     1      27.223  44.709  52.812  1.00  0.00     0.012 A 
ENDBRANCH   6   7
ENDBRANCH   3   6
ENDBRANCH   2   3
BRANCH   2  16
HETATM   16  C   UNL     1      24.853  48.670  49.132  1.00  0.00     0.203 A 
HETATM   17  O   UNL     1      25.083  49.517  48.091  1.00  0.00    -0.194 OA
HETATM   18  N   UNL     1      23.890  50.187  47.859  1.00  0.00    -0.106 NA
HETATM   19  C   UNL     1      23.039  49.669  48.761  1.00  0.00     0.189 A 
HETATM   20  N   UNL     1      23.631  48.740  49.599  1.00  0.00    -0.202 NA
BRANCH  19  21
HETATM   21  C   UNL     1      21.632  50.036  48.871  1.00  0.00     0.017 A 
HETATM   22  C   UNL     1      21.209  51.318  48.496  1.00  0.00     0.057 A 
HETATM   23  C   UNL     1      19.869  51.672  48.616  1.00  0.00     0.117 A 
HETATM   24  F   UNL     1      19.482  52.903  48.259  1.00  0.00    -0.206 F 
HETATM   25  C   UNL     1      18.928  50.772  49.101  1.00  0.00     0.042 A 
HETATM   26  C   UNL     1      19.334  49.493  49.476  1.00  0.00     0.004 A 
HETATM   27  C   UNL     1      20.680  49.127  49.362  1.00  0.00     0.016 A 
ENDBRANCH  19  21
ENDBRANCH   2  16
TORSDOF 5
ENDMDL
MODEL 10
REMARK VINA RESULT:      -8.7      1.778      2.444
REMARK  5 active torsions:
REMARK  status: ('A' for Active; 'I' for Inactive)
REMARK    1  A    between atoms: C_2  and  N_3 
REMARK    2  A    between atoms: C_2  and  C_16 
REMARK    3  A    between atoms: N_3  and  C_6 
REMARK    4  A    between atoms: C_6  and  C_7 
REMARK    5  A    between atoms: C_19  and  C_20 
ROOT
HETATM    1  C   UNL     1      25.000  43.431  51.263  1.00  0.00     0.049 C 
HETATM    2  C   UNL     1      26.370  43.599  50.614  1.00  0.00     0.260 C 
ENDROOT
BRANCH   2   3
HETATM    3  N   UNL     1      26.383  44.938  49.921  1.00  0.00    -0.060 N 
HETATM    4  H   UNL     1      27.321  45.114  49.531  1.00  0.00     0.278 HD
HETATM    5  H   UNL     1      25.739  44.931  49.118  1.00  0.00     0.278 HD
BRANCH   3   6
HETATM    6  C   UNL     1      26.054  46.115  50.781  1.00  0.00     0.274 C 
BRANCH   6   7
HETATM    7  C   UNL     1      25.388  47.196  49.989  1.00  0.00     0.004 A 
HETATM    8  C   UNL     1      26.116  48.252  49.460  1.00  0.00     0.113 A 
HETATM    9  C   UNL     1      25.529  49.267  48.742  1.00  0.00     0.105 A 
HETATM   10  O   UNL     1      27.470  48.398  49.550  1.00  0.00    -0.322 OA
HETATM   11  O   UNL     1      26.429  50.187  48.312  1.00  0.00    -0.323 OA
HETATM   12  C   UNL     1      24.174  49.290  48.504  1.00  0.00     0.040 A 
HETATM   13  C   UNL     1      27.645  49.682  48.889  1.00  0.00     0.352 A 
HETATM   14  C   UNL     1      23.403  48.248  49.025  1.00  0.00     0.003 A 
HETATM   15  C   UNL     1      24.002  47.210  49.765  1.00  0.00     0.012 A 
ENDBRANCH   6   7
ENDBRANCH   3   6
ENDBRANCH   2   3
BRANCH   2  16
HETATM   16  C   UNL     1      27.458  43.414  51.617  1.00  0.00     0.203 A 
HETATM   17  O   UNL     1      28.329  42.391  51.396  1.00  0.00    -0.194 OA
HETATM   18  N   UNL     1      29.206  42.382  52.471  1.00  0.00    -0.106 NA
HETATM   19  C   UNL     1      28.806  43.414  53.234  1.00  0.00     0.189 A 
HETATM   20  N   UNL     1      27.685  44.056  52.737  1.00  0.00    -0.202 NA
BRANCH  19  21
HETATM   21  C   UNL     1      29.464  43.832  54.465  1.00  0.00     0.017 A 
HETATM   22  C   UNL     1      29.018  44.972  55.148  1.00  0.00     0.057 A 
HETATM   23  C   UNL     1      29.657  45.378  56.315  1.00  0.00     0.117 A 
HETATM   24  F   UNL     1      29.222  46.473  56.952  1.00  0.00    -0.206 F 
HETATM   25  C   UNL     1      30.738  44.672  56.827  1.00  0.00     0.042 A 
HETATM   26  C   UNL     1      31.190  43.536  56.160  1.00  0.00     0.004 A 
HETATM   27  C   UNL     1      30.557  43.119  54.984  1.00  0.00     0.016 A 
ENDBRANCH  19  21
ENDBRANCH   2  16
TORSDOF 5
ENDMDL
