MODEL 1
REMARK VINA RESULT:      -8.1      0.000      0.000
REMARK  8 active torsions:
REMARK  status: ('A' for Active; 'I' for Inactive)
REMARK    1  A    between atoms: C_3  and  N_4 
REMARK       I    between atoms: N_4  and  C_5 
REMARK    2  A    between atoms: C_5  and  C_6 
REMARK    3  A    between atoms: C_6  and  C_7 
REMARK    4  A    between atoms: C_7  and  C_8 
REMARK    5  A    between atoms: C_8  and  O_9 
REMARK    6  A    between atoms: O_9  and  C_10 
REMARK    7  A    between atoms: C_18  and  C_19 
REMARK    8  A    between atoms: C_22  and  O_23 
ROOT
HETATM    1  N   UNL     1      26.638  43.268  52.580  1.00  0.00    -0.327 N 
HETATM    2  C   UNL     1      26.507  43.684  51.263  1.00  0.00     0.222 C 
HETATM    3  O   UNL     1      27.390  44.160  50.560  1.00  0.00    -0.273 OA
HETATM    4  H   UNL     1      25.969  42.569  52.875  1.00  0.00     0.169 HD
ENDROOT
BRANCH   1   5
HETATM    5  C   UNL     1      27.797  43.385  53.385  1.00  0.00     0.041 A 
HETATM    6  C   UNL     1      28.810  42.424  53.495  1.00  0.00    -0.033 A 
HETATM    7  C   UNL     1      28.909  41.179  52.660  1.00  0.00     0.050 C 
HETATM    8  C   UNL     1      29.843  42.648  54.420  1.00  0.00     0.046 A 
HETATM    9  C   UNL     1      29.912  43.824  55.167  1.00  0.00     0.072 A 
HETATM   10  C   UNL     1      28.977  44.852  54.995  1.00  0.00    -0.019 A 
HETATM   11  C   UNL     1      27.926  44.604  54.088  1.00  0.00     0.040 A 
BRANCH   9  12
HETATM   12  O   UNL     1      30.957  43.891  56.045  1.00  0.00    -0.360 OA
HETATM   13  H   UNL     1      31.750  44.198  55.582  1.00  0.00     0.217 HD
ENDBRANCH   9  12
BRANCH  10  14
HETATM   14  C   UNL     1      29.096  46.176  55.743  1.00  0.00     0.013 C 
HETATM   15  C   UNL     1      28.216  47.251  55.089  1.00  0.00     0.015 C 
HETATM   16  C   UNL     1      28.776  46.124  57.244  1.00  0.00     0.015 C 
ENDBRANCH  10  14
ENDBRANCH   1   5
BRANCH   2  17
HETATM   17  C   UNL     1      25.114  43.400  50.722  1.00  0.00     0.105 C 
BRANCH  17  18
HETATM   18  C   UNL     1      24.211  44.631  50.678  1.00  0.00     0.036 C 
BRANCH  18  19
HETATM   19  C   UNL     1      24.926  45.928  51.060  1.00  0.00     0.176 C 
BRANCH  19  20
HETATM   20  O   UNL     1      24.247  47.001  50.398  1.00  0.00    -0.350 OA
BRANCH  20  21
HETATM   21  C   UNL     1      25.023  47.904  49.733  1.00  0.00     0.086 A 
HETATM   22  C   UNL     1      24.593  48.931  48.899  1.00  0.00     0.152 A 
HETATM   23  N   UNL     1      25.423  49.805  48.275  1.00  0.00    -0.270 NA
HETATM   24  C   UNL     1      26.746  49.640  48.486  1.00  0.00     0.116 A 
HETATM   25  C   UNL     1      27.277  48.647  49.293  1.00  0.00     0.022 A 
HETATM   26  C   UNL     1      26.396  47.771  49.924  1.00  0.00     0.039 A 
ENDBRANCH  20  21
ENDBRANCH  19  20
ENDBRANCH  18  19
ENDBRANCH  17  18
ENDBRANCH   2  17
TORSDOF 8
ENDMDL
MODEL 2
REMARK VINA RESULT:      -8.0      2.577      8.367
REMARK  8 active torsions:
REMARK  status: ('A' for Active; 'I' for Inactive)
REMARK    1  A    between atoms: C_3  and  N_4 
REMARK       I    between atoms: N_4  and  C_5 
REMARK    2  A    between atoms: C_5  and  C_6 
REMARK    3  A    between atoms: C_6  and  C_7 
REMARK    4  A    between atoms: C_7  and  C_8 
REMARK    5  A    between atoms: C_8  and  O_9 
REMARK    6  A    between atoms: O_9  and  C_10 
REMARK    7  A    between atoms: C_18  and  C_19 
REMARK    8  A    between atoms: C_22  and  O_23 
ROOT
HETATM    1  N   UNL     1      25.815  46.690  50.358  1.00  0.00    -0.327 N 
HETATM    2  C   UNL     1      25.835  46.653  51.745  1.00  0.00     0.222 C 
HETATM    3  O   UNL     1      25.395  47.510  52.501  1.00  0.00    -0.273 OA
HETATM    4  H   UNL     1      25.847  45.785  49.907  1.00  0.00     0.169 HD
ENDROOT
BRANCH   1   5
HETATM    5  C   UNL     1      25.351  47.759  49.554  1.00  0.00     0.041 A 
HETATM    6  C   UNL     1      26.137  48.814  49.073  1.00  0.00    -0.033 A 
HETATM    7  C   UNL     1      27.632  48.902  49.202  1.00  0.00     0.050 C 
HETATM    8  C   UNL     1      25.501  49.854  48.376  1.00  0.00     0.046 A 
HETATM    9  C   UNL     1      24.134  49.819  48.100  1.00  0.00     0.072 A 
HETATM   10  C   UNL     1      23.345  48.723  48.468  1.00  0.00    -0.019 A 
HETATM   11  C   UNL     1      23.986  47.700  49.195  1.00  0.00     0.040 A 
BRANCH   9  12
HETATM   12  O   UNL     1      23.650  50.912  47.437  1.00  0.00    -0.360 OA
HETATM   13  H   UNL     1      23.080  50.624  46.709  1.00  0.00     0.217 HD
ENDBRANCH   9  12
BRANCH  10  14
HETATM   14  C   UNL     1      21.869  48.637  48.092  1.00  0.00     0.013 C 
HETATM   15  C   UNL     1      21.539  47.261  47.497  1.00  0.00     0.015 C 
HETATM   16  C   UNL     1      20.874  48.936  49.224  1.00  0.00     0.015 C 
ENDBRANCH  10  14
ENDBRANCH   1   5
BRANCH   2  17
HETATM   17  C   UNL     1      26.408  45.342  52.262  1.00  0.00     0.105 C 
BRANCH  17  18
HETATM   18  C   UNL     1      25.647  44.769  53.455  1.00  0.00     0.036 C 
BRANCH  18  19
HETATM   19  C   UNL     1      26.513  44.583  54.702  1.00  0.00     0.176 C 
BRANCH  19  20
HETATM   20  O   UNL     1      27.660  45.427  54.555  1.00  0.00    -0.350 OA
BRANCH  20  21
HETATM   21  C   UNL     1      28.815  45.006  55.146  1.00  0.00     0.086 A 
HETATM   22  C   UNL     1      29.488  45.609  56.203  1.00  0.00     0.152 A 
HETATM   23  N   UNL     1      30.632  45.128  56.752  1.00  0.00    -0.270 NA
HETATM   24  C   UNL     1      31.133  43.996  56.214  1.00  0.00     0.116 A 
HETATM   25  C   UNL     1      30.543  43.322  55.158  1.00  0.00     0.022 A 
HETATM   26  C   UNL     1      29.366  43.839  54.622  1.00  0.00     0.039 A 
ENDBRANCH  20  21
ENDBRANCH  19  20
ENDBRANCH  18  19
ENDBRANCH  17  18
ENDBRANCH   2  17
TORSDOF 8
ENDMDL
MODEL 3
REMARK VINA RESULT:      -8.0      1.445      2.739
REMARK  8 active torsions:
REMARK  status: ('A' for Active; 'I' for Inactive)
REMARK    1  A    between atoms: C_3  and  N_4 
REMARK       I    between atoms: N_4  and  C_5 
REMARK    2  A    between atoms: C_5  and  C_6 
REMARK    3  A    between atoms: C_6  and  C_7 
REMARK    4  A    between atoms: C_7  and  C_8 
REMARK    5  A    between atoms: C_8  and  O_9 
REMARK    6  A    between atoms: O_9  and  C_10 
REMARK    7  A    between atoms: C_18  and  C_19 
REMARK    8  A    between atoms: C_22  and  O_23 
ROOT
HETATM    1  N   UNL     1      26.515  45.082  51.873  1.00  0.00    -0.327 N 
HETATM    2  C   UNL     1      25.357  44.344  51.678  1.00  0.00     0.222 C 
HETATM    3  O   UNL     1      24.655  43.849  52.550  1.00  0.00    -0.273 OA
HETATM    4  H   UNL     1      26.744  45.724  51.125  1.00  0.00     0.169 HD
ENDROOT
BRANCH   1   5
HETATM    5  C   UNL     1      27.145  45.339  53.115  1.00  0.00     0.041 A 
HETATM    6  C   UNL     1      26.869  46.423  53.957  1.00  0.00    -0.033 A 
HETATM    7  C   UNL     1      25.749  47.406  53.756  1.00  0.00     0.050 C 
HETATM    8  C   UNL     1      27.658  46.593  55.107  1.00  0.00     0.046 A 
HETATM    9  C   UNL     1      28.652  45.676  55.451  1.00  0.00     0.072 A 
HETATM   10  C   UNL     1      28.874  44.522  54.690  1.00  0.00    -0.019 A 
HETATM   11  C   UNL     1      28.098  44.379  53.521  1.00  0.00     0.040 A 
BRANCH   9  12
HETATM   12  O   UNL     1      29.356  45.985  56.581  1.00  0.00    -0.360 OA
HETATM   13  H   UNL     1      29.111  45.376  57.293  1.00  0.00     0.217 HD
ENDBRANCH   9  12
BRANCH  10  14
HETATM   14  C   UNL     1      29.897  43.471  55.108  1.00  0.00     0.013 C 
HETATM   15  C   UNL     1      30.389  42.676  53.891  1.00  0.00     0.015 C 
HETATM   16  C   UNL     1      31.117  43.998  55.878  1.00  0.00     0.015 C 
ENDBRANCH  10  14
ENDBRANCH   1   5
BRANCH   2  17
HETATM   17  C   UNL     1      24.978  44.276  50.206  1.00  0.00     0.105 C 
BRANCH  17  18
HETATM   18  C   UNL     1      23.601  44.861  49.899  1.00  0.00     0.036 C 
BRANCH  18  19
HETATM   19  C   UNL     1      23.652  46.285  49.345  1.00  0.00     0.176 C 
BRANCH  19  20
HETATM   20  O   UNL     1      24.530  47.041  50.186  1.00  0.00    -0.350 OA
BRANCH  20  21
HETATM   21  C   UNL     1      25.264  48.023  49.588  1.00  0.00     0.086 A 
HETATM   22  C   UNL     1      24.789  49.073  48.810  1.00  0.00     0.152 A 
HETATM   23  N   UNL     1      25.578  50.026  48.253  1.00  0.00    -0.270 NA
HETATM   24  C   UNL     1      26.905  49.920  48.475  1.00  0.00     0.116 A 
HETATM   25  C   UNL     1      27.479  48.911  49.230  1.00  0.00     0.022 A 
HETATM   26  C   UNL     1      26.640  47.952  49.793  1.00  0.00     0.039 A 
ENDBRANCH  20  21
ENDBRANCH  19  20
ENDBRANCH  18  19
ENDBRANCH  17  18
ENDBRANCH   2  17
TORSDOF 8
ENDMDL
MODEL 4
REMARK VINA RESULT:      -7.9      3.004      5.400
REMARK  8 active torsions:
REMARK  status: ('A' for Active; 'I' for Inactive)
REMARK    1  A    between atoms: C_3  and  N_4 
REMARK       I    between atoms: N_4  and  C_5 
REMARK    2  A    between atoms: C_5  and  C_6 
REMARK    3  A    between atoms: C_6  and  C_7 
REMARK    4  A    between atoms: C_7  and  C_8 
REMARK    5  A    between atoms: C_8  and  O_9 
REMARK    6  A    between atoms: O_9  and  C_10 
REMARK    7  A    between atoms: C_18  and  C_19 
REMARK    8  A    between atoms: C_22  and  O_23 
ROOT
HETATM    1  N   UNL     1      25.401  48.071  50.075  1.00  0.00    -0.327 N 
HETATM    2  C   UNL     1      26.457  48.391  49.235  1.00  0.00     0.222 C 
HETATM    3  O   UNL     1      27.448  47.705  49.020  1.00  0.00    -0.273 OA
HETATM    4  H   UNL     1      24.524  48.523  49.851  1.00  0.00     0.169 HD
ENDROOT
BRANCH   1   5
HETATM    5  C   UNL     1      25.305  46.926  50.902  1.00  0.00     0.041 A 
HETATM    6  C   UNL     1      24.700  45.714  50.544  1.00  0.00    -0.033 A 
HETATM    7  C   UNL     1      24.191  45.379  49.171  1.00  0.00     0.050 C 
HETATM    8  C   UNL     1      24.595  44.708  51.519  1.00  0.00     0.046 A 
HETATM    9  C   UNL     1      25.136  44.869  52.795  1.00  0.00     0.072 A 
HETATM   10  C   UNL     1      25.845  46.024  53.145  1.00  0.00    -0.019 A 
HETATM   11  C   UNL     1      25.917  47.040  52.170  1.00  0.00     0.040 A 
BRANCH   9  12
HETATM   12  O   UNL     1      24.934  43.818  53.645  1.00  0.00    -0.360 OA
HETATM   13  H   UNL     1      24.128  43.345  53.390  1.00  0.00     0.217 HD
ENDBRANCH   9  12
BRANCH  10  14
HETATM   14  C   UNL     1      26.515  46.171  54.508  1.00  0.00     0.013 C 
HETATM   15  C   UNL     1      27.892  45.492  54.513  1.00  0.00     0.015 C 
HETATM   16  C   UNL     1      26.674  47.610  55.021  1.00  0.00     0.015 C 
ENDBRANCH  10  14
ENDBRANCH   1   5
BRANCH   2  17
HETATM   17  C   UNL     1      26.214  49.703  48.504  1.00  0.00     0.105 C 
BRANCH  17  18
HETATM   18  C   UNL     1      24.794  49.847  47.959  1.00  0.00     0.036 C 
BRANCH  18  19
HETATM   19  C   UNL     1      23.923  50.808  48.768  1.00  0.00     0.176 C 
BRANCH  19  20
HETATM   20  O   UNL     1      23.026  50.014  49.554  1.00  0.00    -0.350 OA
BRANCH  20  21
HETATM   21  C   UNL     1      21.708  50.046  49.206  1.00  0.00     0.086 A 
HETATM   22  C   UNL     1      20.795  48.999  49.266  1.00  0.00     0.152 A 
HETATM   23  N   UNL     1      19.489  49.104  48.915  1.00  0.00    -0.270 NA
HETATM   24  C   UNL     1      19.076  50.311  48.471  1.00  0.00     0.116 A 
HETATM   25  C   UNL     1      19.905  51.415  48.368  1.00  0.00     0.022 A 
HETATM   26  C   UNL     1      21.239  51.274  48.745  1.00  0.00     0.039 A 
ENDBRANCH  20  21
ENDBRANCH  19  20
ENDBRANCH  18  19
ENDBRANCH  17  18
ENDBRANCH   2  17
TORSDOF 8
ENDMDL
MODEL 5
REMARK VINA RESULT:      -7.7      1.592      2.082
REMARK  8 active torsions:
REMARK  status: ('A' for Active; 'I' for Inactive)
REMARK    1  A    between atoms: C_3  and  N_4 
REMARK       I    between atoms: N_4  and  C_5 
REMARK    2  A    between atoms: C_5  and  C_6 
REMARK    3  A    between atoms: C_6  and  C_7 
REMARK    4  A    between atoms: C_7  and  C_8 
REMARK    5  A    between atoms: C_8  and  O_9 
REMARK    6  A    between atoms: O_9  and  C_10 
REMARK    7  A    between atoms: C_18  and  C_19 
REMARK    8  A    between atoms: C_22  and  O_23 
ROOT
HETATM    1  N   UNL     1      27.333  45.014  53.465  1.00  0.00    -0.327 N 
HETATM    2  C   UNL     1      26.032  44.606  53.719  1.00  0.00     0.222 C 
HETATM    3  O   UNL     1      25.668  43.845  54.607  1.00  0.00    -0.273 OA
HETATM    4  H   UNL     1      27.417  45.901  52.987  1.00  0.00     0.169 HD
ENDROOT
BRANCH   1   5
HETATM    5  C   UNL     1      28.497  44.568  54.137  1.00  0.00     0.041 A 
HETATM    6  C   UNL     1      29.330  43.526  53.714  1.00  0.00    -0.033 A 
HETATM    7  C   UNL     1      29.213  42.811  52.397  1.00  0.00     0.050 C 
HETATM    8  C   UNL     1      30.389  43.136  54.551  1.00  0.00     0.046 A 
HETATM    9  C   UNL     1      30.660  43.805  55.744  1.00  0.00     0.072 A 
HETATM   10  C   UNL     1      29.915  44.924  56.138  1.00  0.00    -0.019 A 
HETATM   11  C   UNL     1      28.835  45.286  55.306  1.00  0.00     0.040 A 
BRANCH   9  12
HETATM   12  O   UNL     1      31.703  43.299  56.467  1.00  0.00    -0.360 OA
HETATM   13  H   UNL     1      31.671  43.647  57.370  1.00  0.00     0.217 HD
ENDBRANCH   9  12
BRANCH  10  14
HETATM   14  C   UNL     1      30.260  45.715  57.395  1.00  0.00     0.013 C 
HETATM   15  C   UNL     1      28.992  46.288  58.042  1.00  0.00     0.015 C 
HETATM   16  C   UNL     1      31.057  44.952  58.464  1.00  0.00     0.015 C 
ENDBRANCH  10  14
ENDBRANCH   1   5
BRANCH   2  17
HETATM   17  C   UNL     1      25.039  45.296  52.795  1.00  0.00     0.105 C 
BRANCH  17  18
HETATM   18  C   UNL     1      25.028  44.731  51.376  1.00  0.00     0.036 C 
BRANCH  18  19
HETATM   19  C   UNL     1      24.964  45.805  50.291  1.00  0.00     0.176 C 
BRANCH  19  20
HETATM   20  O   UNL     1      26.105  46.654  50.462  1.00  0.00    -0.350 OA
BRANCH  20  21
HETATM   21  C   UNL     1      26.132  47.805  49.731  1.00  0.00     0.086 A 
HETATM   22  C   UNL     1      27.255  48.519  49.327  1.00  0.00     0.152 A 
HETATM   23  N   UNL     1      27.210  49.656  48.587  1.00  0.00    -0.270 NA
HETATM   24  C   UNL     1      25.985  50.108  48.244  1.00  0.00     0.116 A 
HETATM   25  C   UNL     1      24.806  49.475  48.600  1.00  0.00     0.022 A 
HETATM   26  C   UNL     1      24.889  48.306  49.353  1.00  0.00     0.039 A 
ENDBRANCH  20  21
ENDBRANCH  19  20
ENDBRANCH  18  19
ENDBRANCH  17  18
ENDBRANCH   2  17
TORSDOF 8
ENDMDL
MODEL 6
REMARK VINA RESULT:      -7.7      3.029      4.745
REMARK  8 active torsions:
REMARK  status: ('A' for Active; 'I' for Inactive)
REMARK    1  A    between atoms: C_3  and  N_4 
REMARK       I    between atoms: N_4  and  C_5 
REMARK    2  A    between atoms: C_5  and  C_6 
REMARK    3  A    between atoms: C_6  and  C_7 
REMARK    4  A    between atoms: C_7  and  C_8 
REMARK    5  A    between atoms: C_8  and  O_9 
REMARK    6  A    between atoms: O_9  and  C_10 
REMARK    7  A    between atoms: C_18  and  C_19 
REMARK    8  A    between atoms: C_22  and  O_23 
ROOT
HETATM    1  N   UNL     1      25.593  46.171  52.420  1.00  0.00    -0.327 N 
HETATM    2  C   UNL     1      25.651  47.086  51.377  1.00  0.00     0.222 C 
HETATM    3  O   UNL     1      26.598  47.808  51.096  1.00  0.00    -0.273 OA
HETATM    4  H   UNL     1      24.939  45.412  52.285  1.00  0.00     0.169 HD
ENDROOT
BRANCH   1   5
HETATM    5  C   UNL     1      26.590  45.955  53.401  1.00  0.00     0.041 A 
HETATM    6  C   UNL     1      26.920  46.842  54.433  1.00  0.00    -0.033 A 
HETATM    7  C   UNL     1      26.165  48.099  54.762  1.00  0.00     0.050 C 
HETATM    8  C   UNL     1      28.009  46.524  55.262  1.00  0.00     0.046 A 
HETATM    9  C   UNL     1      28.711  45.328  55.119  1.00  0.00     0.072 A 
HETATM   10  C   UNL     1      28.332  44.370  54.170  1.00  0.00    -0.019 A 
HETATM   11  C   UNL     1      27.259  44.713  53.322  1.00  0.00     0.040 A 
BRANCH   9  12
HETATM   12  O   UNL     1      29.762  45.167  55.978  1.00  0.00    -0.360 OA
HETATM   13  H   UNL     1      30.458  44.652  55.545  1.00  0.00     0.217 HD
ENDBRANCH   9  12
BRANCH  10  14
HETATM   14  C   UNL     1      29.038  43.022  54.066  1.00  0.00     0.013 C 
HETATM   15  C   UNL     1      28.037  41.908  53.729  1.00  0.00     0.015 C 
HETATM   16  C   UNL     1      30.203  42.956  53.067  1.00  0.00     0.015 C 
ENDBRANCH  10  14
ENDBRANCH   1   5
BRANCH   2  17
HETATM   17  C   UNL     1      24.392  47.042  50.524  1.00  0.00     0.105 C 
BRANCH  17  18
HETATM   18  C   UNL     1      24.361  48.099  49.422  1.00  0.00     0.036 C 
BRANCH  18  19
HETATM   19  C   UNL     1      22.953  48.419  48.921  1.00  0.00     0.176 C 
BRANCH  19  20
HETATM   20  O   UNL     1      22.542  49.639  49.547  1.00  0.00    -0.350 OA
BRANCH  20  21
HETATM   21  C   UNL     1      21.253  50.036  49.341  1.00  0.00     0.086 A 
HETATM   22  C   UNL     1      20.096  49.320  49.628  1.00  0.00     0.152 A 
HETATM   23  N   UNL     1      18.839  49.782  49.406  1.00  0.00    -0.270 NA
HETATM   24  C   UNL     1      18.733  51.013  48.863  1.00  0.00     0.116 A 
HETATM   25  C   UNL     1      19.822  51.804  48.535  1.00  0.00     0.022 A 
HETATM   26  C   UNL     1      21.098  51.302  48.782  1.00  0.00     0.039 A 
ENDBRANCH  20  21
ENDBRANCH  19  20
ENDBRANCH  18  19
ENDBRANCH  17  18
ENDBRANCH   2  17
TORSDOF 8
ENDMDL
MODEL 7
REMARK VINA RESULT:      -7.6      2.067      3.620
REMARK  8 active torsions:
REMARK  status: ('A' for Active; 'I' for Inactive)
REMARK    1  A    between atoms: C_3  and  N_4 
REMARK       I    between atoms: N_4  and  C_5 
REMARK    2  A    between atoms: C_5  and  C_6 
REMARK    3  A    between atoms: C_6  and  C_7 
REMARK    4  A    between atoms: C_7  and  C_8 
REMARK    5  A    between atoms: C_8  and  O_9 
REMARK    6  A    between atoms: O_9  and  C_10 
REMARK    7  A    between atoms: C_18  and  C_19 
REMARK    8  A    between atoms: C_22  and  O_23 
ROOT
HETATM    1  N   UNL     1      26.332  45.888  52.581  1.00  0.00    -0.327 N 
HETATM    2  C   UNL     1      25.177  45.152  52.362  1.00  0.00     0.222 C 
HETATM    3  O   UNL     1      24.648  44.379  53.151  1.00  0.00    -0.273 OA
HETATM    4  H   UNL     1      26.413  46.731  52.027  1.00  0.00     0.169 HD
ENDROOT
BRANCH   1   5
HETATM    5  C   UNL     1      27.160  45.828  53.728  1.00  0.00     0.041 A 
HETATM    6  C   UNL     1      27.184  46.771  54.763  1.00  0.00    -0.033 A 
HETATM    7  C   UNL     1      26.226  47.921  54.902  1.00  0.00     0.050 C 
HETATM    8  C   UNL     1      28.140  46.620  55.781  1.00  0.00     0.046 A 
HETATM    9  C   UNL     1      29.006  45.527  55.812  1.00  0.00     0.072 A 
HETATM   10  C   UNL     1      28.928  44.509  54.854  1.00  0.00    -0.019 A 
HETATM   11  C   UNL     1      27.987  44.687  53.820  1.00  0.00     0.040 A 
BRANCH   9  12
HETATM   12  O   UNL     1      29.899  45.527  56.846  1.00  0.00    -0.360 OA
HETATM   13  H   UNL     1      29.584  46.115  57.548  1.00  0.00     0.217 HD
ENDBRANCH   9  12
BRANCH  10  14
HETATM   14  C   UNL     1      29.810  43.267  54.932  1.00  0.00     0.013 C 
HETATM   15  C   UNL     1      30.258  42.829  53.531  1.00  0.00     0.015 C 
HETATM   16  C   UNL     1      31.051  43.386  55.831  1.00  0.00     0.015 C 
ENDBRANCH  10  14
ENDBRANCH   1   5
BRANCH   2  17
HETATM   17  C   UNL     1      24.553  45.477  51.013  1.00  0.00     0.105 C 
BRANCH  17  18
HETATM   18  C   UNL     1      25.448  46.325  50.112  1.00  0.00     0.036 C 
BRANCH  18  19
HETATM   19  C   UNL     1      24.882  47.716  49.823  1.00  0.00     0.176 C 
BRANCH  19  20
HETATM   20  O   UNL     1      23.532  47.544  49.379  1.00  0.00    -0.350 OA
BRANCH  20  21
HETATM   21  C   UNL     1      22.818  48.678  49.122  1.00  0.00     0.086 A 
HETATM   22  C   UNL     1      21.435  48.822  49.127  1.00  0.00     0.152 A 
HETATM   23  N   UNL     1      20.788  49.987  48.873  1.00  0.00    -0.270 NA
HETATM   24  C   UNL     1      21.559  51.058  48.589  1.00  0.00     0.116 A 
HETATM   25  C   UNL     1      22.943  51.020  48.552  1.00  0.00     0.022 A 
HETATM   26  C   UNL     1      23.575  49.809  48.826  1.00  0.00     0.039 A 
ENDBRANCH  20  21
ENDBRANCH  19  20
ENDBRANCH  18  19
ENDBRANCH  17  18
ENDBRANCH   2  17
TORSDOF 8
ENDMDL
MODEL 8
REMARK VINA RESULT:      -7.6      2.370      4.412
REMARK  8 active torsions:
REMARK  status: ('A' for Active; 'I' for Inactive)
REMARK    1  A    between atoms: C_3  and  N_4 
REMARK       I    between atoms: N_4  and  C_5 
REMARK    2  A    between atoms: C_5  and  C_6 
REMARK    3  A    between atoms: C_6  and  C_7 
REMARK    4  A    between atoms: C_7  and  C_8 
REMARK    5  A    between atoms: C_8  and  O_9 
REMARK    6  A    between atoms: O_9  and  C_10 
REMARK    7  A    between atoms: C_18  and  C_19 
REMARK    8  A    between atoms: C_22  and  O_23 
ROOT
HETATM    1  N   UNL     1      26.156  45.996  50.863  1.00  0.00    -0.327 N 
HETATM    2  C   UNL     1      26.747  46.785  49.887  1.00  0.00     0.222 C 
HETATM    3  O   UNL     1      27.596  46.429  49.080  1.00  0.00    -0.273 OA
HETATM    4  H   UNL     1      25.241  46.304  51.166  1.00  0.00     0.169 HD
ENDROOT
BRANCH   1   5
HETATM    5  C   UNL     1      26.477  44.649  51.159  1.00  0.00     0.041 A 
HETATM    6  C   UNL     1      25.958  43.527  50.502  1.00  0.00    -0.033 A 
HETATM    7  C   UNL     1      25.094  43.572  49.273  1.00  0.00     0.050 C 
HETATM    8  C   UNL     1      26.299  42.253  50.987  1.00  0.00     0.046 A 
HETATM    9  C   UNL     1      27.184  42.091  52.053  1.00  0.00     0.072 A 
HETATM   10  C   UNL     1      27.807  43.190  52.656  1.00  0.00    -0.019 A 
HETATM   11  C   UNL     1      27.434  44.465  52.182  1.00  0.00     0.040 A 
BRANCH   9  12
HETATM   12  O   UNL     1      27.401  40.796  52.433  1.00  0.00    -0.360 OA
HETATM   13  H   UNL     1      26.556  40.378  52.656  1.00  0.00     0.217 HD
ENDBRANCH   9  12
BRANCH  10  14
HETATM   14  C   UNL     1      28.844  43.017  53.761  1.00  0.00     0.013 C 
HETATM   15  C   UNL     1      30.230  42.730  53.167  1.00  0.00     0.015 C 
HETATM   16  C   UNL     1      28.965  44.186  54.751  1.00  0.00     0.015 C 
ENDBRANCH  10  14
ENDBRANCH   1   5
BRANCH   2  17
HETATM   17  C   UNL     1      26.148  48.184  49.861  1.00  0.00     0.105 C 
BRANCH  17  18
HETATM   18  C   UNL     1      26.521  48.986  48.615  1.00  0.00     0.036 C 
BRANCH  18  19
HETATM   19  C   UNL     1      25.398  49.897  48.117  1.00  0.00     0.176 C 
BRANCH  19  20
HETATM   20  O   UNL     1      24.502  50.111  49.212  1.00  0.00    -0.350 OA
BRANCH  20  21
HETATM   21  C   UNL     1      23.173  49.928  48.967  1.00  0.00     0.086 A 
HETATM   22  C   UNL     1      22.448  48.748  49.088  1.00  0.00     0.152 A 
HETATM   23  N   UNL     1      21.119  48.640  48.837  1.00  0.00    -0.270 NA
HETATM   24  C   UNL     1      20.484  49.762  48.437  1.00  0.00     0.116 A 
HETATM   25  C   UNL     1      21.114  50.985  48.280  1.00  0.00     0.022 A 
HETATM   26  C   UNL     1      22.478  51.063  48.552  1.00  0.00     0.039 A 
ENDBRANCH  20  21
ENDBRANCH  19  20
ENDBRANCH  18  19
ENDBRANCH  17  18
ENDBRANCH   2  17
TORSDOF 8
ENDMDL
MODEL 9
REMARK VINA RESULT:      -7.6      2.430      4.885
REMARK  8 active torsions:
REMARK  status: ('A' for Active; 'I' for Inactive)
REMARK    1  A    between atoms: C_3  and  N_4 
REMARK       I    between atoms: N_4  and  C_5 
REMARK    2  A    between atoms: C_5  and  C_6 
REMARK    3  A    between atoms: C_6  and  C_7 
REMARK    4  A    between atoms: C_7  and  C_8 
REMARK    5  A    between atoms: C_8  and  O_9 
REMARK    6  A    between atoms: O_9  and  C_10 
REMARK    7  A    between atoms: C_18  and  C_19 
REMARK    8  A    between atoms: C_22  and  O_23 
ROOT
HETATM    1  N   UNL     1      26.231  45.591  52.708  1.00  0.00    -0.327 N 
HETATM    2  C   UNL     1      25.077  44.821  52.676  1.00  0.00     0.222 C 
HETATM    3  O   UNL     1      24.629  44.146  53.594  1.00  0.00    -0.273 OA
HETATM    4  H   UNL     1      26.250  46.359  52.050  1.00  0.00     0.169 HD
ENDROOT
BRANCH   1   5
HETATM    5  C   UNL     1      27.149  45.681  53.782  1.00  0.00     0.041 A 
HETATM    6  C   UNL     1      27.230  46.740  54.695  1.00  0.00    -0.033 A 
HETATM    7  C   UNL     1      26.254  47.880  54.779  1.00  0.00     0.050 C 
HETATM    8  C   UNL     1      28.268  46.727  55.641  1.00  0.00     0.046 A 
HETATM    9  C   UNL     1      29.164  45.660  55.727  1.00  0.00     0.072 A 
HETATM   10  C   UNL     1      29.038  44.536  54.903  1.00  0.00    -0.019 A 
HETATM   11  C   UNL     1      28.013  44.573  53.936  1.00  0.00     0.040 A 
BRANCH   9  12
HETATM   12  O   UNL     1      30.137  45.798  56.677  1.00  0.00    -0.360 OA
HETATM   13  H   UNL     1      29.761  46.207  57.470  1.00  0.00     0.217 HD
ENDBRANCH   9  12
BRANCH  10  14
HETATM   14  C   UNL     1      29.958  43.328  55.051  1.00  0.00     0.013 C 
HETATM   15  C   UNL     1      30.351  42.772  53.675  1.00  0.00     0.015 C 
HETATM   16  C   UNL     1      31.235  43.559  55.872  1.00  0.00     0.015 C 
ENDBRANCH  10  14
ENDBRANCH   1   5
BRANCH   2  17
HETATM   17  C   UNL     1      24.341  44.971  51.354  1.00  0.00     0.105 C 
BRANCH  17  18
HETATM   18  C   UNL     1      25.125  45.749  50.299  1.00  0.00     0.036 C 
BRANCH  18  19
HETATM   19  C   UNL     1      25.867  44.855  49.305  1.00  0.00     0.176 C 
BRANCH  19  20
HETATM   20  O   UNL     1      26.982  44.282  49.996  1.00  0.00    -0.350 OA
BRANCH  20  21
HETATM   21  C   UNL     1      27.072  42.921  50.000  1.00  0.00     0.086 A 
HETATM   22  C   UNL     1      26.697  42.049  48.984  1.00  0.00     0.152 A 
HETATM   23  N   UNL     1      26.825  40.700  49.050  1.00  0.00    -0.270 NA
HETATM   24  C   UNL     1      27.344  40.196  50.190  1.00  0.00     0.116 A 
HETATM   25  C   UNL     1      27.743  40.976  51.263  1.00  0.00     0.022 A 
HETATM   26  C   UNL     1      27.604  42.359  51.158  1.00  0.00     0.039 A 
ENDBRANCH  20  21
ENDBRANCH  19  20
ENDBRANCH  18  19
ENDBRANCH  17  18
ENDBRANCH   2  17
TORSDOF 8
ENDMDL
MODEL 10
REMARK VINA RESULT:      -7.5      3.228      5.517
REMARK  8 active torsions:
REMARK  status: ('A' for Active; 'I' for Inactive)
REMARK    1  A    between atoms: C_3  and  N_4 
REMARK       I    between atoms: N_4  and  C_5 
REMARK    2  A    between atoms: C_5  and  C_6 
REMARK    3  A    between atoms: C_6  and  C_7 
REMARK    4  A    between atoms: C_7  and  C_8 
REMARK    5  A    between atoms: C_8  and  O_9 
REMARK    6  A    between atoms: O_9  and  C_10 
REMARK    7  A    between atoms: C_18  and  C_19 
REMARK    8  A    between atoms: C_22  and  O_23 
ROOT
HETATM    1  N   UNL     1      26.442  43.143  52.807  1.00  0.00    -0.327 N 
HETATM    2  C   UNL     1      26.133  43.606  51.536  1.00  0.00     0.222 C 
HETATM    3  O   UNL     1      26.890  44.187  50.769  1.00  0.00    -0.273 OA
HETATM    4  H   UNL     1      25.869  42.377  53.133  1.00  0.00     0.169 HD
ENDROOT
BRANCH   1   5
HETATM    5  C   UNL     1      27.670  43.323  53.488  1.00  0.00     0.041 A 
HETATM    6  C   UNL     1      28.740  42.419  53.487  1.00  0.00    -0.033 A 
HETATM    7  C   UNL     1      28.820  41.181  52.638  1.00  0.00     0.050 C 
HETATM    8  C   UNL     1      29.850  42.699  54.301  1.00  0.00     0.046 A 
HETATM    9  C   UNL     1      29.931  43.876  55.045  1.00  0.00     0.072 A 
HETATM   10  C   UNL     1      28.929  44.852  54.977  1.00  0.00    -0.019 A 
HETATM   11  C   UNL     1      27.805  44.546  54.182  1.00  0.00     0.040 A 
BRANCH   9  12
HETATM   12  O   UNL     1      31.057  44.000  55.810  1.00  0.00    -0.360 OA
HETATM   13  H   UNL     1      31.005  44.813  56.334  1.00  0.00     0.217 HD
ENDBRANCH   9  12
BRANCH  10  14
HETATM   14  C   UNL     1      29.052  46.180  55.716  1.00  0.00     0.013 C 
HETATM   15  C   UNL     1      28.151  47.244  55.076  1.00  0.00     0.015 C 
HETATM   16  C   UNL     1      28.763  46.132  57.224  1.00  0.00     0.015 C 
ENDBRANCH  10  14
ENDBRANCH   1   5
BRANCH   2  17
HETATM   17  C   UNL     1      24.716  43.227  51.132  1.00  0.00     0.105 C 
BRANCH  17  18
HETATM   18  C   UNL     1      24.650  42.290  49.928  1.00  0.00     0.036 C 
BRANCH  18  19
HETATM   19  C   UNL     1      25.448  41.000  50.114  1.00  0.00     0.176 C 
BRANCH  19  20
HETATM   20  O   UNL     1      26.583  41.069  49.243  1.00  0.00    -0.350 OA
BRANCH  20  21
HETATM   21  C   UNL     1      27.409  39.983  49.219  1.00  0.00     0.086 A 
HETATM   22  C   UNL     1      28.762  39.962  48.900  1.00  0.00     0.152 A 
HETATM   23  N   UNL     1      29.530  38.843  48.908  1.00  0.00    -0.270 NA
HETATM   24  C   UNL     1      28.914  37.688  49.239  1.00  0.00     0.116 A 
HETATM   25  C   UNL     1      27.572  37.600  49.567  1.00  0.00     0.022 A 
HETATM   26  C   UNL     1      26.814  38.770  49.556  1.00  0.00     0.039 A 
ENDBRANCH  20  21
ENDBRANCH  19  20
ENDBRANCH  18  19
ENDBRANCH  17  18
ENDBRANCH   2  17
TORSDOF 8
ENDMDL
