MODEL 1
REMARK VINA RESULT:      -8.3      0.000      0.000
REMARK  10 active torsions:
REMARK  status: ('A' for Active; 'I' for Inactive)
REMARK    1  A    between atoms: C_6  and  C_7 
REMARK    2  A    between atoms: C_9  and  C_10 
REMARK    3  A    between atoms: C_10  and  C_11 
REMARK       I    between atoms: C_11  and  N_12 
REMARK    4  A    between atoms: N_12  and  C_13 
REMARK    5  A    between atoms: C_13  and  C_14 
REMARK    6  A    between atoms: C_14  and  N_15 
REMARK    7  A    between atoms: C_26  and  C_27 
REMARK    8  A    between atoms: C_27  and  O_28 
REMARK    9  A    between atoms: O_28  and  C_29 
REMARK   10  A    between atoms: C_29  and  C_30 
ROOT
HETATM    1  C   UNL     1      26.809  43.474  52.496  1.00  0.00     0.166 C 
HETATM    2  N   UNL     1      26.299  43.372  51.111  1.00  0.00    -0.318 N 
HETATM    3  C   UNL     1      26.027  44.096  50.077  1.00  0.00     0.011 C 
HETATM    4  C   UNL     1      26.063  41.863  50.791  1.00  0.00     0.170 C 
HETATM    5  S   UNL     1      24.919  41.668  49.517  1.00  0.00    -0.086 SA
HETATM    6  C   UNL     1      25.250  43.379  48.978  1.00  0.00     0.135 C 
HETATM    7  N   UNL     1      26.745  40.910  51.334  1.00  0.00    -0.229 NA
HETATM    8  C   UNL     1      27.858  41.295  52.077  1.00  0.00     0.048 C 
HETATM    9  C   UNL     1      28.949  40.252  52.155  1.00  0.00     0.071 C 
HETATM   10  C   UNL     1      27.984  42.548  52.580  1.00  0.00     0.069 C 
ENDROOT
BRANCH   3  11
HETATM   11  C   UNL     1      26.511  45.509  49.905  1.00  0.00     0.156 C 
BRANCH  11  12
HETATM   12  C   UNL     1      25.348  46.482  50.017  1.00  0.00     0.223 C 
HETATM   13  N   UNL     1      25.367  47.570  49.178  1.00  0.00    -0.359 N 
HETATM   14  H   UNL     1      26.221  47.754  48.655  1.00  0.00     0.162 HD
HETATM   15  O   UNL     1      24.435  46.287  50.816  1.00  0.00    -0.273 OA
BRANCH  13  16
HETATM   16  C   UNL     1      24.472  48.707  49.401  1.00  0.00     0.150 C 
BRANCH  16  17
HETATM   17  C   UNL     1      23.178  48.722  48.547  1.00  0.00     0.253 C 
BRANCH  17  18
HETATM   18  N   UNL     1      22.053  47.918  49.187  1.00  0.00    -0.077 N 
HETATM   19  H   UNL     1      22.324  47.683  50.151  1.00  0.00     0.279 HD
HETATM   20  C   UNL     1      20.749  48.671  49.251  1.00  0.00     0.269 C 
HETATM   21  C   UNL     1      21.857  46.593  48.485  1.00  0.00     0.269 C 
ENDBRANCH  17  18
ENDBRANCH  16  17
ENDBRANCH  13  16
ENDBRANCH  11  12
ENDBRANCH   3  11
BRANCH   1  22
HETATM   22  C   UNL     1      26.631  44.821  53.203  1.00  0.00    -0.024 A 
HETATM   23  C   UNL     1      25.821  44.936  54.375  1.00  0.00    -0.053 A 
HETATM   24  C   UNL     1      25.756  46.161  55.079  1.00  0.00     0.014 A 
HETATM   25  C   UNL     1      25.014  43.805  54.970  1.00  0.00     0.049 C 
HETATM   26  C   UNL     1      26.500  47.271  54.687  1.00  0.00    -0.061 A 
HETATM   27  C   UNL     1      26.532  48.520  55.521  1.00  0.00     0.048 C 
HETATM   28  C   UNL     1      27.307  47.160  53.564  1.00  0.00     0.007 A 
HETATM   29  C   UNL     1      27.366  45.963  52.839  1.00  0.00     0.011 A 
ENDBRANCH   1  22
BRANCH  10  30
HETATM   30  C   UNL     1      29.325  42.998  52.957  1.00  0.00     0.294 C 
HETATM   31  O   UNL     1      30.180  43.366  52.178  1.00  0.00    -0.259 OA
BRANCH  30  32
HETATM   32  O   UNL     1      29.406  42.884  54.304  1.00  0.00    -0.313 OA
BRANCH  32  33
HETATM   33  C   UNL     1      30.688  43.170  54.898  1.00  0.00     0.217 C 
BRANCH  33  34
HETATM   34  C   UNL     1      30.459  44.174  56.003  1.00  0.00    -0.034 A 
HETATM   35  C   UNL     1      31.194  44.109  57.193  1.00  0.00     0.009 A 
HETATM   36  C   UNL     1      30.935  45.002  58.234  1.00  0.00     0.001 A 
HETATM   37  C   UNL     1      29.940  45.968  58.099  1.00  0.00     0.000 A 
HETATM   38  C   UNL     1      29.210  46.053  56.915  1.00  0.00     0.001 A 
HETATM   39  C   UNL     1      29.476  45.166  55.869  1.00  0.00     0.009 A 
ENDBRANCH  33  34
ENDBRANCH  32  33
ENDBRANCH  30  32
ENDBRANCH  10  30
TORSDOF 10
ENDMDL
MODEL 2
REMARK VINA RESULT:      -7.5     10.302     14.784
REMARK  10 active torsions:
REMARK  status: ('A' for Active; 'I' for Inactive)
REMARK    1  A    between atoms: C_6  and  C_7 
REMARK    2  A    between atoms: C_9  and  C_10 
REMARK    3  A    between atoms: C_10  and  C_11 
REMARK       I    between atoms: C_11  and  N_12 
REMARK    4  A    between atoms: N_12  and  C_13 
REMARK    5  A    between atoms: C_13  and  C_14 
REMARK    6  A    between atoms: C_14  and  N_15 
REMARK    7  A    between atoms: C_26  and  C_27 
REMARK    8  A    between atoms: C_27  and  O_28 
REMARK    9  A    between atoms: O_28  and  C_29 
REMARK   10  A    between atoms: C_29  and  C_30 
ROOT
HETATM    1  C   UNL     1      18.043  49.979  46.394  1.00  0.00     0.166 C 
HETATM    2  N   UNL     1      19.161  50.261  47.321  1.00  0.00    -0.318 N 
HETATM    3  C   UNL     1      19.686  51.219  48.011  1.00  0.00     0.011 C 
HETATM    4  C   UNL     1      19.924  48.926  47.583  1.00  0.00     0.170 C 
HETATM    5  S   UNL     1      21.543  49.224  48.094  1.00  0.00    -0.086 SA
HETATM    6  C   UNL     1      21.057  50.908  48.600  1.00  0.00     0.135 C 
HETATM    7  N   UNL     1      19.356  47.767  47.540  1.00  0.00    -0.229 NA
HETATM    8  C   UNL     1      17.966  47.764  47.452  1.00  0.00     0.048 C 
HETATM    9  C   UNL     1      17.305  46.532  48.024  1.00  0.00     0.071 C 
HETATM   10  C   UNL     1      17.276  48.840  46.996  1.00  0.00     0.069 C 
ENDROOT
BRANCH   3  11
HETATM   11  C   UNL     1      18.978  52.513  48.304  1.00  0.00     0.156 C 
BRANCH  11  12
HETATM   12  C   UNL     1      17.861  52.286  49.310  1.00  0.00     0.223 C 
HETATM   13  N   UNL     1      16.783  53.136  49.241  1.00  0.00    -0.359 N 
HETATM   14  H   UNL     1      16.861  53.958  48.645  1.00  0.00     0.162 HD
HETATM   15  O   UNL     1      17.927  51.378  50.134  1.00  0.00    -0.273 OA
BRANCH  13  16
HETATM   16  C   UNL     1      15.807  53.201  50.330  1.00  0.00     0.150 C 
BRANCH  16  17
HETATM   17  C   UNL     1      14.491  53.958  50.011  1.00  0.00     0.253 C 
BRANCH  17  18
HETATM   18  N   UNL     1      14.724  55.170  49.118  1.00  0.00    -0.077 N 
HETATM   19  H   UNL     1      15.700  55.157  48.791  1.00  0.00     0.279 HD
HETATM   20  C   UNL     1      13.837  55.188  47.900  1.00  0.00     0.269 C 
HETATM   21  C   UNL     1      14.573  56.460  49.893  1.00  0.00     0.269 C 
ENDBRANCH  17  18
ENDBRANCH  16  17
ENDBRANCH  13  16
ENDBRANCH  11  12
ENDBRANCH   3  11
BRANCH   1  22
HETATM   22  C   UNL     1      17.483  51.163  45.601  1.00  0.00    -0.024 A 
HETATM   23  C   UNL     1      17.860  51.381  44.240  1.00  0.00    -0.053 A 
HETATM   24  C   UNL     1      17.250  52.412  43.488  1.00  0.00     0.014 A 
HETATM   25  C   UNL     1      18.877  50.551  43.492  1.00  0.00     0.049 C 
HETATM   26  C   UNL     1      16.246  53.214  44.025  1.00  0.00    -0.061 A 
HETATM   27  C   UNL     1      15.509  54.210  43.176  1.00  0.00     0.048 C 
HETATM   28  C   UNL     1      15.858  52.992  45.339  1.00  0.00     0.007 A 
HETATM   29  C   UNL     1      16.467  51.993  46.107  1.00  0.00     0.011 A 
ENDBRANCH   1  22
BRANCH  10  30
HETATM   30  C   UNL     1      15.855  48.929  47.333  1.00  0.00     0.294 C 
HETATM   31  O   UNL     1      15.409  49.442  48.339  1.00  0.00    -0.259 OA
BRANCH  30  32
HETATM   32  O   UNL     1      15.182  48.309  46.335  1.00  0.00    -0.313 OA
BRANCH  32  33
HETATM   33  C   UNL     1      13.915  48.884  45.959  1.00  0.00     0.217 C 
BRANCH  33  34
HETATM   34  C   UNL     1      14.094  49.523  44.603  1.00  0.00    -0.034 A 
HETATM   35  C   UNL     1      13.287  50.596  44.205  1.00  0.00     0.009 A 
HETATM   36  C   UNL     1      13.417  51.143  42.927  1.00  0.00     0.001 A 
HETATM   37  C   UNL     1      14.353  50.626  42.034  1.00  0.00     0.000 A 
HETATM   38  C   UNL     1      15.172  49.567  42.422  1.00  0.00     0.001 A 
HETATM   39  C   UNL     1      15.049  49.027  43.704  1.00  0.00     0.009 A 
ENDBRANCH  33  34
ENDBRANCH  32  33
ENDBRANCH  30  32
ENDBRANCH  10  30
TORSDOF 10
ENDMDL
MODEL 3
REMARK VINA RESULT:      -7.4      6.341     10.144
REMARK  10 active torsions:
REMARK  status: ('A' for Active; 'I' for Inactive)
REMARK    1  A    between atoms: C_6  and  C_7 
REMARK    2  A    between atoms: C_9  and  C_10 
REMARK    3  A    between atoms: C_10  and  C_11 
REMARK       I    between atoms: C_11  and  N_12 
REMARK    4  A    between atoms: N_12  and  C_13 
REMARK    5  A    between atoms: C_13  and  C_14 
REMARK    6  A    between atoms: C_14  and  N_15 
REMARK    7  A    between atoms: C_26  and  C_27 
REMARK    8  A    between atoms: C_27  and  O_28 
REMARK    9  A    between atoms: O_28  and  C_29 
REMARK   10  A    between atoms: C_29  and  C_30 
ROOT
HETATM    1  C   UNL     1      21.425  47.018  48.028  1.00  0.00     0.166 C 
HETATM    2  N   UNL     1      21.982  45.847  47.314  1.00  0.00    -0.318 N 
HETATM    3  C   UNL     1      21.981  45.274  46.157  1.00  0.00     0.011 C 
HETATM    4  C   UNL     1      22.928  45.087  48.294  1.00  0.00     0.170 C 
HETATM    5  S   UNL     1      23.116  43.439  47.825  1.00  0.00    -0.086 SA
HETATM    6  C   UNL     1      22.589  43.876  46.134  1.00  0.00     0.135 C 
HETATM    7  N   UNL     1      23.577  45.670  49.246  1.00  0.00    -0.229 NA
HETATM    8  C   UNL     1      23.559  47.062  49.241  1.00  0.00     0.048 C 
HETATM    9  C   UNL     1      24.757  47.706  49.900  1.00  0.00     0.071 C 
HETATM   10  C   UNL     1      22.599  47.763  48.589  1.00  0.00     0.069 C 
ENDROOT
BRANCH   3  11
HETATM   11  C   UNL     1      21.510  45.949  44.899  1.00  0.00     0.156 C 
BRANCH  11  12
HETATM   12  C   UNL     1      20.108  45.482  44.543  1.00  0.00     0.223 C 
HETATM   13  N   UNL     1      19.607  45.893  43.331  1.00  0.00    -0.359 N 
HETATM   14  H   UNL     1      20.121  46.607  42.820  1.00  0.00     0.162 HD
HETATM   15  O   UNL     1      19.467  44.766  45.308  1.00  0.00    -0.273 OA
BRANCH  13  16
HETATM   16  C   UNL     1      18.182  45.756  43.022  1.00  0.00     0.150 C 
BRANCH  16  17
HETATM   17  C   UNL     1      17.253  46.834  43.638  1.00  0.00     0.253 C 
BRANCH  17  18
HETATM   18  N   UNL     1      16.131  46.224  44.468  1.00  0.00    -0.077 N 
HETATM   19  H   UNL     1      16.350  46.355  45.465  1.00  0.00     0.279 HD
HETATM   20  C   UNL     1      14.789  46.862  44.210  1.00  0.00     0.269 C 
HETATM   21  C   UNL     1      16.046  44.729  44.263  1.00  0.00     0.269 C 
ENDBRANCH  17  18
ENDBRANCH  16  17
ENDBRANCH  13  16
ENDBRANCH  11  12
ENDBRANCH   3  11
BRANCH   1  22
HETATM   22  C   UNL     1      20.121  47.607  47.483  1.00  0.00    -0.024 A 
HETATM   23  C   UNL     1      18.854  47.059  47.856  1.00  0.00    -0.053 A 
HETATM   24  C   UNL     1      17.657  47.682  47.434  1.00  0.00     0.014 A 
HETATM   25  C   UNL     1      18.676  45.834  48.724  1.00  0.00     0.049 C 
HETATM   26  C   UNL     1      17.666  48.857  46.687  1.00  0.00    -0.061 A 
HETATM   27  C   UNL     1      16.393  49.584  46.365  1.00  0.00     0.048 C 
HETATM   28  C   UNL     1      18.892  49.407  46.341  1.00  0.00     0.007 A 
HETATM   29  C   UNL     1      20.089  48.793  46.729  1.00  0.00     0.011 A 
ENDBRANCH   1  22
BRANCH  10  30
HETATM   30  C   UNL     1      22.879  49.163  48.265  1.00  0.00     0.294 C 
HETATM   31  O   UNL     1      23.515  49.541  47.303  1.00  0.00    -0.259 OA
BRANCH  30  32
HETATM   32  O   UNL     1      22.326  49.906  49.253  1.00  0.00    -0.313 OA
BRANCH  32  33
HETATM   33  C   UNL     1      21.849  51.215  48.883  1.00  0.00     0.217 C 
BRANCH  33  34
HETATM   34  C   UNL     1      20.367  51.253  49.170  1.00  0.00    -0.034 A 
HETATM   35  C   UNL     1      19.777  50.305  50.015  1.00  0.00     0.009 A 
HETATM   36  C   UNL     1      18.397  50.308  50.228  1.00  0.00     0.001 A 
HETATM   37  C   UNL     1      17.592  51.256  49.599  1.00  0.00     0.000 A 
HETATM   38  C   UNL     1      18.168  52.213  48.766  1.00  0.00     0.001 A 
HETATM   39  C   UNL     1      19.550  52.216  48.561  1.00  0.00     0.009 A 
ENDBRANCH  33  34
ENDBRANCH  32  33
ENDBRANCH  30  32
ENDBRANCH  10  30
TORSDOF 10
ENDMDL
MODEL 4
REMARK VINA RESULT:      -7.1      7.325     11.104
REMARK  10 active torsions:
REMARK  status: ('A' for Active; 'I' for Inactive)
REMARK    1  A    between atoms: C_6  and  C_7 
REMARK    2  A    between atoms: C_9  and  C_10 
REMARK    3  A    between atoms: C_10  and  C_11 
REMARK       I    between atoms: C_11  and  N_12 
REMARK    4  A    between atoms: N_12  and  C_13 
REMARK    5  A    between atoms: C_13  and  C_14 
REMARK    6  A    between atoms: C_14  and  N_15 
REMARK    7  A    between atoms: C_26  and  C_27 
REMARK    8  A    between atoms: C_27  and  O_28 
REMARK    9  A    between atoms: O_28  and  C_29 
REMARK   10  A    between atoms: C_29  and  C_30 
ROOT
HETATM    1  C   UNL     1      19.554  46.603  47.191  1.00  0.00     0.166 C 
HETATM    2  N   UNL     1      19.720  45.617  46.100  1.00  0.00    -0.318 N 
HETATM    3  C   UNL     1      19.605  45.497  44.819  1.00  0.00     0.011 C 
HETATM    4  C   UNL     1      20.270  44.295  46.719  1.00  0.00     0.170 C 
HETATM    5  S   UNL     1      19.908  42.940  45.718  1.00  0.00    -0.086 SA
HETATM    6  C   UNL     1      19.691  44.066  44.299  1.00  0.00     0.135 C 
HETATM    7  N   UNL     1      21.009  44.265  47.778  1.00  0.00    -0.229 NA
HETATM    8  C   UNL     1      21.476  45.492  48.240  1.00  0.00     0.048 C 
HETATM    9  C   UNL     1      22.771  45.419  49.014  1.00  0.00     0.071 C 
HETATM   10  C   UNL     1      20.868  46.659  47.909  1.00  0.00     0.069 C 
ENDROOT
BRANCH   3  11
HETATM   11  C   UNL     1      19.491  46.669  43.884  1.00  0.00     0.156 C 
BRANCH  11  12
HETATM   12  C   UNL     1      18.168  46.620  43.137  1.00  0.00     0.223 C 
HETATM   13  N   UNL     1      17.025  46.627  43.901  1.00  0.00    -0.359 N 
HETATM   14  H   UNL     1      17.122  46.499  44.906  1.00  0.00     0.162 HD
HETATM   15  O   UNL     1      18.135  46.586  41.910  1.00  0.00    -0.273 OA
BRANCH  13  16
HETATM   16  C   UNL     1      15.727  46.287  43.314  1.00  0.00     0.150 C 
BRANCH  16  17
HETATM   17  C   UNL     1      14.484  46.687  44.151  1.00  0.00     0.253 C 
BRANCH  17  18
HETATM   18  N   UNL     1      14.255  48.193  44.160  1.00  0.00    -0.077 N 
HETATM   19  H   UNL     1      15.168  48.666  44.182  1.00  0.00     0.279 HD
HETATM   20  C   UNL     1      13.516  48.687  42.943  1.00  0.00     0.269 C 
HETATM   21  C   UNL     1      13.540  48.632  45.419  1.00  0.00     0.269 C 
ENDBRANCH  17  18
ENDBRANCH  16  17
ENDBRANCH  13  16
ENDBRANCH  11  12
ENDBRANCH   3  11
BRANCH   1  22
HETATM   22  C   UNL     1      18.578  47.756  46.941  1.00  0.00    -0.024 A 
HETATM   23  C   UNL     1      17.350  47.851  47.667  1.00  0.00    -0.053 A 
HETATM   24  C   UNL     1      16.513  48.979  47.506  1.00  0.00     0.014 A 
HETATM   25  C   UNL     1      16.861  46.819  48.657  1.00  0.00     0.049 C 
HETATM   26  C   UNL     1      16.867  50.042  46.679  1.00  0.00    -0.061 A 
HETATM   27  C   UNL     1      16.040  51.294  46.624  1.00  0.00     0.048 C 
HETATM   28  C   UNL     1      18.069  49.967  45.989  1.00  0.00     0.007 A 
HETATM   29  C   UNL     1      18.900  48.848  46.116  1.00  0.00     0.011 A 
ENDBRANCH   1  22
BRANCH  10  30
HETATM   30  C   UNL     1      21.639  47.894  48.057  1.00  0.00     0.294 C 
HETATM   31  O   UNL     1      22.504  48.271  47.294  1.00  0.00    -0.259 OA
BRANCH  30  32
HETATM   32  O   UNL     1      21.216  48.478  49.204  1.00  0.00    -0.313 OA
BRANCH  32  33
HETATM   33  C   UNL     1      21.574  49.861  49.392  1.00  0.00     0.217 C 
BRANCH  33  34
HETATM   34  C   UNL     1      20.300  50.670  49.314  1.00  0.00    -0.034 A 
HETATM   35  C   UNL     1      20.217  51.796  48.486  1.00  0.00     0.009 A 
HETATM   36  C   UNL     1      19.058  52.575  48.465  1.00  0.00     0.001 A 
HETATM   37  C   UNL     1      17.972  52.238  49.270  1.00  0.00     0.000 A 
HETATM   38  C   UNL     1      18.037  51.113  50.089  1.00  0.00     0.001 A 
HETATM   39  C   UNL     1      19.192  50.328  50.102  1.00  0.00     0.009 A 
ENDBRANCH  33  34
ENDBRANCH  32  33
ENDBRANCH  30  32
ENDBRANCH  10  30
TORSDOF 10
ENDMDL
MODEL 5
REMARK VINA RESULT:      -7.1      5.054     11.882
REMARK  10 active torsions:
REMARK  status: ('A' for Active; 'I' for Inactive)
REMARK    1  A    between atoms: C_6  and  C_7 
REMARK    2  A    between atoms: C_9  and  C_10 
REMARK    3  A    between atoms: C_10  and  C_11 
REMARK       I    between atoms: C_11  and  N_12 
REMARK    4  A    between atoms: N_12  and  C_13 
REMARK    5  A    between atoms: C_13  and  C_14 
REMARK    6  A    between atoms: C_14  and  N_15 
REMARK    7  A    between atoms: C_26  and  C_27 
REMARK    8  A    between atoms: C_27  and  O_28 
REMARK    9  A    between atoms: O_28  and  C_29 
REMARK   10  A    between atoms: C_29  and  C_30 
ROOT
HETATM    1  C   UNL     1      19.164  47.143  46.046  1.00  0.00     0.166 C 
HETATM    2  N   UNL     1      20.347  46.309  45.739  1.00  0.00    -0.318 N 
HETATM    3  C   UNL     1      21.535  46.043  46.169  1.00  0.00     0.011 C 
HETATM    4  C   UNL     1      20.008  45.421  44.502  1.00  0.00     0.170 C 
HETATM    5  S   UNL     1      21.440  44.913  43.689  1.00  0.00    -0.086 SA
HETATM    6  C   UNL     1      22.398  45.231  45.208  1.00  0.00     0.135 C 
HETATM    7  N   UNL     1      18.811  45.026  44.223  1.00  0.00    -0.229 NA
HETATM    8  C   UNL     1      17.843  45.255  45.197  1.00  0.00     0.048 C 
HETATM    9  C   UNL     1      16.683  44.287  45.167  1.00  0.00     0.071 C 
HETATM   10  C   UNL     1      18.004  46.199  46.158  1.00  0.00     0.069 C 
ENDROOT
BRANCH   3  11
HETATM   11  C   UNL     1      22.020  46.410  47.544  1.00  0.00     0.156 C 
BRANCH  11  12
HETATM   12  C   UNL     1      21.754  45.273  48.518  1.00  0.00     0.223 C 
HETATM   13  N   UNL     1      22.762  44.963  49.399  1.00  0.00    -0.359 N 
HETATM   14  H   UNL     1      23.675  45.388  49.248  1.00  0.00     0.162 HD
HETATM   15  O   UNL     1      20.681  44.675  48.513  1.00  0.00    -0.273 OA
BRANCH  13  16
HETATM   16  C   UNL     1      22.733  43.716  50.165  1.00  0.00     0.150 C 
BRANCH  16  17
HETATM   17  C   UNL     1      23.881  42.717  49.869  1.00  0.00     0.253 C 
BRANCH  17  18
HETATM   18  N   UNL     1      24.747  42.452  51.095  1.00  0.00    -0.077 N 
HETATM   19  H   UNL     1      24.186  41.942  51.790  1.00  0.00     0.279 HD
HETATM   20  C   UNL     1      25.964  41.616  50.792  1.00  0.00     0.269 C 
HETATM   21  C   UNL     1      25.154  43.743  51.769  1.00  0.00     0.269 C 
ENDBRANCH  17  18
ENDBRANCH  16  17
ENDBRANCH  13  16
ENDBRANCH  11  12
ENDBRANCH   3  11
BRANCH   1  22
HETATM   22  C   UNL     1      19.406  48.421  46.853  1.00  0.00    -0.024 A 
HETATM   23  C   UNL     1      19.133  49.708  46.293  1.00  0.00    -0.053 A 
HETATM   24  C   UNL     1      19.255  50.871  47.087  1.00  0.00     0.014 A 
HETATM   25  C   UNL     1      18.677  49.940  44.871  1.00  0.00     0.049 C 
HETATM   26  C   UNL     1      19.600  50.805  48.435  1.00  0.00    -0.061 A 
HETATM   27  C   UNL     1      19.591  52.031  49.301  1.00  0.00     0.048 C 
HETATM   28  C   UNL     1      19.844  49.557  48.991  1.00  0.00     0.007 A 
HETATM   29  C   UNL     1      19.751  48.396  48.215  1.00  0.00     0.011 A 
ENDBRANCH   1  22
BRANCH  10  30
HETATM   30  C   UNL     1      17.183  46.089  47.364  1.00  0.00     0.294 C 
HETATM   31  O   UNL     1      17.354  45.279  48.251  1.00  0.00    -0.259 OA
BRANCH  30  32
HETATM   32  O   UNL     1      16.213  47.028  47.258  1.00  0.00    -0.313 OA
BRANCH  32  33
HETATM   33  C   UNL     1      16.067  47.932  48.370  1.00  0.00     0.217 C 
BRANCH  33  34
HETATM   34  C   UNL     1      15.792  49.304  47.803  1.00  0.00    -0.034 A 
HETATM   35  C   UNL     1      15.397  49.461  46.468  1.00  0.00     0.009 A 
HETATM   36  C   UNL     1      15.203  50.736  45.933  1.00  0.00     0.001 A 
HETATM   37  C   UNL     1      15.402  51.867  46.723  1.00  0.00     0.000 A 
HETATM   38  C   UNL     1      15.782  51.724  48.056  1.00  0.00     0.001 A 
HETATM   39  C   UNL     1      15.966  50.449  48.595  1.00  0.00     0.009 A 
ENDBRANCH  33  34
ENDBRANCH  32  33
ENDBRANCH  30  32
ENDBRANCH  10  30
TORSDOF 10
ENDMDL
MODEL 6
REMARK VINA RESULT:      -7.1      2.861      5.479
REMARK  10 active torsions:
REMARK  status: ('A' for Active; 'I' for Inactive)
REMARK    1  A    between atoms: C_6  and  C_7 
REMARK    2  A    between atoms: C_9  and  C_10 
REMARK    3  A    between atoms: C_10  and  C_11 
REMARK       I    between atoms: C_11  and  N_12 
REMARK    4  A    between atoms: N_12  and  C_13 
REMARK    5  A    between atoms: C_13  and  C_14 
REMARK    6  A    between atoms: C_14  and  N_15 
REMARK    7  A    between atoms: C_26  and  C_27 
REMARK    8  A    between atoms: C_27  and  O_28 
REMARK    9  A    between atoms: O_28  and  C_29 
REMARK   10  A    between atoms: C_29  and  C_30 
ROOT
HETATM    1  C   UNL     1      25.795  44.940  51.155  1.00  0.00     0.166 C 
HETATM    2  N   UNL     1      24.759  45.693  50.412  1.00  0.00    -0.318 N 
HETATM    3  C   UNL     1      23.693  45.517  49.705  1.00  0.00     0.011 C 
HETATM    4  C   UNL     1      25.038  47.216  50.600  1.00  0.00     0.170 C 
HETATM    5  S   UNL     1      24.336  48.139  49.325  1.00  0.00    -0.086 SA
HETATM    6  C   UNL     1      23.197  46.758  48.972  1.00  0.00     0.135 C 
HETATM    7  N   UNL     1      25.609  47.706  51.649  1.00  0.00    -0.229 NA
HETATM    8  C   UNL     1      25.787  46.833  52.719  1.00  0.00     0.048 C 
HETATM    9  C   UNL     1      25.841  47.503  54.072  1.00  0.00     0.071 C 
HETATM   10  C   UNL     1      25.789  45.487  52.551  1.00  0.00     0.069 C 
ENDROOT
BRANCH   3  11
HETATM   11  C   UNL     1      22.928  44.222  49.668  1.00  0.00     0.156 C 
BRANCH  11  12
HETATM   12  C   UNL     1      22.571  43.862  48.235  1.00  0.00     0.223 C 
HETATM   13  N   UNL     1      23.609  43.797  47.336  1.00  0.00    -0.359 N 
HETATM   14  H   UNL     1      24.518  44.148  47.630  1.00  0.00     0.162 HD
HETATM   15  O   UNL     1      21.409  43.634  47.911  1.00  0.00    -0.273 OA
BRANCH  13  16
HETATM   16  C   UNL     1      23.352  43.755  45.895  1.00  0.00     0.150 C 
BRANCH  16  17
HETATM   17  C   UNL     1      23.505  42.366  45.224  1.00  0.00     0.253 C 
BRANCH  17  18
HETATM   18  N   UNL     1      24.954  41.900  45.183  1.00  0.00    -0.077 N 
HETATM   19  H   UNL     1      25.562  42.689  45.441  1.00  0.00     0.279 HD
HETATM   20  C   UNL     1      25.242  40.772  46.140  1.00  0.00     0.269 C 
HETATM   21  C   UNL     1      25.367  41.512  43.780  1.00  0.00     0.269 C 
ENDBRANCH  17  18
ENDBRANCH  16  17
ENDBRANCH  13  16
ENDBRANCH  11  12
ENDBRANCH   3  11
BRANCH   1  22
HETATM   22  C   UNL     1      26.046  43.494  50.722  1.00  0.00    -0.024 A 
HETATM   23  C   UNL     1      27.357  42.926  50.777  1.00  0.00    -0.053 A 
HETATM   24  C   UNL     1      27.553  41.557  50.480  1.00  0.00     0.014 A 
HETATM   25  C   UNL     1      28.601  43.688  51.171  1.00  0.00     0.049 C 
HETATM   26  C   UNL     1      26.489  40.715  50.168  1.00  0.00    -0.061 A 
HETATM   27  C   UNL     1      26.692  39.238  49.993  1.00  0.00     0.048 C 
HETATM   28  C   UNL     1      25.211  41.254  50.135  1.00  0.00     0.007 A 
HETATM   29  C   UNL     1      24.998  42.612  50.403  1.00  0.00     0.011 A 
ENDBRANCH   1  22
BRANCH  10  30
HETATM   30  C   UNL     1      25.547  44.654  53.729  1.00  0.00     0.294 C 
HETATM   31  O   UNL     1      24.502  44.091  53.981  1.00  0.00    -0.259 OA
BRANCH  30  32
HETATM   32  O   UNL     1      26.687  44.678  54.460  1.00  0.00    -0.313 OA
BRANCH  32  33
HETATM   33  C   UNL     1      27.551  43.530  54.343  1.00  0.00     0.217 C 
BRANCH  33  34
HETATM   34  C   UNL     1      28.876  43.898  54.968  1.00  0.00    -0.034 A 
HETATM   35  C   UNL     1      29.924  42.971  55.021  1.00  0.00     0.009 A 
HETATM   36  C   UNL     1      31.125  43.297  55.654  1.00  0.00     0.001 A 
HETATM   37  C   UNL     1      31.292  44.551  56.239  1.00  0.00     0.000 A 
HETATM   38  C   UNL     1      30.263  45.487  56.181  1.00  0.00     0.001 A 
HETATM   39  C   UNL     1      29.065  45.165  55.539  1.00  0.00     0.009 A 
ENDBRANCH  33  34
ENDBRANCH  32  33
ENDBRANCH  30  32
ENDBRANCH  10  30
TORSDOF 10
ENDMDL
MODEL 7
REMARK VINA RESULT:      -7.0      7.831     14.795
REMARK  10 active torsions:
REMARK  status: ('A' for Active; 'I' for Inactive)
REMARK    1  A    between atoms: C_6  and  C_7 
REMARK    2  A    between atoms: C_9  and  C_10 
REMARK    3  A    between atoms: C_10  and  C_11 
REMARK       I    between atoms: C_11  and  N_12 
REMARK    4  A    between atoms: N_12  and  C_13 
REMARK    5  A    between atoms: C_13  and  C_14 
REMARK    6  A    between atoms: C_14  and  N_15 
REMARK    7  A    between atoms: C_26  and  C_27 
REMARK    8  A    between atoms: C_27  and  O_28 
REMARK    9  A    between atoms: O_28  and  C_29 
REMARK   10  A    between atoms: C_29  and  C_30 
ROOT
HETATM    1  C   UNL     1      16.063  51.618  46.874  1.00  0.00     0.166 C 
HETATM    2  N   UNL     1      16.157  52.414  48.118  1.00  0.00    -0.318 N 
HETATM    3  C   UNL     1      16.977  52.708  49.071  1.00  0.00     0.011 C 
HETATM    4  C   UNL     1      14.819  53.197  48.295  1.00  0.00     0.170 C 
HETATM    5  S   UNL     1      14.562  53.624  49.945  1.00  0.00    -0.086 SA
HETATM    6  C   UNL     1      16.349  53.429  50.258  1.00  0.00     0.135 C 
HETATM    7  N   UNL     1      14.085  53.575  47.303  1.00  0.00    -0.229 NA
HETATM    8  C   UNL     1      14.642  53.436  46.035  1.00  0.00     0.048 C 
HETATM    9  C   UNL     1      14.109  54.406  45.006  1.00  0.00     0.071 C 
HETATM   10  C   UNL     1      15.663  52.576  45.793  1.00  0.00     0.069 C 
ENDROOT
BRANCH   3  11
HETATM   11  C   UNL     1      18.458  52.456  48.997  1.00  0.00     0.156 C 
BRANCH  11  12
HETATM   12  C   UNL     1      18.793  51.107  49.615  1.00  0.00     0.223 C 
HETATM   13  N   UNL     1      19.972  50.522  49.221  1.00  0.00    -0.359 N 
HETATM   14  H   UNL     1      20.468  50.931  48.430  1.00  0.00     0.162 HD
HETATM   15  O   UNL     1      18.042  50.582  50.432  1.00  0.00    -0.273 OA
BRANCH  13  16
HETATM   16  C   UNL     1      20.247  49.114  49.515  1.00  0.00     0.150 C 
BRANCH  16  17
HETATM   17  C   UNL     1      21.496  48.513  48.820  1.00  0.00     0.253 C 
BRANCH  17  18
HETATM   18  N   UNL     1      22.788  48.863  49.548  1.00  0.00    -0.077 N 
HETATM   19  H   UNL     1      22.557  49.150  50.509  1.00  0.00     0.279 HD
HETATM   20  C   UNL     1      23.750  47.706  49.639  1.00  0.00     0.269 C 
HETATM   21  C   UNL     1      23.467  50.059  48.919  1.00  0.00     0.269 C 
ENDBRANCH  17  18
ENDBRANCH  16  17
ENDBRANCH  13  16
ENDBRANCH  11  12
ENDBRANCH   3  11
BRANCH   1  22
HETATM   22  C   UNL     1      16.997  50.411  46.751  1.00  0.00    -0.024 A 
HETATM   23  C   UNL     1      16.569  49.106  47.147  1.00  0.00    -0.053 A 
HETATM   24  C   UNL     1      17.401  47.984  46.924  1.00  0.00     0.014 A 
HETATM   25  C   UNL     1      15.232  48.803  47.785  1.00  0.00     0.049 C 
HETATM   26  C   UNL     1      18.632  48.102  46.283  1.00  0.00    -0.061 A 
HETATM   27  C   UNL     1      19.442  46.889  45.927  1.00  0.00     0.048 C 
HETATM   28  C   UNL     1      19.044  49.363  45.875  1.00  0.00     0.007 A 
HETATM   29  C   UNL     1      18.245  50.488  46.108  1.00  0.00     0.011 A 
ENDBRANCH   1  22
BRANCH  10  30
HETATM   30  C   UNL     1      16.464  52.793  44.588  1.00  0.00     0.294 C 
HETATM   31  O   UNL     1      17.424  53.532  44.513  1.00  0.00    -0.259 OA
BRANCH  30  32
HETATM   32  O   UNL     1      15.900  52.046  43.609  1.00  0.00    -0.313 OA
BRANCH  32  33
HETATM   33  C   UNL     1      16.787  51.198  42.854  1.00  0.00     0.217 C 
BRANCH  33  34
HETATM   34  C   UNL     1      16.383  49.768  43.125  1.00  0.00    -0.034 A 
HETATM   35  C   UNL     1      15.160  49.475  43.740  1.00  0.00     0.009 A 
HETATM   36  C   UNL     1      14.818  48.155  44.043  1.00  0.00     0.001 A 
HETATM   37  C   UNL     1      15.694  47.116  43.735  1.00  0.00     0.000 A 
HETATM   38  C   UNL     1      16.908  47.393  43.110  1.00  0.00     0.001 A 
HETATM   39  C   UNL     1      17.245  48.711  42.798  1.00  0.00     0.009 A 
ENDBRANCH  33  34
ENDBRANCH  32  33
ENDBRANCH  30  32
ENDBRANCH  10  30
TORSDOF 10
ENDMDL
MODEL 8
REMARK VINA RESULT:      -6.9     10.883     14.264
REMARK  10 active torsions:
REMARK  status: ('A' for Active; 'I' for Inactive)
REMARK    1  A    between atoms: C_6  and  C_7 
REMARK    2  A    between atoms: C_9  and  C_10 
REMARK    3  A    between atoms: C_10  and  C_11 
REMARK       I    between atoms: C_11  and  N_12 
REMARK    4  A    between atoms: N_12  and  C_13 
REMARK    5  A    between atoms: C_13  and  C_14 
REMARK    6  A    between atoms: C_14  and  N_15 
REMARK    7  A    between atoms: C_26  and  C_27 
REMARK    8  A    between atoms: C_27  and  O_28 
REMARK    9  A    between atoms: O_28  and  C_29 
REMARK   10  A    between atoms: C_29  and  C_30 
ROOT
HETATM    1  C   UNL     1      15.670  51.049  45.832  1.00  0.00     0.166 C 
HETATM    2  N   UNL     1      15.223  52.143  44.941  1.00  0.00    -0.318 N 
HETATM    3  C   UNL     1      15.677  53.141  44.259  1.00  0.00     0.011 C 
HETATM    4  C   UNL     1      13.685  51.995  44.724  1.00  0.00     0.170 C 
HETATM    5  S   UNL     1      12.973  53.496  44.266  1.00  0.00    -0.086 SA
HETATM    6  C   UNL     1      14.611  54.090  43.722  1.00  0.00     0.135 C 
HETATM    7  N   UNL     1      13.073  50.859  44.761  1.00  0.00    -0.229 NA
HETATM    8  C   UNL     1      13.879  49.724  44.800  1.00  0.00     0.048 C 
HETATM    9  C   UNL     1      13.242  48.483  44.220  1.00  0.00     0.071 C 
HETATM   10  C   UNL     1      15.168  49.777  45.218  1.00  0.00     0.069 C 
ENDROOT
BRANCH   3  11
HETATM   11  C   UNL     1      17.132  53.323  43.925  1.00  0.00     0.156 C 
BRANCH  11  12
HETATM   12  C   UNL     1      17.446  52.693  42.578  1.00  0.00     0.223 C 
HETATM   13  N   UNL     1      17.365  51.324  42.500  1.00  0.00    -0.359 N 
HETATM   14  H   UNL     1      17.265  50.801  43.368  1.00  0.00     0.162 HD
HETATM   15  O   UNL     1      17.747  53.387  41.610  1.00  0.00    -0.273 OA
BRANCH  13  16
HETATM   16  C   UNL     1      17.926  50.601  41.357  1.00  0.00     0.150 C 
BRANCH  16  17
HETATM   17  C   UNL     1      19.474  50.524  41.303  1.00  0.00     0.253 C 
BRANCH  17  18
HETATM   18  N   UNL     1      20.067  51.496  40.291  1.00  0.00    -0.077 N 
HETATM   19  H   UNL     1      19.765  52.449  40.533  1.00  0.00     0.279 HD
HETATM   20  C   UNL     1      21.574  51.488  40.274  1.00  0.00     0.269 C 
HETATM   21  C   UNL     1      19.528  51.239  38.902  1.00  0.00     0.269 C 
ENDBRANCH  17  18
ENDBRANCH  16  17
ENDBRANCH  13  16
ENDBRANCH  11  12
ENDBRANCH   3  11
BRANCH   1  22
HETATM   22  C   UNL     1      16.983  51.264  46.590  1.00  0.00    -0.024 A 
HETATM   23  C   UNL     1      16.989  51.807  47.913  1.00  0.00    -0.053 A 
HETATM   24  C   UNL     1      18.198  51.895  48.641  1.00  0.00     0.014 A 
HETATM   25  C   UNL     1      15.757  52.288  48.644  1.00  0.00     0.049 C 
HETATM   26  C   UNL     1      19.402  51.426  48.121  1.00  0.00    -0.061 A 
HETATM   27  C   UNL     1      20.650  51.397  48.955  1.00  0.00     0.048 C 
HETATM   28  C   UNL     1      19.399  50.877  46.846  1.00  0.00     0.007 A 
HETATM   29  C   UNL     1      18.217  50.803  46.100  1.00  0.00     0.011 A 
ENDBRANCH   1  22
BRANCH  10  30
HETATM   30  C   UNL     1      16.055  48.680  44.829  1.00  0.00     0.294 C 
HETATM   31  O   UNL     1      16.580  48.560  43.742  1.00  0.00    -0.259 OA
BRANCH  30  32
HETATM   32  O   UNL     1      16.127  47.846  45.894  1.00  0.00    -0.313 OA
BRANCH  32  33
HETATM   33  C   UNL     1      17.336  47.073  46.026  1.00  0.00     0.217 C 
BRANCH  33  34
HETATM   34  C   UNL     1      17.950  47.419  47.362  1.00  0.00    -0.034 A 
HETATM   35  C   UNL     1      17.168  47.959  48.390  1.00  0.00     0.009 A 
HETATM   36  C   UNL     1      17.753  48.334  49.601  1.00  0.00     0.001 A 
HETATM   37  C   UNL     1      19.123  48.173  49.798  1.00  0.00     0.000 A 
HETATM   38  C   UNL     1      19.910  47.624  48.788  1.00  0.00     0.001 A 
HETATM   39  C   UNL     1      19.323  47.240  47.580  1.00  0.00     0.009 A 
ENDBRANCH  33  34
ENDBRANCH  32  33
ENDBRANCH  30  32
ENDBRANCH  10  30
TORSDOF 10
ENDMDL
MODEL 9
REMARK VINA RESULT:      -6.8      8.760     11.971
REMARK  10 active torsions:
REMARK  status: ('A' for Active; 'I' for Inactive)
REMARK    1  A    between atoms: C_6  and  C_7 
REMARK    2  A    between atoms: C_9  and  C_10 
REMARK    3  A    between atoms: C_10  and  C_11 
REMARK       I    between atoms: C_11  and  N_12 
REMARK    4  A    between atoms: N_12  and  C_13 
REMARK    5  A    between atoms: C_13  and  C_14 
REMARK    6  A    between atoms: C_14  and  N_15 
REMARK    7  A    between atoms: C_26  and  C_27 
REMARK    8  A    between atoms: C_27  and  O_28 
REMARK    9  A    between atoms: O_28  and  C_29 
REMARK   10  A    between atoms: C_29  and  C_30 
ROOT
HETATM    1  C   UNL     1      18.382  47.156  46.536  1.00  0.00     0.166 C 
HETATM    2  N   UNL     1      18.237  46.109  45.501  1.00  0.00    -0.318 N 
HETATM    3  C   UNL     1      18.223  45.949  44.219  1.00  0.00     0.011 C 
HETATM    4  C   UNL     1      18.110  44.730  46.219  1.00  0.00     0.170 C 
HETATM    5  S   UNL     1      17.324  43.574  45.212  1.00  0.00    -0.086 SA
HETATM    6  C   UNL     1      17.755  44.576  43.750  1.00  0.00     0.135 C 
HETATM    7  N   UNL     1      18.648  44.478  47.366  1.00  0.00    -0.229 NA
HETATM    8  C   UNL     1      19.533  45.434  47.855  1.00  0.00     0.048 C 
HETATM    9  C   UNL     1      20.585  44.891  48.794  1.00  0.00     0.071 C 
HETATM   10  C   UNL     1      19.513  46.719  47.419  1.00  0.00     0.069 C 
ENDROOT
BRANCH   3  11
HETATM   11  C   UNL     1      18.714  46.988  43.249  1.00  0.00     0.156 C 
BRANCH  11  12
HETATM   12  C   UNL     1      17.545  47.782  42.691  1.00  0.00     0.223 C 
HETATM   13  N   UNL     1      17.813  48.619  41.634  1.00  0.00    -0.359 N 
HETATM   14  H   UNL     1      18.787  48.786  41.393  1.00  0.00     0.162 HD
HETATM   15  O   UNL     1      16.417  47.666  43.165  1.00  0.00    -0.273 OA
BRANCH  13  16
HETATM   16  C   UNL     1      16.846  49.637  41.218  1.00  0.00     0.150 C 
BRANCH  16  17
HETATM   17  C   UNL     1      16.918  50.986  41.981  1.00  0.00     0.253 C 
BRANCH  17  18
HETATM   18  N   UNL     1      16.987  52.180  41.038  1.00  0.00    -0.077 N 
HETATM   19  H   UNL     1      16.030  52.436  40.759  1.00  0.00     0.279 HD
HETATM   20  C   UNL     1      17.617  53.396  41.667  1.00  0.00     0.269 C 
HETATM   21  C   UNL     1      17.704  51.826  39.754  1.00  0.00     0.269 C 
ENDBRANCH  17  18
ENDBRANCH  16  17
ENDBRANCH  13  16
ENDBRANCH  11  12
ENDBRANCH   3  11
BRANCH   1  22
HETATM   22  C   UNL     1      18.015  48.587  46.133  1.00  0.00    -0.024 A 
HETATM   23  C   UNL     1      16.744  49.144  46.475  1.00  0.00    -0.053 A 
HETATM   24  C   UNL     1      16.462  50.501  46.193  1.00  0.00     0.014 A 
HETATM   25  C   UNL     1      15.636  48.383  47.167  1.00  0.00     0.049 C 
HETATM   26  C   UNL     1      17.412  51.343  45.620  1.00  0.00    -0.061 A 
HETATM   27  C   UNL     1      17.150  52.812  45.455  1.00  0.00     0.048 C 
HETATM   28  C   UNL     1      18.656  50.814  45.307  1.00  0.00     0.007 A 
HETATM   29  C   UNL     1      18.946  49.467  45.556  1.00  0.00     0.011 A 
ENDBRANCH   1  22
BRANCH  10  30
HETATM   30  C   UNL     1      20.710  47.531  47.638  1.00  0.00     0.294 C 
HETATM   31  O   UNL     1      21.708  47.500  46.948  1.00  0.00    -0.259 OA
BRANCH  30  32
HETATM   32  O   UNL     1      20.480  48.266  48.752  1.00  0.00    -0.313 OA
BRANCH  32  33
HETATM   33  C   UNL     1      20.994  49.612  48.753  1.00  0.00     0.217 C 
BRANCH  33  34
HETATM   34  C   UNL     1      19.826  50.541  48.983  1.00  0.00    -0.034 A 
HETATM   35  C   UNL     1      18.649  50.077  49.584  1.00  0.00     0.009 A 
HETATM   36  C   UNL     1      17.551  50.925  49.738  1.00  0.00     0.001 A 
HETATM   37  C   UNL     1      17.616  52.244  49.294  1.00  0.00     0.000 A 
HETATM   38  C   UNL     1      18.785  52.723  48.707  1.00  0.00     0.001 A 
HETATM   39  C   UNL     1      19.887  51.878  48.562  1.00  0.00     0.009 A 
ENDBRANCH  33  34
ENDBRANCH  32  33
ENDBRANCH  30  32
ENDBRANCH  10  30
TORSDOF 10
ENDMDL
MODEL 10
REMARK VINA RESULT:      -6.7      6.620     12.517
REMARK  10 active torsions:
REMARK  status: ('A' for Active; 'I' for Inactive)
REMARK    1  A    between atoms: C_6  and  C_7 
REMARK    2  A    between atoms: C_9  and  C_10 
REMARK    3  A    between atoms: C_10  and  C_11 
REMARK       I    between atoms: C_11  and  N_12 
REMARK    4  A    between atoms: N_12  and  C_13 
REMARK    5  A    between atoms: C_13  and  C_14 
REMARK    6  A    between atoms: C_14  and  N_15 
REMARK    7  A    between atoms: C_26  and  C_27 
REMARK    8  A    between atoms: C_27  and  O_28 
REMARK    9  A    between atoms: O_28  and  C_29 
REMARK   10  A    between atoms: C_29  and  C_30 
ROOT
HETATM    1  C   UNL     1      17.629  49.545  47.488  1.00  0.00     0.166 C 
HETATM    2  N   UNL     1      17.737  50.841  48.195  1.00  0.00    -0.318 N 
HETATM    3  C   UNL     1      18.612  51.679  48.642  1.00  0.00     0.011 C 
HETATM    4  C   UNL     1      16.295  51.389  48.427  1.00  0.00     0.170 C 
HETATM    5  S   UNL     1      16.257  52.503  49.741  1.00  0.00    -0.086 SA
HETATM    6  C   UNL     1      18.052  52.768  49.550  1.00  0.00     0.135 C 
HETATM    7  N   UNL     1      15.305  51.128  47.641  1.00  0.00    -0.229 NA
HETATM    8  C   UNL     1      15.619  50.492  46.443  1.00  0.00     0.048 C 
HETATM    9  C   UNL     1      14.645  50.757  45.318  1.00  0.00     0.071 C 
HETATM   10  C   UNL     1      16.772  49.795  46.283  1.00  0.00     0.069 C 
ENDROOT
BRANCH   3  11
HETATM   11  C   UNL     1      20.060  51.660  48.235  1.00  0.00     0.156 C 
BRANCH  11  12
HETATM   12  C   UNL     1      20.878  50.863  49.238  1.00  0.00     0.223 C 
HETATM   13  N   UNL     1      21.995  50.224  48.757  1.00  0.00    -0.359 N 
HETATM   14  H   UNL     1      22.123  50.179  47.747  1.00  0.00     0.162 HD
HETATM   15  O   UNL     1      20.551  50.809  50.420  1.00  0.00    -0.273 OA
BRANCH  13  16
HETATM   16  C   UNL     1      22.678  49.202  49.553  1.00  0.00     0.150 C 
BRANCH  16  17
HETATM   17  C   UNL     1      23.955  48.594  48.917  1.00  0.00     0.253 C 
BRANCH  17  18
HETATM   18  N   UNL     1      24.835  47.893  49.944  1.00  0.00    -0.077 N 
HETATM   19  H   UNL     1      24.660  48.312  50.868  1.00  0.00     0.279 HD
HETATM   20  C   UNL     1      24.555  46.416  50.055  1.00  0.00     0.269 C 
HETATM   21  C   UNL     1      26.302  48.128  49.663  1.00  0.00     0.269 C 
ENDBRANCH  17  18
ENDBRANCH  16  17
ENDBRANCH  13  16
ENDBRANCH  11  12
ENDBRANCH   3  11
BRANCH   1  22
HETATM   22  C   UNL     1      18.821  48.591  47.602  1.00  0.00    -0.024 A 
HETATM   23  C   UNL     1      18.941  47.692  48.707  1.00  0.00    -0.053 A 
HETATM   24  C   UNL     1      19.987  46.741  48.742  1.00  0.00     0.014 A 
HETATM   25  C   UNL     1      17.988  47.649  49.880  1.00  0.00     0.049 C 
HETATM   26  C   UNL     1      20.899  46.617  47.697  1.00  0.00    -0.061 A 
HETATM   27  C   UNL     1      21.917  45.514  47.680  1.00  0.00     0.048 C 
HETATM   28  C   UNL     1      20.775  47.471  46.611  1.00  0.00     0.007 A 
HETATM   29  C   UNL     1      19.761  48.436  46.569  1.00  0.00     0.011 A 
ENDBRANCH   1  22
BRANCH  10  30
HETATM   30  C   UNL     1      17.228  49.537  44.917  1.00  0.00     0.294 C 
HETATM   31  O   UNL     1      17.925  50.285  44.263  1.00  0.00    -0.259 OA
BRANCH  30  32
HETATM   32  O   UNL     1      16.695  48.347  44.550  1.00  0.00    -0.313 OA
BRANCH  32  33
HETATM   33  C   UNL     1      17.511  47.508  43.710  1.00  0.00     0.217 C 
BRANCH  33  34
HETATM   34  C   UNL     1      17.903  46.299  44.526  1.00  0.00    -0.034 A 
HETATM   35  C   UNL     1      17.202  45.963  45.691  1.00  0.00     0.009 A 
HETATM   36  C   UNL     1      17.607  44.881  46.474  1.00  0.00     0.001 A 
HETATM   37  C   UNL     1      18.715  44.122  46.102  1.00  0.00     0.000 A 
HETATM   38  C   UNL     1      19.414  44.436  44.938  1.00  0.00     0.001 A 
HETATM   39  C   UNL     1      19.002  45.513  44.150  1.00  0.00     0.009 A 
ENDBRANCH  33  34
ENDBRANCH  32  33
ENDBRANCH  30  32
ENDBRANCH  10  30
TORSDOF 10
ENDMDL
