MODEL 1
REMARK VINA RESULT:      -9.8      0.000      0.000
REMARK  7 active torsions:
REMARK  status: ('A' for Active; 'I' for Inactive)
REMARK       I    between atoms: C_2  and  N_3 
REMARK    1  A    between atoms: N_3  and  C_4 
REMARK    2  A    between atoms: C_6  and  O_7 
REMARK    3  A    between atoms: O_7  and  C_8 
REMARK    4  A    between atoms: C_8  and  C_9 
REMARK    5  A    between atoms: C_9  and  N_10 
REMARK       I    between atoms: N_10  and  C_11 
REMARK    6  A    between atoms: C_11  and  C_12 
REMARK    7  A    between atoms: C_14  and  C_15 
ROOT
HETATM    1  N   UNL     1      26.740  44.120  51.574  1.00  0.00    -0.355 N 
HETATM    2  C   UNL     1      27.134  44.640  52.788  1.00  0.00     0.251 C 
HETATM    3  O   UNL     1      26.510  45.504  53.391  1.00  0.00    -0.268 OA
HETATM    4  H   UNL     1      27.187  43.287  51.218  1.00  0.00     0.162 HD
ENDROOT
BRANCH   1   5
HETATM    5  C   UNL     1      25.547  44.598  50.900  1.00  0.00     0.149 C 
BRANCH   5   6
HETATM    6  C   UNL     1      25.835  45.520  49.713  1.00  0.00     0.195 C 
BRANCH   6   7
HETATM    7  O   UNL     1      26.345  46.752  50.230  1.00  0.00    -0.349 OA
BRANCH   7   8
HETATM    8  C   UNL     1      26.000  47.898  49.566  1.00  0.00     0.070 A 
HETATM    9  C   UNL     1      24.696  48.330  49.300  1.00  0.00     0.066 A 
HETATM   10  C   UNL     1      24.473  49.531  48.616  1.00  0.00     0.037 A 
HETATM   11  C   UNL     1      25.570  50.294  48.201  1.00  0.00     0.029 A 
HETATM   12  C   UNL     1      26.872  49.862  48.453  1.00  0.00     0.005 A 
HETATM   13  C   UNL     1      27.082  48.665  49.132  1.00  0.00     0.037 A 
BRANCH  10  14
HETATM   14  N   UNL     1      23.190  50.043  48.322  1.00  0.00    -0.327 N 
HETATM   15  C   UNL     1      22.361  50.770  49.156  1.00  0.00     0.218 C 
HETATM   16  C   UNL     1      21.083  51.190  48.473  1.00  0.00     0.117 C 
HETATM   17  O   UNL     1      22.556  51.047  50.334  1.00  0.00    -0.274 OA
HETATM   18  H   UNL     1      22.834  49.835  47.398  1.00  0.00     0.169 HD
ENDBRANCH  10  14
ENDBRANCH   7   8
ENDBRANCH   6   7
ENDBRANCH   5   6
ENDBRANCH   1   5
BRANCH   2  19
HETATM   19  C   UNL     1      28.378  44.071  53.373  1.00  0.00     0.032 A 
HETATM   20  C   UNL     1      28.804  44.543  54.624  1.00  0.00     0.029 A 
HETATM   21  C   UNL     1      29.984  44.057  55.208  1.00  0.00    -0.023 A 
HETATM   22  C   UNL     1      30.728  43.096  54.509  1.00  0.00     0.012 A 
HETATM   23  C   UNL     1      30.312  42.632  53.256  1.00  0.00     0.002 A 
HETATM   24  C   UNL     1      29.139  43.121  52.685  1.00  0.00     0.017 A 
BRANCH  21  25
HETATM   25  C   UNL     1      30.442  44.529  56.510  1.00  0.00    -0.002 A 
HETATM   26  C   UNL     1      31.402  43.905  57.284  1.00  0.00     0.153 A 
HETATM   27  O   UNL     1      31.607  44.578  58.446  1.00  0.00    -0.334 OA
HETATM   28  C   UNL     1      30.772  45.646  58.433  1.00  0.00     0.142 A 
HETATM   29  C   UNL     1      30.035  45.663  57.272  1.00  0.00     0.038 A 
ENDBRANCH  21  25
ENDBRANCH   2  19
TORSDOF 7
ENDMDL
MODEL 2
REMARK VINA RESULT:      -9.4      1.192      1.963
REMARK  7 active torsions:
REMARK  status: ('A' for Active; 'I' for Inactive)
REMARK       I    between atoms: C_2  and  N_3 
REMARK    1  A    between atoms: N_3  and  C_4 
REMARK    2  A    between atoms: C_6  and  O_7 
REMARK    3  A    between atoms: O_7  and  C_8 
REMARK    4  A    between atoms: C_8  and  C_9 
REMARK    5  A    between atoms: C_9  and  N_10 
REMARK       I    between atoms: N_10  and  C_11 
REMARK    6  A    between atoms: C_11  and  C_12 
REMARK    7  A    between atoms: C_14  and  C_15 
ROOT
HETATM    1  N   UNL     1      25.649  45.184  52.477  1.00  0.00    -0.355 N 
HETATM    2  C   UNL     1      26.770  44.549  52.969  1.00  0.00     0.251 C 
HETATM    3  O   UNL     1      27.187  43.480  52.541  1.00  0.00    -0.268 OA
HETATM    4  H   UNL     1      25.463  46.142  52.739  1.00  0.00     0.162 HD
ENDROOT
BRANCH   1   5
HETATM    5  C   UNL     1      24.854  44.596  51.415  1.00  0.00     0.149 C 
BRANCH   5   6
HETATM    6  C   UNL     1      24.952  45.345  50.084  1.00  0.00     0.195 C 
BRANCH   6   7
HETATM    7  O   UNL     1      25.961  46.350  50.220  1.00  0.00    -0.349 OA
BRANCH   7   8
HETATM    8  C   UNL     1      25.730  47.552  49.609  1.00  0.00     0.070 A 
HETATM    9  C   UNL     1      24.475  48.093  49.312  1.00  0.00     0.066 A 
HETATM   10  C   UNL     1      24.369  49.343  48.689  1.00  0.00     0.037 A 
HETATM   11  C   UNL     1      25.537  50.045  48.368  1.00  0.00     0.029 A 
HETATM   12  C   UNL     1      26.792  49.505  48.652  1.00  0.00     0.005 A 
HETATM   13  C   UNL     1      26.884  48.260  49.269  1.00  0.00     0.037 A 
BRANCH  10  14
HETATM   14  N   UNL     1      23.142  49.963  48.370  1.00  0.00    -0.327 N 
HETATM   15  C   UNL     1      22.340  50.724  49.201  1.00  0.00     0.218 C 
HETATM   16  C   UNL     1      21.125  51.265  48.488  1.00  0.00     0.117 C 
HETATM   17  O   UNL     1      22.512  50.946  50.394  1.00  0.00    -0.274 OA
HETATM   18  H   UNL     1      22.807  49.815  47.427  1.00  0.00     0.169 HD
ENDBRANCH  10  14
ENDBRANCH   7   8
ENDBRANCH   6   7
ENDBRANCH   5   6
ENDBRANCH   1   5
BRANCH   2  19
HETATM   19  C   UNL     1      27.495  45.251  54.061  1.00  0.00     0.032 A 
HETATM   20  C   UNL     1      28.535  44.572  54.716  1.00  0.00     0.029 A 
HETATM   21  C   UNL     1      29.234  45.179  55.770  1.00  0.00    -0.023 A 
HETATM   22  C   UNL     1      28.864  46.476  56.157  1.00  0.00     0.012 A 
HETATM   23  C   UNL     1      27.821  47.150  55.514  1.00  0.00     0.002 A 
HETATM   24  C   UNL     1      27.133  46.538  54.469  1.00  0.00     0.017 A 
BRANCH  21  25
HETATM   25  C   UNL     1      30.321  44.495  56.461  1.00  0.00    -0.002 A 
HETATM   26  C   UNL     1      30.844  44.873  57.683  1.00  0.00     0.153 A 
HETATM   27  O   UNL     1      31.853  44.045  58.061  1.00  0.00    -0.334 OA
HETATM   28  C   UNL     1      31.993  43.124  57.077  1.00  0.00     0.142 A 
HETATM   29  C   UNL     1      31.082  43.353  56.073  1.00  0.00     0.038 A 
ENDBRANCH  21  25
ENDBRANCH   2  19
TORSDOF 7
ENDMDL
MODEL 3
REMARK VINA RESULT:      -9.2      1.633      1.962
REMARK  7 active torsions:
REMARK  status: ('A' for Active; 'I' for Inactive)
REMARK       I    between atoms: C_2  and  N_3 
REMARK    1  A    between atoms: N_3  and  C_4 
REMARK    2  A    between atoms: C_6  and  O_7 
REMARK    3  A    between atoms: O_7  and  C_8 
REMARK    4  A    between atoms: C_8  and  C_9 
REMARK    5  A    between atoms: C_9  and  N_10 
REMARK       I    between atoms: N_10  and  C_11 
REMARK    6  A    between atoms: C_11  and  C_12 
REMARK    7  A    between atoms: C_14  and  C_15 
ROOT
HETATM    1  N   UNL     1      26.856  45.341  51.698  1.00  0.00    -0.355 N 
HETATM    2  C   UNL     1      26.834  44.704  52.921  1.00  0.00     0.251 C 
HETATM    3  O   UNL     1      25.829  44.602  53.614  1.00  0.00    -0.268 OA
HETATM    4  H   UNL     1      27.658  45.232  51.093  1.00  0.00     0.162 HD
ENDROOT
BRANCH   1   5
HETATM    5  C   UNL     1      25.669  45.975  51.155  1.00  0.00     0.149 C 
BRANCH   5   6
HETATM    6  C   UNL     1      25.839  47.471  50.880  1.00  0.00     0.195 C 
BRANCH   6   7
HETATM    7  O   UNL     1      25.565  47.694  49.493  1.00  0.00    -0.349 OA
BRANCH   7   8
HETATM    8  C   UNL     1      24.542  48.552  49.191  1.00  0.00     0.070 A 
HETATM    9  C   UNL     1      23.211  48.417  49.598  1.00  0.00     0.066 A 
HETATM   10  C   UNL     1      22.255  49.371  49.229  1.00  0.00     0.037 A 
HETATM   11  C   UNL     1      22.649  50.463  48.446  1.00  0.00     0.029 A 
HETATM   12  C   UNL     1      23.973  50.596  48.027  1.00  0.00     0.005 A 
HETATM   13  C   UNL     1      24.914  49.639  48.399  1.00  0.00     0.037 A 
BRANCH  10  14
HETATM   14  N   UNL     1      20.898  49.316  49.611  1.00  0.00    -0.327 N 
HETATM   15  C   UNL     1      19.980  48.322  49.323  1.00  0.00     0.218 C 
HETATM   16  C   UNL     1      18.632  48.586  49.947  1.00  0.00     0.117 C 
HETATM   17  O   UNL     1      20.158  47.333  48.621  1.00  0.00    -0.274 OA
HETATM   18  H   UNL     1      20.557  50.107  50.141  1.00  0.00     0.169 HD
ENDBRANCH  10  14
ENDBRANCH   7   8
ENDBRANCH   6   7
ENDBRANCH   5   6
ENDBRANCH   1   5
BRANCH   2  19
HETATM   19  C   UNL     1      28.116  44.099  53.369  1.00  0.00     0.032 A 
HETATM   20  C   UNL     1      28.645  44.499  54.606  1.00  0.00     0.029 A 
HETATM   21  C   UNL     1      29.865  43.978  55.065  1.00  0.00    -0.023 A 
HETATM   22  C   UNL     1      30.544  43.056  54.254  1.00  0.00     0.012 A 
HETATM   23  C   UNL     1      30.025  42.665  53.016  1.00  0.00     0.002 A 
HETATM   24  C   UNL     1      28.813  43.188  52.570  1.00  0.00     0.017 A 
BRANCH  21  25
HETATM   25  C   UNL     1      30.430  44.375  56.349  1.00  0.00    -0.002 A 
HETATM   26  C   UNL     1      31.415  43.681  57.027  1.00  0.00     0.153 A 
HETATM   27  O   UNL     1      31.726  44.295  58.199  1.00  0.00    -0.334 OA
HETATM   28  C   UNL     1      30.937  45.393  58.289  1.00  0.00     0.142 A 
HETATM   29  C   UNL     1      30.124  45.489  57.184  1.00  0.00     0.038 A 
ENDBRANCH  21  25
ENDBRANCH   2  19
TORSDOF 7
ENDMDL
MODEL 4
REMARK VINA RESULT:      -9.0      3.026      4.661
REMARK  7 active torsions:
REMARK  status: ('A' for Active; 'I' for Inactive)
REMARK       I    between atoms: C_2  and  N_3 
REMARK    1  A    between atoms: N_3  and  C_4 
REMARK    2  A    between atoms: C_6  and  O_7 
REMARK    3  A    between atoms: O_7  and  C_8 
REMARK    4  A    between atoms: C_8  and  C_9 
REMARK    5  A    between atoms: C_9  and  N_10 
REMARK       I    between atoms: N_10  and  C_11 
REMARK    6  A    between atoms: C_11  and  C_12 
REMARK    7  A    between atoms: C_14  and  C_15 
ROOT
HETATM    1  N   UNL     1      27.219  41.982  52.289  1.00  0.00    -0.355 N 
HETATM    2  C   UNL     1      28.469  41.951  52.871  1.00  0.00     0.251 C 
HETATM    3  O   UNL     1      29.307  41.091  52.631  1.00  0.00    -0.268 OA
HETATM    4  H   UNL     1      26.646  42.809  52.382  1.00  0.00     0.162 HD
ENDROOT
BRANCH   1   5
HETATM    5  C   UNL     1      26.794  40.955  51.356  1.00  0.00     0.149 C 
BRANCH   5   6
HETATM    6  C   UNL     1      25.846  41.463  50.268  1.00  0.00     0.195 C 
BRANCH   6   7
HETATM    7  O   UNL     1      26.476  42.573  49.622  1.00  0.00    -0.349 OA
BRANCH   7   8
HETATM    8  C   UNL     1      25.871  43.794  49.749  1.00  0.00     0.070 A 
HETATM    9  C   UNL     1      26.500  45.037  49.629  1.00  0.00     0.066 A 
HETATM   10  C   UNL     1      25.766  46.221  49.773  1.00  0.00     0.037 A 
HETATM   11  C   UNL     1      24.394  46.144  50.039  1.00  0.00     0.029 A 
HETATM   12  C   UNL     1      23.764  44.907  50.171  1.00  0.00     0.005 A 
HETATM   13  C   UNL     1      24.505  43.736  50.028  1.00  0.00     0.037 A 
BRANCH  10  14
HETATM   14  N   UNL     1      26.323  47.513  49.652  1.00  0.00    -0.327 N 
HETATM   15  C   UNL     1      27.548  47.856  49.110  1.00  0.00     0.218 C 
HETATM   16  C   UNL     1      27.778  49.347  49.108  1.00  0.00     0.117 C 
HETATM   17  O   UNL     1      28.412  47.093  48.694  1.00  0.00    -0.274 OA
HETATM   18  H   UNL     1      25.763  48.269  50.024  1.00  0.00     0.169 HD
ENDBRANCH  10  14
ENDBRANCH   7   8
ENDBRANCH   6   7
ENDBRANCH   5   6
ENDBRANCH   1   5
BRANCH   2  19
HETATM   19  C   UNL     1      28.781  43.057  53.814  1.00  0.00     0.032 A 
HETATM   20  C   UNL     1      27.925  44.169  53.845  1.00  0.00     0.029 A 
HETATM   21  C   UNL     1      28.189  45.251  54.699  1.00  0.00    -0.023 A 
HETATM   22  C   UNL     1      29.329  45.196  55.514  1.00  0.00     0.012 A 
HETATM   23  C   UNL     1      30.190  44.094  55.476  1.00  0.00     0.002 A 
HETATM   24  C   UNL     1      29.920  43.025  54.625  1.00  0.00     0.017 A 
BRANCH  21  25
HETATM   25  C   UNL     1      27.310  46.414  54.752  1.00  0.00    -0.002 A 
HETATM   26  C   UNL     1      26.227  46.625  53.920  1.00  0.00     0.153 A 
HETATM   27  O   UNL     1      25.611  47.802  54.208  1.00  0.00    -0.334 OA
HETATM   28  C   UNL     1      26.299  48.364  55.231  1.00  0.00     0.142 A 
HETATM   29  C   UNL     1      27.349  47.557  55.602  1.00  0.00     0.038 A 
ENDBRANCH  21  25
ENDBRANCH   2  19
TORSDOF 7
ENDMDL
MODEL 5
REMARK VINA RESULT:      -8.9      2.979      5.471
REMARK  7 active torsions:
REMARK  status: ('A' for Active; 'I' for Inactive)
REMARK       I    between atoms: C_2  and  N_3 
REMARK    1  A    between atoms: N_3  and  C_4 
REMARK    2  A    between atoms: C_6  and  O_7 
REMARK    3  A    between atoms: O_7  and  C_8 
REMARK    4  A    between atoms: C_8  and  C_9 
REMARK    5  A    between atoms: C_9  and  N_10 
REMARK       I    between atoms: N_10  and  C_11 
REMARK    6  A    between atoms: C_11  and  C_12 
REMARK    7  A    between atoms: C_14  and  C_15 
ROOT
HETATM    1  N   UNL     1      26.659  45.987  52.553  1.00  0.00    -0.355 N 
HETATM    2  C   UNL     1      26.652  44.845  53.326  1.00  0.00     0.251 C 
HETATM    3  O   UNL     1      25.634  44.339  53.778  1.00  0.00    -0.268 OA
HETATM    4  H   UNL     1      27.499  46.250  52.057  1.00  0.00     0.162 HD
ENDROOT
BRANCH   1   5
HETATM    5  C   UNL     1      25.431  46.697  52.245  1.00  0.00     0.149 C 
BRANCH   5   6
HETATM    6  C   UNL     1      25.042  46.645  50.765  1.00  0.00     0.195 C 
BRANCH   6   7
HETATM    7  O   UNL     1      26.098  45.988  50.058  1.00  0.00    -0.349 OA
BRANCH   7   8
HETATM    8  C   UNL     1      25.847  44.725  49.595  1.00  0.00     0.070 A 
HETATM    9  C   UNL     1      26.730  43.642  49.645  1.00  0.00     0.066 A 
HETATM   10  C   UNL     1      26.349  42.391  49.143  1.00  0.00     0.037 A 
HETATM   11  C   UNL     1      25.072  42.239  48.590  1.00  0.00     0.029 A 
HETATM   12  C   UNL     1      24.192  43.319  48.527  1.00  0.00     0.005 A 
HETATM   13  C   UNL     1      24.583  44.558  49.027  1.00  0.00     0.037 A 
BRANCH  10  14
HETATM   14  N   UNL     1      27.175  41.247  49.170  1.00  0.00    -0.327 N 
HETATM   15  C   UNL     1      28.089  40.843  48.214  1.00  0.00     0.218 C 
HETATM   16  C   UNL     1      28.826  39.590  48.616  1.00  0.00     0.117 C 
HETATM   17  O   UNL     1      28.303  41.370  47.128  1.00  0.00    -0.274 OA
HETATM   18  H   UNL     1      27.068  40.646  49.978  1.00  0.00     0.169 HD
ENDBRANCH  10  14
ENDBRANCH   7   8
ENDBRANCH   6   7
ENDBRANCH   5   6
ENDBRANCH   1   5
BRANCH   2  19
HETATM   19  C   UNL     1      27.975  44.215  53.575  1.00  0.00     0.032 A 
HETATM   20  C   UNL     1      28.622  44.478  54.793  1.00  0.00     0.029 A 
HETATM   21  C   UNL     1      29.883  43.928  55.068  1.00  0.00    -0.023 A 
HETATM   22  C   UNL     1      30.483  43.116  54.094  1.00  0.00     0.012 A 
HETATM   23  C   UNL     1      29.847  42.861  52.875  1.00  0.00     0.002 A 
HETATM   24  C   UNL     1      28.595  43.412  52.612  1.00  0.00     0.017 A 
BRANCH  21  25
HETATM   25  C   UNL     1      30.570  44.184  56.328  1.00  0.00    -0.002 A 
HETATM   26  C   UNL     1      31.601  43.417  56.837  1.00  0.00     0.153 A 
HETATM   27  O   UNL     1      32.028  43.902  58.033  1.00  0.00    -0.334 OA
HETATM   28  C   UNL     1      31.268  44.990  58.308  1.00  0.00     0.142 A 
HETATM   29  C   UNL     1      30.359  45.207  57.299  1.00  0.00     0.038 A 
ENDBRANCH  21  25
ENDBRANCH   2  19
TORSDOF 7
ENDMDL
MODEL 6
REMARK VINA RESULT:      -8.8      2.268      3.478
REMARK  7 active torsions:
REMARK  status: ('A' for Active; 'I' for Inactive)
REMARK       I    between atoms: C_2  and  N_3 
REMARK    1  A    between atoms: N_3  and  C_4 
REMARK    2  A    between atoms: C_6  and  O_7 
REMARK    3  A    between atoms: O_7  and  C_8 
REMARK    4  A    between atoms: C_8  and  C_9 
REMARK    5  A    between atoms: C_9  and  N_10 
REMARK       I    between atoms: N_10  and  C_11 
REMARK    6  A    between atoms: C_11  and  C_12 
REMARK    7  A    between atoms: C_14  and  C_15 
ROOT
HETATM    1  N   UNL     1      25.303  45.876  50.809  1.00  0.00    -0.355 N 
HETATM    2  C   UNL     1      25.174  45.357  52.080  1.00  0.00     0.251 C 
HETATM    3  O   UNL     1      24.407  44.447  52.367  1.00  0.00    -0.268 OA
HETATM    4  H   UNL     1      26.076  46.490  50.596  1.00  0.00     0.162 HD
ENDROOT
BRANCH   1   5
HETATM    5  C   UNL     1      24.494  45.385  49.708  1.00  0.00     0.149 C 
BRANCH   5   6
HETATM    6  C   UNL     1      23.417  46.369  49.245  1.00  0.00     0.195 C 
BRANCH   6   7
HETATM    7  O   UNL     1      23.919  47.693  49.449  1.00  0.00    -0.349 OA
BRANCH   7   8
HETATM    8  C   UNL     1      23.080  48.731  49.146  1.00  0.00     0.070 A 
HETATM    9  C   UNL     1      21.696  48.641  48.967  1.00  0.00     0.066 A 
HETATM   10  C   UNL     1      20.943  49.783  48.668  1.00  0.00     0.037 A 
HETATM   11  C   UNL     1      21.593  51.017  48.550  1.00  0.00     0.029 A 
HETATM   12  C   UNL     1      22.975  51.111  48.717  1.00  0.00     0.005 A 
HETATM   13  C   UNL     1      23.714  49.968  49.012  1.00  0.00     0.037 A 
BRANCH  10  14
HETATM   14  N   UNL     1      19.543  49.778  48.486  1.00  0.00    -0.327 N 
HETATM   15  C   UNL     1      18.568  50.010  49.439  1.00  0.00     0.218 C 
HETATM   16  C   UNL     1      17.176  49.971  48.859  1.00  0.00     0.117 C 
HETATM   17  O   UNL     1      18.737  50.197  50.639  1.00  0.00    -0.274 OA
HETATM   18  H   UNL     1      19.221  49.561  47.552  1.00  0.00     0.169 HD
ENDBRANCH  10  14
ENDBRANCH   7   8
ENDBRANCH   6   7
ENDBRANCH   5   6
ENDBRANCH   1   5
BRANCH   2  19
HETATM   19  C   UNL     1      26.055  45.949  53.122  1.00  0.00     0.032 A 
HETATM   20  C   UNL     1      27.132  45.186  53.598  1.00  0.00     0.029 A 
HETATM   21  C   UNL     1      27.978  45.687  54.598  1.00  0.00    -0.023 A 
HETATM   22  C   UNL     1      27.717  46.965  55.114  1.00  0.00     0.012 A 
HETATM   23  C   UNL     1      26.638  47.724  54.650  1.00  0.00     0.002 A 
HETATM   24  C   UNL     1      25.804  47.216  53.656  1.00  0.00     0.017 A 
BRANCH  21  25
HETATM   25  C   UNL     1      29.106  44.913  55.103  1.00  0.00    -0.002 A 
HETATM   26  C   UNL     1      29.971  45.332  56.098  1.00  0.00     0.153 A 
HETATM   27  O   UNL     1      30.925  44.396  56.342  1.00  0.00    -0.334 OA
HETATM   28  C   UNL     1      30.685  43.362  55.500  1.00  0.00     0.142 A 
HETATM   29  C   UNL     1      29.585  43.627  54.719  1.00  0.00     0.038 A 
ENDBRANCH  21  25
ENDBRANCH   2  19
TORSDOF 7
ENDMDL
MODEL 7
REMARK VINA RESULT:      -8.8      1.794      2.571
REMARK  7 active torsions:
REMARK  status: ('A' for Active; 'I' for Inactive)
REMARK       I    between atoms: C_2  and  N_3 
REMARK    1  A    between atoms: N_3  and  C_4 
REMARK    2  A    between atoms: C_6  and  O_7 
REMARK    3  A    between atoms: O_7  and  C_8 
REMARK    4  A    between atoms: C_8  and  C_9 
REMARK    5  A    between atoms: C_9  and  N_10 
REMARK       I    between atoms: N_10  and  C_11 
REMARK    6  A    between atoms: C_11  and  C_12 
REMARK    7  A    between atoms: C_14  and  C_15 
ROOT
HETATM    1  N   UNL     1      25.498  44.138  50.356  1.00  0.00    -0.355 N 
HETATM    2  C   UNL     1      26.869  44.244  50.453  1.00  0.00     0.251 C 
HETATM    3  O   UNL     1      27.539  45.020  49.783  1.00  0.00    -0.268 OA
HETATM    4  H   UNL     1      24.986  43.621  51.057  1.00  0.00     0.162 HD
ENDROOT
BRANCH   1   5
HETATM    5  C   UNL     1      24.744  44.937  49.407  1.00  0.00     0.149 C 
BRANCH   5   6
HETATM    6  C   UNL     1      24.457  46.361  49.890  1.00  0.00     0.195 C 
BRANCH   6   7
HETATM    7  O   UNL     1      23.255  46.805  49.253  1.00  0.00    -0.349 OA
BRANCH   7   8
HETATM    8  C   UNL     1      23.178  48.131  48.924  1.00  0.00     0.070 A 
HETATM    9  C   UNL     1      22.002  48.845  48.669  1.00  0.00     0.066 A 
HETATM   10  C   UNL     1      22.055  50.207  48.349  1.00  0.00     0.037 A 
HETATM   11  C   UNL     1      23.299  50.846  48.288  1.00  0.00     0.029 A 
HETATM   12  C   UNL     1      24.475  50.135  48.530  1.00  0.00     0.005 A 
HETATM   13  C   UNL     1      24.410  48.781  48.844  1.00  0.00     0.037 A 
BRANCH  10  14
HETATM   14  N   UNL     1      20.915  51.000  48.094  1.00  0.00    -0.327 N 
HETATM   15  C   UNL     1      20.041  51.544  49.017  1.00  0.00     0.218 C 
HETATM   16  C   UNL     1      18.965  52.379  48.368  1.00  0.00     0.117 C 
HETATM   17  O   UNL     1      20.054  51.380  50.232  1.00  0.00    -0.274 OA
HETATM   18  H   UNL     1      20.709  51.172  47.118  1.00  0.00     0.169 HD
ENDBRANCH  10  14
ENDBRANCH   7   8
ENDBRANCH   6   7
ENDBRANCH   5   6
ENDBRANCH   1   5
BRANCH   2  19
HETATM   19  C   UNL     1      27.525  43.367  51.459  1.00  0.00     0.032 A 
HETATM   20  C   UNL     1      28.187  43.969  52.540  1.00  0.00     0.029 A 
HETATM   21  C   UNL     1      28.843  43.188  53.503  1.00  0.00    -0.023 A 
HETATM   22  C   UNL     1      28.827  41.793  53.355  1.00  0.00     0.012 A 
HETATM   23  C   UNL     1      28.179  41.190  52.272  1.00  0.00     0.002 A 
HETATM   24  C   UNL     1      27.530  41.975  51.321  1.00  0.00     0.017 A 
BRANCH  21  25
HETATM   25  C   UNL     1      29.532  43.793  54.637  1.00  0.00    -0.002 A 
HETATM   26  C   UNL     1      29.174  44.987  55.235  1.00  0.00     0.153 A 
HETATM   27  O   UNL     1      30.012  45.291  56.260  1.00  0.00    -0.334 OA
HETATM   28  C   UNL     1      30.925  44.293  56.329  1.00  0.00     0.142 A 
HETATM   29  C   UNL     1      30.679  43.351  55.358  1.00  0.00     0.038 A 
ENDBRANCH  21  25
ENDBRANCH   2  19
TORSDOF 7
ENDMDL
MODEL 8
REMARK VINA RESULT:      -8.5      3.798      6.986
REMARK  7 active torsions:
REMARK  status: ('A' for Active; 'I' for Inactive)
REMARK       I    between atoms: C_2  and  N_3 
REMARK    1  A    between atoms: N_3  and  C_4 
REMARK    2  A    between atoms: C_6  and  O_7 
REMARK    3  A    between atoms: O_7  and  C_8 
REMARK    4  A    between atoms: C_8  and  C_9 
REMARK    5  A    between atoms: C_9  and  N_10 
REMARK       I    between atoms: N_10  and  C_11 
REMARK    6  A    between atoms: C_11  and  C_12 
REMARK    7  A    between atoms: C_14  and  C_15 
ROOT
HETATM    1  N   UNL     1      26.423  44.327  51.736  1.00  0.00    -0.355 N 
HETATM    2  C   UNL     1      26.928  44.817  52.922  1.00  0.00     0.251 C 
HETATM    3  O   UNL     1      26.384  45.694  53.581  1.00  0.00    -0.268 OA
HETATM    4  H   UNL     1      26.812  43.484  51.338  1.00  0.00     0.162 HD
ENDROOT
BRANCH   1   5
HETATM    5  C   UNL     1      25.199  44.855  51.162  1.00  0.00     0.149 C 
BRANCH   5   6
HETATM    6  C   UNL     1      24.463  43.864  50.257  1.00  0.00     0.195 C 
BRANCH   6   7
HETATM    7  O   UNL     1      24.513  42.579  50.885  1.00  0.00    -0.349 OA
BRANCH   7   8
HETATM    8  C   UNL     1      25.254  41.611  50.264  1.00  0.00     0.070 A 
HETATM    9  C   UNL     1      26.311  40.895  50.835  1.00  0.00     0.066 A 
HETATM   10  C   UNL     1      26.989  39.918  50.096  1.00  0.00     0.037 A 
HETATM   11  C   UNL     1      26.594  39.666  48.776  1.00  0.00     0.029 A 
HETATM   12  C   UNL     1      25.548  40.385  48.198  1.00  0.00     0.005 A 
HETATM   13  C   UNL     1      24.883  41.356  48.943  1.00  0.00     0.037 A 
BRANCH  10  14
HETATM   14  N   UNL     1      28.054  39.143  50.603  1.00  0.00    -0.327 N 
HETATM   15  C   UNL     1      28.897  38.303  49.899  1.00  0.00     0.218 C 
HETATM   16  C   UNL     1      29.953  37.680  50.777  1.00  0.00     0.117 C 
HETATM   17  O   UNL     1      28.832  38.021  48.708  1.00  0.00    -0.274 OA
HETATM   18  H   UNL     1      28.201  39.199  51.603  1.00  0.00     0.169 HD
ENDBRANCH  10  14
ENDBRANCH   7   8
ENDBRANCH   6   7
ENDBRANCH   5   6
ENDBRANCH   1   5
BRANCH   2  19
HETATM   19  C   UNL     1      28.192  44.197  53.402  1.00  0.00     0.032 A 
HETATM   20  C   UNL     1      28.699  44.595  54.649  1.00  0.00     0.029 A 
HETATM   21  C   UNL     1      29.901  44.060  55.137  1.00  0.00    -0.023 A 
HETATM   22  C   UNL     1      30.585  43.124  54.346  1.00  0.00     0.012 A 
HETATM   23  C   UNL     1      30.088  42.735  53.097  1.00  0.00     0.002 A 
HETATM   24  C   UNL     1      28.894  43.273  52.622  1.00  0.00     0.017 A 
BRANCH  21  25
HETATM   25  C   UNL     1      30.443  44.454  56.432  1.00  0.00    -0.002 A 
HETATM   26  C   UNL     1      31.422  43.765  57.123  1.00  0.00     0.153 A 
HETATM   27  O   UNL     1      31.709  44.375  58.302  1.00  0.00    -0.334 OA
HETATM   28  C   UNL     1      30.911  45.466  58.384  1.00  0.00     0.142 A 
HETATM   29  C   UNL     1      30.114  45.562  57.267  1.00  0.00     0.038 A 
ENDBRANCH  21  25
ENDBRANCH   2  19
TORSDOF 7
ENDMDL
MODEL 9
REMARK VINA RESULT:      -8.2      2.958      4.475
REMARK  7 active torsions:
REMARK  status: ('A' for Active; 'I' for Inactive)
REMARK       I    between atoms: C_2  and  N_3 
REMARK    1  A    between atoms: N_3  and  C_4 
REMARK    2  A    between atoms: C_6  and  O_7 
REMARK    3  A    between atoms: O_7  and  C_8 
REMARK    4  A    between atoms: C_8  and  C_9 
REMARK    5  A    between atoms: C_9  and  N_10 
REMARK       I    between atoms: N_10  and  C_11 
REMARK    6  A    between atoms: C_11  and  C_12 
REMARK    7  A    between atoms: C_14  and  C_15 
ROOT
HETATM    1  N   UNL     1      24.827  47.195  50.912  1.00  0.00    -0.355 N 
HETATM    2  C   UNL     1      25.270  46.075  51.583  1.00  0.00     0.251 C 
HETATM    3  O   UNL     1      25.082  44.931  51.191  1.00  0.00    -0.268 OA
HETATM    4  H   UNL     1      25.169  48.107  51.182  1.00  0.00     0.162 HD
ENDROOT
BRANCH   1   5
HETATM    5  C   UNL     1      24.064  47.086  49.682  1.00  0.00     0.149 C 
BRANCH   5   6
HETATM    6  C   UNL     1      23.881  48.416  48.948  1.00  0.00     0.195 C 
BRANCH   6   7
HETATM    7  O   UNL     1      22.867  48.232  47.957  1.00  0.00    -0.349 OA
BRANCH   7   8
HETATM    8  C   UNL     1      21.788  49.073  48.006  1.00  0.00     0.070 A 
HETATM    9  C   UNL     1      20.456  48.713  47.776  1.00  0.00     0.066 A 
HETATM   10  C   UNL     1      19.436  49.669  47.865  1.00  0.00     0.037 A 
HETATM   11  C   UNL     1      19.767  50.991  48.187  1.00  0.00     0.029 A 
HETATM   12  C   UNL     1      21.095  51.357  48.406  1.00  0.00     0.005 A 
HETATM   13  C   UNL     1      22.100  50.399  48.312  1.00  0.00     0.037 A 
BRANCH  10  14
HETATM   14  N   UNL     1      18.069  49.383  47.663  1.00  0.00    -0.327 N 
HETATM   15  C   UNL     1      17.245  48.600  48.451  1.00  0.00     0.218 C 
HETATM   16  C   UNL     1      15.825  48.567  47.942  1.00  0.00     0.117 C 
HETATM   17  O   UNL     1      17.568  47.949  49.439  1.00  0.00    -0.274 OA
HETATM   18  H   UNL     1      17.653  49.786  46.833  1.00  0.00     0.169 HD
ENDBRANCH  10  14
ENDBRANCH   7   8
ENDBRANCH   6   7
ENDBRANCH   5   6
ENDBRANCH   1   5
BRANCH   2  19
HETATM   19  C   UNL     1      26.035  46.320  52.834  1.00  0.00     0.032 A 
HETATM   20  C   UNL     1      27.033  45.402  53.197  1.00  0.00     0.029 A 
HETATM   21  C   UNL     1      27.768  45.573  54.380  1.00  0.00    -0.023 A 
HETATM   22  C   UNL     1      27.475  46.679  55.193  1.00  0.00     0.012 A 
HETATM   23  C   UNL     1      26.474  47.589  54.840  1.00  0.00     0.002 A 
HETATM   24  C   UNL     1      25.750  47.409  53.663  1.00  0.00     0.017 A 
BRANCH  21  25
HETATM   25  C   UNL     1      28.813  44.635  54.773  1.00  0.00    -0.002 A 
HETATM   26  C   UNL     1      28.885  43.316  54.367  1.00  0.00     0.153 A 
HETATM   27  O   UNL     1      29.967  42.696  54.907  1.00  0.00    -0.334 OA
HETATM   28  C   UNL     1      30.603  43.615  55.673  1.00  0.00     0.142 A 
HETATM   29  C   UNL     1      29.939  44.819  55.628  1.00  0.00     0.038 A 
ENDBRANCH  21  25
ENDBRANCH   2  19
TORSDOF 7
ENDMDL
MODEL 10
REMARK VINA RESULT:      -8.1      4.055      8.356
REMARK  7 active torsions:
REMARK  status: ('A' for Active; 'I' for Inactive)
REMARK       I    between atoms: C_2  and  N_3 
REMARK    1  A    between atoms: N_3  and  C_4 
REMARK    2  A    between atoms: C_6  and  O_7 
REMARK    3  A    between atoms: O_7  and  C_8 
REMARK    4  A    between atoms: C_8  and  C_9 
REMARK    5  A    between atoms: C_9  and  N_10 
REMARK       I    between atoms: N_10  and  C_11 
REMARK    6  A    between atoms: C_11  and  C_12 
REMARK    7  A    between atoms: C_14  and  C_15 
ROOT
HETATM    1  N   UNL     1      22.239  49.387  49.515  1.00  0.00    -0.355 N 
HETATM    2  C   UNL     1      23.126  49.584  48.478  1.00  0.00     0.251 C 
HETATM    3  O   UNL     1      22.810  50.068  47.398  1.00  0.00    -0.268 OA
HETATM    4  H   UNL     1      22.589  49.161  50.435  1.00  0.00     0.162 HD
ENDROOT
BRANCH   1   5
HETATM    5  C   UNL     1      20.833  49.718  49.379  1.00  0.00     0.149 C 
BRANCH   5   6
HETATM    6  C   UNL     1      20.469  51.103  49.921  1.00  0.00     0.195 C 
BRANCH   6   7
HETATM    7  O   UNL     1      19.901  51.858  48.848  1.00  0.00    -0.349 OA
BRANCH   7   8
HETATM    8  C   UNL     1      18.544  52.037  48.862  1.00  0.00     0.070 A 
HETATM    9  C   UNL     1      17.808  52.640  49.887  1.00  0.00     0.066 A 
HETATM   10  C   UNL     1      16.418  52.773  49.779  1.00  0.00     0.037 A 
HETATM   11  C   UNL     1      15.774  52.295  48.631  1.00  0.00     0.029 A 
HETATM   12  C   UNL     1      16.503  51.683  47.611  1.00  0.00     0.005 A 
HETATM   13  C   UNL     1      17.884  51.554  47.731  1.00  0.00     0.037 A 
BRANCH  10  14
HETATM   14  N   UNL     1      15.606  53.381  50.761  1.00  0.00    -0.327 N 
HETATM   15  C   UNL     1      15.173  54.694  50.803  1.00  0.00     0.218 C 
HETATM   16  C   UNL     1      14.275  54.965  51.985  1.00  0.00     0.117 C 
HETATM   17  O   UNL     1      15.471  55.595  50.028  1.00  0.00    -0.274 OA
HETATM   18  H   UNL     1      15.327  52.787  51.531  1.00  0.00     0.169 HD
ENDBRANCH  10  14
ENDBRANCH   7   8
ENDBRANCH   6   7
ENDBRANCH   5   6
ENDBRANCH   1   5
BRANCH   2  19
HETATM   19  C   UNL     1      24.538  49.199  48.740  1.00  0.00     0.032 A 
HETATM   20  C   UNL     1      24.784  48.033  49.482  1.00  0.00     0.029 A 
HETATM   21  C   UNL     1      26.097  47.638  49.779  1.00  0.00    -0.023 A 
HETATM   22  C   UNL     1      27.155  48.439  49.323  1.00  0.00     0.012 A 
HETATM   23  C   UNL     1      26.912  49.607  48.593  1.00  0.00     0.002 A 
HETATM   24  C   UNL     1      25.604  49.990  48.304  1.00  0.00     0.017 A 
BRANCH  21  25
HETATM   25  C   UNL     1      26.377  46.427  50.544  1.00  0.00    -0.002 A 
HETATM   26  C   UNL     1      27.003  45.302  50.042  1.00  0.00     0.153 A 
HETATM   27  O   UNL     1      27.112  44.338  50.993  1.00  0.00    -0.334 OA
HETATM   28  C   UNL     1      26.549  44.835  52.121  1.00  0.00     0.142 A 
HETATM   29  C   UNL     1      26.082  46.109  51.902  1.00  0.00     0.038 A 
ENDBRANCH  21  25
ENDBRANCH   2  19
TORSDOF 7
ENDMDL
