MODEL 1
REMARK VINA RESULT:      -9.3      0.000      0.000
REMARK  4 active torsions:
REMARK  status: ('A' for Active; 'I' for Inactive)
REMARK    1  A    between atoms: C_7  and  C_8 
REMARK    2  A    between atoms: C_10  and  O_11 
REMARK    3  A    between atoms: C_17  and  C_18 
REMARK    4  A    between atoms: C_25  and  C_26 
REMARK       I    between atoms: C_26  and  N_27 
ROOT
HETATM    1  C   UNL     1      26.150  39.424  50.086  1.00  0.00     0.070 C 
HETATM    2  C   UNL     1      26.745  40.712  50.599  1.00  0.00     0.037 C 
HETATM    3  N   UNL     1      27.015  40.749  51.967  1.00  0.00    -0.192 N 
HETATM    4  C   UNL     1      27.737  41.731  52.540  1.00  0.00     0.726 A 
HETATM    5  N   UNL     1      28.054  42.835  51.807  1.00  0.00    -0.083 N 
HETATM    6  N   UNL     1      28.858  43.673  52.487  1.00  0.00    -0.135 NA
HETATM    7  C   UNL     1      28.944  43.045  53.677  1.00  0.00     0.199 A 
HETATM    8  N   UNL     1      28.265  41.838  53.732  1.00  0.00    -0.041 NA
HETATM    9  C   UNL     1      27.585  43.070  50.440  1.00  0.00     0.202 C 
HETATM   10  C   UNL     1      27.018  41.795  49.822  1.00  0.00     0.062 C 
HETATM   11  H   UNL     1      26.890  39.882  52.485  1.00  0.00     0.184 HD
ENDROOT
BRANCH   7  12
HETATM   12  C   UNL     1      29.688  43.573  54.819  1.00  0.00     0.017 A 
HETATM   13  C   UNL     1      29.237  44.726  55.483  1.00  0.00     0.052 A 
HETATM   14  C   UNL     1      29.944  45.243  56.573  1.00  0.00     0.069 A 
HETATM   15  C   UNL     1      31.107  44.599  57.002  1.00  0.00     0.037 A 
HETATM   16  C   UNL     1      31.567  43.454  56.353  1.00  0.00     0.004 A 
HETATM   17  C   UNL     1      30.859  42.944  55.265  1.00  0.00     0.015 A 
BRANCH  14  18
HETATM   18  O   UNL     1      29.608  46.354  57.295  1.00  0.00    -0.356 OA
HETATM   19  C   UNL     1      28.299  46.390  57.848  1.00  0.00     0.210 C 
ENDBRANCH  14  18
ENDBRANCH   7  12
BRANCH   9  20
HETATM   20  C   UNL     1      26.599  44.242  50.461  1.00  0.00    -0.028 A 
HETATM   21  C   UNL     1      26.951  45.455  49.838  1.00  0.00     0.012 A 
HETATM   22  C   UNL     1      26.075  46.542  49.853  1.00  0.00     0.043 A 
HETATM   23  C   UNL     1      24.849  46.427  50.495  1.00  0.00     0.116 A 
HETATM   24  F   UNL     1      24.009  47.469  50.507  1.00  0.00    -0.206 F 
HETATM   25  C   UNL     1      24.484  45.247  51.130  1.00  0.00     0.043 A 
HETATM   26  C   UNL     1      25.357  44.158  51.121  1.00  0.00     0.012 A 
ENDBRANCH   9  20
BRANCH  10  27
HETATM   27  C   UNL     1      26.938  41.705  48.339  1.00  0.00     0.249 C 
HETATM   28  N   UNL     1      25.732  41.944  47.762  1.00  0.00    -0.366 N 
HETATM   29  H   UNL     1      24.852  42.002  48.253  1.00  0.00     0.159 HD
HETATM   30  H   UNL     1      25.688  41.835  46.756  1.00  0.00     0.159 HD
HETATM   31  O   UNL     1      27.910  41.461  47.635  1.00  0.00    -0.268 OA
ENDBRANCH  10  27
TORSDOF 4
ENDMDL
MODEL 2
REMARK VINA RESULT:      -9.0      1.573      2.352
REMARK  4 active torsions:
REMARK  status: ('A' for Active; 'I' for Inactive)
REMARK    1  A    between atoms: C_7  and  C_8 
REMARK    2  A    between atoms: C_10  and  O_11 
REMARK    3  A    between atoms: C_17  and  C_18 
REMARK    4  A    between atoms: C_25  and  C_26 
REMARK       I    between atoms: C_26  and  N_27 
ROOT
HETATM    1  C   UNL     1      27.954  38.897  49.600  1.00  0.00     0.070 C 
HETATM    2  C   UNL     1      27.761  40.312  50.085  1.00  0.00     0.037 C 
HETATM    3  N   UNL     1      27.934  40.511  51.454  1.00  0.00    -0.192 N 
HETATM    4  C   UNL     1      28.009  41.735  52.009  1.00  0.00     0.726 A 
HETATM    5  N   UNL     1      27.710  42.826  51.250  1.00  0.00    -0.083 N 
HETATM    6  N   UNL     1      27.928  43.975  51.916  1.00  0.00    -0.135 NA
HETATM    7  C   UNL     1      28.303  43.509  53.124  1.00  0.00     0.199 A 
HETATM    8  N   UNL     1      28.367  42.127  53.204  1.00  0.00    -0.041 NA
HETATM    9  C   UNL     1      27.223  42.753  49.870  1.00  0.00     0.202 C 
HETATM   10  C   UNL     1      27.437  41.361  49.281  1.00  0.00     0.062 C 
HETATM   11  H   UNL     1      28.274  39.719  51.995  1.00  0.00     0.184 HD
ENDROOT
BRANCH   7  12
HETATM   12  C   UNL     1      28.623  44.371  54.261  1.00  0.00     0.017 A 
HETATM   13  C   UNL     1      29.705  44.059  55.100  1.00  0.00     0.052 A 
HETATM   14  C   UNL     1      30.016  44.873  56.193  1.00  0.00     0.069 A 
HETATM   15  C   UNL     1      29.241  46.007  56.445  1.00  0.00     0.037 A 
HETATM   16  C   UNL     1      28.165  46.331  55.621  1.00  0.00     0.004 A 
HETATM   17  C   UNL     1      27.857  45.514  54.533  1.00  0.00     0.015 A 
BRANCH  14  18
HETATM   18  O   UNL     1      31.038  44.673  57.080  1.00  0.00    -0.356 OA
HETATM   19  C   UNL     1      31.710  43.421  57.014  1.00  0.00     0.210 C 
ENDBRANCH  14  18
ENDBRANCH   7  12
BRANCH   9  20
HETATM   20  C   UNL     1      25.765  43.222  49.845  1.00  0.00    -0.028 A 
HETATM   21  C   UNL     1      24.754  42.366  50.320  1.00  0.00     0.012 A 
HETATM   22  C   UNL     1      23.416  42.765  50.297  1.00  0.00     0.043 A 
HETATM   23  C   UNL     1      23.081  44.016  49.794  1.00  0.00     0.116 A 
HETATM   24  F   UNL     1      21.798  44.398  49.774  1.00  0.00    -0.206 F 
HETATM   25  C   UNL     1      24.058  44.873  49.305  1.00  0.00     0.043 A 
HETATM   26  C   UNL     1      25.397  44.478  49.322  1.00  0.00     0.012 A 
ENDBRANCH   9  20
BRANCH  10  27
HETATM   27  C   UNL     1      27.455  41.218  47.800  1.00  0.00     0.249 C 
HETATM   28  N   UNL     1      26.261  41.076  47.171  1.00  0.00    -0.366 N 
HETATM   29  H   UNL     1      25.380  40.883  47.626  1.00  0.00     0.159 HD
HETATM   30  H   UNL     1      26.298  40.936  46.168  1.00  0.00     0.159 HD
HETATM   31  O   UNL     1      28.488  41.256  47.142  1.00  0.00    -0.268 OA
ENDBRANCH  10  27
TORSDOF 4
ENDMDL
MODEL 3
REMARK VINA RESULT:      -8.8      2.715      4.266
REMARK  4 active torsions:
REMARK  status: ('A' for Active; 'I' for Inactive)
REMARK    1  A    between atoms: C_7  and  C_8 
REMARK    2  A    between atoms: C_10  and  O_11 
REMARK    3  A    between atoms: C_17  and  C_18 
REMARK    4  A    between atoms: C_25  and  C_26 
REMARK       I    between atoms: C_26  and  N_27 
ROOT
HETATM    1  C   UNL     1      23.807  45.860  49.379  1.00  0.00     0.070 C 
HETATM    2  C   UNL     1      24.679  44.910  50.162  1.00  0.00     0.037 C 
HETATM    3  N   UNL     1      25.804  45.477  50.760  1.00  0.00    -0.192 N 
HETATM    4  C   UNL     1      26.559  44.820  51.661  1.00  0.00     0.726 A 
HETATM    5  N   UNL     1      26.347  43.488  51.858  1.00  0.00    -0.083 N 
HETATM    6  N   UNL     1      27.109  43.002  52.855  1.00  0.00    -0.135 NA
HETATM    7  C   UNL     1      27.828  44.092  53.190  1.00  0.00     0.199 A 
HETATM    8  N   UNL     1      27.501  45.230  52.470  1.00  0.00    -0.041 NA
HETATM    9  C   UNL     1      25.394  42.689  51.084  1.00  0.00     0.202 C 
HETATM   10  C   UNL     1      24.431  43.580  50.304  1.00  0.00     0.062 C 
HETATM   11  H   UNL     1      25.891  46.489  50.711  1.00  0.00     0.184 HD
ENDROOT
BRANCH   7  12
HETATM   12  C   UNL     1      28.862  44.093  54.222  1.00  0.00     0.017 A 
HETATM   13  C   UNL     1      28.926  45.141  55.156  1.00  0.00     0.052 A 
HETATM   14  C   UNL     1      29.915  45.156  56.144  1.00  0.00     0.069 A 
HETATM   15  C   UNL     1      30.843  44.114  56.200  1.00  0.00     0.037 A 
HETATM   16  C   UNL     1      30.793  43.067  55.281  1.00  0.00     0.004 A 
HETATM   17  C   UNL     1      29.806  43.058  54.295  1.00  0.00     0.015 A 
BRANCH  14  18
HETATM   18  O   UNL     1      30.080  46.118  57.102  1.00  0.00    -0.356 OA
HETATM   19  C   UNL     1      30.547  45.684  58.374  1.00  0.00     0.210 C 
ENDBRANCH  14  18
ENDBRANCH   7  12
BRANCH   9  20
HETATM   20  C   UNL     1      26.181  41.709  50.209  1.00  0.00    -0.028 A 
HETATM   21  C   UNL     1      26.194  40.341  50.541  1.00  0.00     0.012 A 
HETATM   22  C   UNL     1      26.914  39.428  49.767  1.00  0.00     0.043 A 
HETATM   23  C   UNL     1      27.628  39.877  48.664  1.00  0.00     0.116 A 
HETATM   24  F   UNL     1      28.316  39.001  47.921  1.00  0.00    -0.206 F 
HETATM   25  C   UNL     1      27.643  41.224  48.324  1.00  0.00     0.043 A 
HETATM   26  C   UNL     1      26.929  42.141  49.096  1.00  0.00     0.012 A 
ENDBRANCH   9  20
BRANCH  10  27
HETATM   27  C   UNL     1      23.137  42.997  49.858  1.00  0.00     0.249 C 
HETATM   28  N   UNL     1      23.122  42.342  48.668  1.00  0.00    -0.366 N 
HETATM   29  H   UNL     1      23.860  42.366  47.980  1.00  0.00     0.159 HD
HETATM   30  H   UNL     1      22.223  41.992  48.362  1.00  0.00     0.159 HD
HETATM   31  O   UNL     1      22.114  43.058  50.529  1.00  0.00    -0.268 OA
ENDBRANCH  10  27
TORSDOF 4
ENDMDL
MODEL 4
REMARK VINA RESULT:      -8.6      3.658      6.925
REMARK  4 active torsions:
REMARK  status: ('A' for Active; 'I' for Inactive)
REMARK    1  A    between atoms: C_7  and  C_8 
REMARK    2  A    between atoms: C_10  and  O_11 
REMARK    3  A    between atoms: C_17  and  C_18 
REMARK    4  A    between atoms: C_25  and  C_26 
REMARK       I    between atoms: C_26  and  N_27 
ROOT
HETATM    1  C   UNL     1      26.377  43.404  55.051  1.00  0.00     0.070 C 
HETATM    2  C   UNL     1      26.467  43.837  53.608  1.00  0.00     0.037 C 
HETATM    3  N   UNL     1      25.816  45.029  53.294  1.00  0.00    -0.192 N 
HETATM    4  C   UNL     1      25.979  45.659  52.114  1.00  0.00     0.726 A 
HETATM    5  N   UNL     1      26.642  45.021  51.109  1.00  0.00    -0.083 N 
HETATM    6  N   UNL     1      26.807  45.816  50.036  1.00  0.00    -0.135 NA
HETATM    7  C   UNL     1      26.151  46.926  50.429  1.00  0.00     0.199 A 
HETATM    8  N   UNL     1      25.636  46.855  51.714  1.00  0.00    -0.041 NA
HETATM    9  C   UNL     1      27.127  43.642  51.196  1.00  0.00     0.202 C 
HETATM   10  C   UNL     1      27.124  43.144  52.639  1.00  0.00     0.062 C 
HETATM   11  H   UNL     1      25.427  45.561  54.069  1.00  0.00     0.184 HD
ENDROOT
BRANCH   7  12
HETATM   12  C   UNL     1      25.992  48.112  49.590  1.00  0.00     0.017 A 
HETATM   13  C   UNL     1      24.713  48.507  49.162  1.00  0.00     0.052 A 
HETATM   14  C   UNL     1      24.549  49.636  48.354  1.00  0.00     0.069 A 
HETATM   15  C   UNL     1      25.672  50.376  47.977  1.00  0.00     0.037 A 
HETATM   16  C   UNL     1      26.947  49.998  48.394  1.00  0.00     0.004 A 
HETATM   17  C   UNL     1      27.105  48.869  49.198  1.00  0.00     0.015 A 
BRANCH  14  18
HETATM   18  O   UNL     1      23.362  50.116  47.874  1.00  0.00    -0.356 OA
HETATM   19  C   UNL     1      22.541  50.832  48.788  1.00  0.00     0.210 C 
ENDBRANCH  14  18
ENDBRANCH   7  12
BRANCH   9  20
HETATM   20  C   UNL     1      26.301  42.777  50.238  1.00  0.00    -0.028 A 
HETATM   21  C   UNL     1      24.912  42.664  50.430  1.00  0.00     0.012 A 
HETATM   22  C   UNL     1      24.138  41.872  49.578  1.00  0.00     0.043 A 
HETATM   23  C   UNL     1      24.749  41.185  48.537  1.00  0.00     0.116 A 
HETATM   24  F   UNL     1      24.007  40.428  47.720  1.00  0.00    -0.206 F 
HETATM   25  C   UNL     1      26.121  41.268  48.336  1.00  0.00     0.043 A 
HETATM   26  C   UNL     1      26.899  42.054  49.186  1.00  0.00     0.012 A 
ENDBRANCH   9  20
BRANCH  10  27
HETATM   27  C   UNL     1      27.997  41.990  52.988  1.00  0.00     0.249 C 
HETATM   28  N   UNL     1      27.443  40.752  52.945  1.00  0.00    -0.366 N 
HETATM   29  H   UNL     1      26.455  40.556  52.871  1.00  0.00     0.159 HD
HETATM   30  H   UNL     1      28.041  39.985  53.229  1.00  0.00     0.159 HD
HETATM   31  O   UNL     1      29.181  42.117  53.275  1.00  0.00    -0.268 OA
ENDBRANCH  10  27
TORSDOF 4
ENDMDL
MODEL 5
REMARK VINA RESULT:      -8.4      3.103      4.657
REMARK  4 active torsions:
REMARK  status: ('A' for Active; 'I' for Inactive)
REMARK    1  A    between atoms: C_7  and  C_8 
REMARK    2  A    between atoms: C_10  and  O_11 
REMARK    3  A    between atoms: C_17  and  C_18 
REMARK    4  A    between atoms: C_25  and  C_26 
REMARK       I    between atoms: C_26  and  N_27 
ROOT
HETATM    1  C   UNL     1      23.811  44.052  47.609  1.00  0.00     0.070 C 
HETATM    2  C   UNL     1      24.694  43.328  48.596  1.00  0.00     0.037 C 
HETATM    3  N   UNL     1      25.671  44.107  49.217  1.00  0.00    -0.192 N 
HETATM    4  C   UNL     1      26.390  43.671  50.268  1.00  0.00     0.726 A 
HETATM    5  N   UNL     1      26.314  42.358  50.624  1.00  0.00    -0.083 N 
HETATM    6  N   UNL     1      27.010  42.104  51.748  1.00  0.00    -0.135 NA
HETATM    7  C   UNL     1      27.555  43.311  51.997  1.00  0.00     0.199 A 
HETATM    8  N   UNL     1      27.181  44.299  51.099  1.00  0.00    -0.041 NA
HETATM    9  C   UNL     1      25.553  41.352  49.880  1.00  0.00     0.202 C 
HETATM   10  C   UNL     1      24.587  42.005  48.895  1.00  0.00     0.062 C 
HETATM   11  H   UNL     1      25.644  45.108  49.037  1.00  0.00     0.184 HD
ENDROOT
BRANCH   7  12
HETATM   12  C   UNL     1      28.459  43.576  53.115  1.00  0.00     0.017 A 
HETATM   13  C   UNL     1      28.179  44.615  54.018  1.00  0.00     0.052 A 
HETATM   14  C   UNL     1      29.040  44.882  55.086  1.00  0.00     0.069 A 
HETATM   15  C   UNL     1      30.185  44.101  55.254  1.00  0.00     0.037 A 
HETATM   16  C   UNL     1      30.476  43.066  54.367  1.00  0.00     0.004 A 
HETATM   17  C   UNL     1      29.615  42.805  53.301  1.00  0.00     0.015 A 
BRANCH  14  18
HETATM   18  O   UNL     1      28.877  45.863  56.025  1.00  0.00    -0.356 OA
HETATM   19  C   UNL     1      27.911  46.868  55.744  1.00  0.00     0.210 C 
ENDBRANCH  14  18
ENDBRANCH   7  12
BRANCH   9  20
HETATM   20  C   UNL     1      26.543  40.381  49.229  1.00  0.00    -0.028 A 
HETATM   21  C   UNL     1      27.337  40.819  48.152  1.00  0.00     0.012 A 
HETATM   22  C   UNL     1      28.238  39.950  47.533  1.00  0.00     0.043 A 
HETATM   23  C   UNL     1      28.346  38.640  47.981  1.00  0.00     0.116 A 
HETATM   24  F   UNL     1      29.211  37.808  47.389  1.00  0.00    -0.206 F 
HETATM   25  C   UNL     1      27.563  38.179  49.032  1.00  0.00     0.043 A 
HETATM   26  C   UNL     1      26.658  39.042  49.651  1.00  0.00     0.012 A 
ENDBRANCH   9  20
BRANCH  10  27
HETATM   27  C   UNL     1      23.428  41.208  48.411  1.00  0.00     0.249 C 
HETATM   28  N   UNL     1      23.684  40.196  47.543  1.00  0.00    -0.366 N 
HETATM   29  H   UNL     1      24.559  40.047  47.061  1.00  0.00     0.159 HD
HETATM   30  H   UNL     1      22.878  39.694  47.191  1.00  0.00     0.159 HD
HETATM   31  O   UNL     1      22.280  41.409  48.787  1.00  0.00    -0.268 OA
ENDBRANCH  10  27
TORSDOF 4
ENDMDL
MODEL 6
REMARK VINA RESULT:      -7.9     12.578     15.902
REMARK  4 active torsions:
REMARK  status: ('A' for Active; 'I' for Inactive)
REMARK    1  A    between atoms: C_7  and  C_8 
REMARK    2  A    between atoms: C_10  and  O_11 
REMARK    3  A    between atoms: C_17  and  C_18 
REMARK    4  A    between atoms: C_25  and  C_26 
REMARK       I    between atoms: C_26  and  N_27 
ROOT
HETATM    1  C   UNL     1      14.819  50.786  45.198  1.00  0.00     0.070 C 
HETATM    2  C   UNL     1      15.232  51.265  46.568  1.00  0.00     0.037 C 
HETATM    3  N   UNL     1      15.019  52.619  46.824  1.00  0.00    -0.192 N 
HETATM    4  C   UNL     1      15.130  53.154  48.055  1.00  0.00     0.726 A 
HETATM    5  N   UNL     1      15.661  52.401  49.058  1.00  0.00    -0.083 N 
HETATM    6  N   UNL     1      15.612  53.040  50.242  1.00  0.00    -0.135 NA
HETATM    7  C   UNL     1      15.092  54.229  49.877  1.00  0.00     0.199 A 
HETATM    8  N   UNL     1      14.779  54.320  48.529  1.00  0.00    -0.041 NA
HETATM    9  C   UNL     1      16.205  51.054  48.871  1.00  0.00     0.202 C 
HETATM   10  C   UNL     1      15.782  50.470  47.526  1.00  0.00     0.062 C 
HETATM   11  H   UNL     1      14.512  53.147  46.117  1.00  0.00     0.184 HD
ENDROOT
BRANCH   7  12
HETATM   12  C   UNL     1      14.866  55.334  50.806  1.00  0.00     0.017 A 
HETATM   13  C   UNL     1      14.130  55.125  51.985  1.00  0.00     0.052 A 
HETATM   14  C   UNL     1      13.902  56.176  52.878  1.00  0.00     0.069 A 
HETATM   15  C   UNL     1      14.417  57.442  52.590  1.00  0.00     0.037 A 
HETATM   16  C   UNL     1      15.150  57.665  51.426  1.00  0.00     0.004 A 
HETATM   17  C   UNL     1      15.372  56.613  50.537  1.00  0.00     0.015 A 
BRANCH  14  18
HETATM   18  O   UNL     1      13.202  56.099  54.050  1.00  0.00    -0.356 OA
HETATM   19  C   UNL     1      13.152  57.275  54.848  1.00  0.00     0.210 C 
ENDBRANCH  14  18
ENDBRANCH   7  12
BRANCH   9  20
HETATM   20  C   UNL     1      17.722  51.112  49.074  1.00  0.00    -0.028 A 
HETATM   21  C   UNL     1      18.316  50.326  50.080  1.00  0.00     0.012 A 
HETATM   22  C   UNL     1      19.696  50.370  50.294  1.00  0.00     0.043 A 
HETATM   23  C   UNL     1      20.486  51.201  49.511  1.00  0.00     0.116 A 
HETATM   24  F   UNL     1      21.808  51.240  49.716  1.00  0.00    -0.206 F 
HETATM   25  C   UNL     1      19.922  51.997  48.522  1.00  0.00     0.043 A 
HETATM   26  C   UNL     1      18.544  51.961  48.307  1.00  0.00     0.012 A 
ENDBRANCH   9  20
BRANCH  10  27
HETATM   27  C   UNL     1      15.824  48.992  47.355  1.00  0.00     0.249 C 
HETATM   28  N   UNL     1      16.962  48.452  46.850  1.00  0.00    -0.366 N 
HETATM   29  H   UNL     1      17.712  48.972  46.416  1.00  0.00     0.159 HD
HETATM   30  H   UNL     1      16.954  47.451  46.700  1.00  0.00     0.159 HD
HETATM   31  O   UNL     1      14.897  48.260  47.680  1.00  0.00    -0.268 OA
ENDBRANCH  10  27
TORSDOF 4
ENDMDL
MODEL 7
REMARK VINA RESULT:      -7.8     15.536     18.646
REMARK  4 active torsions:
REMARK  status: ('A' for Active; 'I' for Inactive)
REMARK    1  A    between atoms: C_7  and  C_8 
REMARK    2  A    between atoms: C_10  and  O_11 
REMARK    3  A    between atoms: C_17  and  C_18 
REMARK    4  A    between atoms: C_25  and  C_26 
REMARK       I    between atoms: C_26  and  N_27 
ROOT
HETATM    1  C   UNL     1      36.252  45.814  64.120  1.00  0.00     0.070 C 
HETATM    2  C   UNL     1      37.529  45.078  64.447  1.00  0.00     0.037 C 
HETATM    3  N   UNL     1      38.707  45.701  64.036  1.00  0.00    -0.192 N 
HETATM    4  C   UNL     1      39.925  45.289  64.435  1.00  0.00     0.726 A 
HETATM    5  N   UNL     1      40.039  44.107  65.101  1.00  0.00    -0.083 N 
HETATM    6  N   UNL     1      41.301  43.886  65.516  1.00  0.00    -0.135 NA
HETATM    7  C   UNL     1      41.936  44.959  65.004  1.00  0.00     0.199 A 
HETATM    8  N   UNL     1      41.105  45.845  64.336  1.00  0.00    -0.041 NA
HETATM    9  C   UNL     1      38.920  43.195  65.347  1.00  0.00     0.202 C 
HETATM   10  C   UNL     1      37.581  43.883  65.095  1.00  0.00     0.062 C 
HETATM   11  H   UNL     1      38.622  46.638  63.648  1.00  0.00     0.184 HD
ENDROOT
BRANCH   7  12
HETATM   12  C   UNL     1      43.374  45.188  65.135  1.00  0.00     0.017 A 
HETATM   13  C   UNL     1      43.916  46.452  64.850  1.00  0.00     0.052 A 
HETATM   14  C   UNL     1      45.290  46.680  64.966  1.00  0.00     0.069 A 
HETATM   15  C   UNL     1      46.125  45.638  65.374  1.00  0.00     0.037 A 
HETATM   16  C   UNL     1      45.603  44.378  65.660  1.00  0.00     0.004 A 
HETATM   17  C   UNL     1      44.231  44.154  65.540  1.00  0.00     0.015 A 
BRANCH  14  18
HETATM   18  O   UNL     1      45.933  47.861  64.715  1.00  0.00    -0.356 OA
HETATM   19  C   UNL     1      47.293  47.951  65.123  1.00  0.00     0.210 C 
ENDBRANCH  14  18
ENDBRANCH   7  12
BRANCH   9  20
HETATM   20  C   UNL     1      39.134  41.928  64.513  1.00  0.00    -0.028 A 
HETATM   21  C   UNL     1      38.929  41.972  63.121  1.00  0.00     0.012 A 
HETATM   22  C   UNL     1      39.106  40.828  62.340  1.00  0.00     0.043 A 
HETATM   23  C   UNL     1      39.482  39.635  62.945  1.00  0.00     0.116 A 
HETATM   24  F   UNL     1      39.654  38.540  62.195  1.00  0.00    -0.206 F 
HETATM   25  C   UNL     1      39.677  39.562  64.318  1.00  0.00     0.043 A 
HETATM   26  C   UNL     1      39.497  40.701  65.104  1.00  0.00     0.012 A 
ENDBRANCH   9  20
BRANCH  10  27
HETATM   27  C   UNL     1      36.363  43.306  65.726  1.00  0.00     0.249 C 
HETATM   28  N   UNL     1      35.620  42.447  64.982  1.00  0.00    -0.366 N 
HETATM   29  H   UNL     1      35.719  42.300  63.988  1.00  0.00     0.159 HD
HETATM   30  H   UNL     1      34.772  42.100  65.413  1.00  0.00     0.159 HD
HETATM   31  O   UNL     1      36.033  43.551  66.880  1.00  0.00    -0.268 OA
ENDBRANCH  10  27
TORSDOF 4
ENDMDL
MODEL 8
REMARK VINA RESULT:      -7.6     10.684     14.259
REMARK  4 active torsions:
REMARK  status: ('A' for Active; 'I' for Inactive)
REMARK    1  A    between atoms: C_7  and  C_8 
REMARK    2  A    between atoms: C_10  and  O_11 
REMARK    3  A    between atoms: C_17  and  C_18 
REMARK    4  A    between atoms: C_25  and  C_26 
REMARK       I    between atoms: C_26  and  N_27 
ROOT
HETATM    1  C   UNL     1      16.828  47.184  45.558  1.00  0.00     0.070 C 
HETATM    2  C   UNL     1      16.998  48.218  46.643  1.00  0.00     0.037 C 
HETATM    3  N   UNL     1      16.322  49.421  46.441  1.00  0.00    -0.192 N 
HETATM    4  C   UNL     1      16.195  50.355  47.402  1.00  0.00     0.726 A 
HETATM    5  N   UNL     1      16.912  50.223  48.553  1.00  0.00    -0.083 N 
HETATM    6  N   UNL     1      16.601  51.179  49.449  1.00  0.00    -0.135 NA
HETATM    7  C   UNL     1      15.719  51.918  48.748  1.00  0.00     0.199 A 
HETATM    8  N   UNL     1      15.446  51.425  47.481  1.00  0.00    -0.041 NA
HETATM    9  C   UNL     1      17.892  49.161  48.788  1.00  0.00     0.202 C 
HETATM   10  C   UNL     1      17.749  48.040  47.763  1.00  0.00     0.062 C 
HETATM   11  H   UNL     1      15.694  49.469  45.642  1.00  0.00     0.184 HD
ENDROOT
BRANCH   7  12
HETATM   12  C   UNL     1      15.090  53.133  49.262  1.00  0.00     0.017 A 
HETATM   13  C   UNL     1      15.179  53.449  50.628  1.00  0.00     0.052 A 
HETATM   14  C   UNL     1      14.576  54.605  51.132  1.00  0.00     0.069 A 
HETATM   15  C   UNL     1      13.885  55.452  50.262  1.00  0.00     0.037 A 
HETATM   16  C   UNL     1      13.789  55.152  48.905  1.00  0.00     0.004 A 
HETATM   17  C   UNL     1      14.389  53.996  48.407  1.00  0.00     0.015 A 
BRANCH  14  18
HETATM   18  O   UNL     1      14.590  55.017  52.437  1.00  0.00    -0.356 OA
HETATM   19  C   UNL     1      15.063  56.334  52.690  1.00  0.00     0.210 C 
ENDBRANCH  14  18
ENDBRANCH   7  12
BRANCH   9  20
HETATM   20  C   UNL     1      19.289  49.791  48.830  1.00  0.00    -0.028 A 
HETATM   21  C   UNL     1      20.012  49.952  47.634  1.00  0.00     0.012 A 
HETATM   22  C   UNL     1      21.292  50.512  47.647  1.00  0.00     0.043 A 
HETATM   23  C   UNL     1      21.856  50.907  48.853  1.00  0.00     0.116 A 
HETATM   24  F   UNL     1      23.081  51.445  48.864  1.00  0.00    -0.206 F 
HETATM   25  C   UNL     1      21.168  50.745  50.049  1.00  0.00     0.043 A 
HETATM   26  C   UNL     1      19.891  50.182  50.042  1.00  0.00     0.012 A 
ENDBRANCH   9  20
BRANCH  10  27
HETATM   27  C   UNL     1      18.303  46.700  48.101  1.00  0.00     0.249 C 
HETATM   28  N   UNL     1      17.434  45.762  48.557  1.00  0.00    -0.366 N 
HETATM   29  H   UNL     1      16.485  45.939  48.853  1.00  0.00     0.159 HD
HETATM   30  H   UNL     1      17.838  44.872  48.824  1.00  0.00     0.159 HD
HETATM   31  O   UNL     1      19.485  46.414  47.955  1.00  0.00    -0.268 OA
ENDBRANCH  10  27
TORSDOF 4
ENDMDL
MODEL 9
REMARK VINA RESULT:      -7.5     15.679     18.841
REMARK  4 active torsions:
REMARK  status: ('A' for Active; 'I' for Inactive)
REMARK    1  A    between atoms: C_7  and  C_8 
REMARK    2  A    between atoms: C_10  and  O_11 
REMARK    3  A    between atoms: C_17  and  C_18 
REMARK    4  A    between atoms: C_25  and  C_26 
REMARK       I    between atoms: C_26  and  N_27 
ROOT
HETATM    1  C   UNL     1      36.618  46.062  64.105  1.00  0.00     0.070 C 
HETATM    2  C   UNL     1      37.863  45.264  64.405  1.00  0.00     0.037 C 
HETATM    3  N   UNL     1      39.060  45.820  63.953  1.00  0.00    -0.192 N 
HETATM    4  C   UNL     1      40.266  45.350  64.323  1.00  0.00     0.726 A 
HETATM    5  N   UNL     1      40.338  44.171  65.001  1.00  0.00    -0.083 N 
HETATM    6  N   UNL     1      41.598  43.890  65.383  1.00  0.00    -0.135 NA
HETATM    7  C   UNL     1      42.273  44.922  64.839  1.00  0.00     0.199 A 
HETATM    8  N   UNL     1      41.469  45.842  64.184  1.00  0.00    -0.041 NA
HETATM    9  C   UNL     1      39.180  43.322  65.290  1.00  0.00     0.202 C 
HETATM   10  C   UNL     1      37.872  44.076  65.067  1.00  0.00     0.062 C 
HETATM   11  H   UNL     1      39.012  46.756  63.556  1.00  0.00     0.184 HD
ENDROOT
BRANCH   7  12
HETATM   12  C   UNL     1      43.723  45.077  64.927  1.00  0.00     0.017 A 
HETATM   13  C   UNL     1      44.497  44.116  65.599  1.00  0.00     0.052 A 
HETATM   14  C   UNL     1      45.884  44.258  65.695  1.00  0.00     0.069 A 
HETATM   15  C   UNL     1      46.501  45.366  65.109  1.00  0.00     0.037 A 
HETATM   16  C   UNL     1      45.748  46.328  64.438  1.00  0.00     0.004 A 
HETATM   17  C   UNL     1      44.363  46.183  64.348  1.00  0.00     0.015 A 
BRANCH  14  18
HETATM   18  O   UNL     1      46.740  43.395  66.323  1.00  0.00    -0.356 OA
HETATM   19  C   UNL     1      46.221  42.667  67.428  1.00  0.00     0.210 C 
ENDBRANCH  14  18
ENDBRANCH   7  12
BRANCH   9  20
HETATM   20  C   UNL     1      39.305  42.036  64.466  1.00  0.00    -0.028 A 
HETATM   21  C   UNL     1      39.011  42.064  63.090  1.00  0.00     0.012 A 
HETATM   22  C   UNL     1      39.106  40.903  62.319  1.00  0.00     0.043 A 
HETATM   23  C   UNL     1      39.487  39.709  62.919  1.00  0.00     0.116 A 
HETATM   24  F   UNL     1      39.579  38.598  62.179  1.00  0.00    -0.206 F 
HETATM   25  C   UNL     1      39.768  39.653  64.278  1.00  0.00     0.043 A 
HETATM   26  C   UNL     1      39.671  40.809  65.054  1.00  0.00     0.012 A 
ENDBRANCH   9  20
BRANCH  10  27
HETATM   27  C   UNL     1      36.645  43.570  65.738  1.00  0.00     0.249 C 
HETATM   28  N   UNL     1      35.813  42.782  65.011  1.00  0.00    -0.366 N 
HETATM   29  H   UNL     1      35.858  42.652  64.011  1.00  0.00     0.159 HD
HETATM   30  H   UNL     1      34.961  42.485  65.472  1.00  0.00     0.159 HD
HETATM   31  O   UNL     1      36.382  43.810  66.911  1.00  0.00    -0.268 OA
ENDBRANCH  10  27
TORSDOF 4
ENDMDL
MODEL 10
REMARK VINA RESULT:      -7.4      7.015      9.694
REMARK  4 active torsions:
REMARK  status: ('A' for Active; 'I' for Inactive)
REMARK    1  A    between atoms: C_7  and  C_8 
REMARK    2  A    between atoms: C_10  and  O_11 
REMARK    3  A    between atoms: C_17  and  C_18 
REMARK    4  A    between atoms: C_25  and  C_26 
REMARK       I    between atoms: C_26  and  N_27 
ROOT
HETATM    1  C   UNL     1      17.602  45.525  46.724  1.00  0.00     0.070 C 
HETATM    2  C   UNL     1      18.623  46.586  47.051  1.00  0.00     0.037 C 
HETATM    3  N   UNL     1      19.647  46.195  47.914  1.00  0.00    -0.192 N 
HETATM    4  C   UNL     1      20.742  46.946  48.132  1.00  0.00     0.726 A 
HETATM    5  N   UNL     1      20.776  48.222  47.657  1.00  0.00    -0.083 N 
HETATM    6  N   UNL     1      21.971  48.804  47.870  1.00  0.00    -0.135 NA
HETATM    7  C   UNL     1      22.615  47.837  48.552  1.00  0.00     0.199 A 
HETATM    8  N   UNL     1      21.878  46.675  48.721  1.00  0.00    -0.041 NA
HETATM    9  C   UNL     1      19.650  48.874  46.984  1.00  0.00     0.202 C 
HETATM   10  C   UNL     1      18.593  47.857  46.565  1.00  0.00     0.062 C 
HETATM   11  H   UNL     1      19.683  45.210  48.168  1.00  0.00     0.184 HD
ENDROOT
BRANCH   7  12
HETATM   12  C   UNL     1      23.974  47.980  49.072  1.00  0.00     0.017 A 
HETATM   13  C   UNL     1      24.419  47.156  50.119  1.00  0.00     0.052 A 
HETATM   14  C   UNL     1      25.714  47.288  50.628  1.00  0.00     0.069 A 
HETATM   15  C   UNL     1      26.570  48.248  50.081  1.00  0.00     0.037 A 
HETATM   16  C   UNL     1      26.143  49.072  49.042  1.00  0.00     0.004 A 
HETATM   17  C   UNL     1      24.849  48.938  48.539  1.00  0.00     0.015 A 
BRANCH  14  18
HETATM   18  O   UNL     1      26.259  46.551  51.643  1.00  0.00    -0.356 OA
HETATM   19  C   UNL     1      25.828  46.857  52.963  1.00  0.00     0.210 C 
ENDBRANCH  14  18
ENDBRANCH   7  12
BRANCH   9  20
HETATM   20  C   UNL     1      19.118  49.985  47.895  1.00  0.00    -0.028 A 
HETATM   21  C   UNL     1      19.428  51.327  47.605  1.00  0.00     0.012 A 
HETATM   22  C   UNL     1      18.966  52.357  48.426  1.00  0.00     0.043 A 
HETATM   23  C   UNL     1      18.198  52.052  49.543  1.00  0.00     0.116 A 
HETATM   24  F   UNL     1      17.753  53.041  50.328  1.00  0.00    -0.206 F 
HETATM   25  C   UNL     1      17.891  50.735  49.860  1.00  0.00     0.043 A 
HETATM   26  C   UNL     1      18.354  49.701  49.045  1.00  0.00     0.012 A 
ENDBRANCH   9  20
BRANCH  10  27
HETATM   27  C   UNL     1      17.640  48.234  45.486  1.00  0.00     0.249 C 
HETATM   28  N   UNL     1      16.451  48.771  45.861  1.00  0.00    -0.366 N 
HETATM   29  H   UNL     1      16.083  48.775  46.801  1.00  0.00     0.159 HD
HETATM   30  H   UNL     1      15.800  48.980  45.114  1.00  0.00     0.159 HD
HETATM   31  O   UNL     1      17.902  48.110  44.295  1.00  0.00    -0.268 OA
ENDBRANCH  10  27
TORSDOF 4
ENDMDL
