MODEL 1
REMARK VINA RESULT:      -8.9      0.000      0.000
REMARK  3 active torsions:
REMARK  status: ('A' for Active; 'I' for Inactive)
REMARK    1  A    between atoms: C_2  and  N_3 
REMARK       I    between atoms: N_3  and  C_4 
REMARK    2  A    between atoms: C_4  and  C_5 
REMARK    3  A    between atoms: C_5  and  C_6 
ROOT
HETATM    1  C   UNL     1      26.721  43.929  53.026  1.00  0.00     0.286 C 
HETATM    2  N   UNL     1      27.149  44.770  54.235  1.00  0.00    -0.056 N 
HETATM    3  H   UNL     1      26.881  45.758  54.066  1.00  0.00     0.278 HD
HETATM    4  H   UNL     1      26.618  44.463  55.061  1.00  0.00     0.278 HD
HETATM    5  C   UNL     1      28.626  44.749  54.532  1.00  0.00     0.209 C 
HETATM    6  C   UNL     1      29.117  43.290  54.583  1.00  0.00     0.115 C 
HETATM    7  N   UNL     1      28.806  42.590  53.348  1.00  0.00    -0.353 N 
HETATM    8  C   UNL     1      27.599  42.705  52.713  1.00  0.00     0.249 C 
HETATM    9  O   UNL     1      27.255  41.860  51.892  1.00  0.00    -0.271 OA
HETATM   10  C   UNL     1      28.894  45.471  55.849  1.00  0.00     0.035 C 
HETATM   11  C   UNL     1      30.386  45.430  56.181  1.00  0.00     0.002 C 
HETATM   12  C   UNL     1      30.939  44.004  56.177  1.00  0.00     0.002 C 
HETATM   13  C   UNL     1      30.617  43.258  54.881  1.00  0.00     0.027 C 
HETATM   14  H   UNL     1      29.285  41.714  53.143  1.00  0.00     0.163 HD
ENDROOT
BRANCH   1  15
HETATM   15  C   UNL     1      26.465  44.776  51.776  1.00  0.00     0.146 C 
BRANCH  15  16
HETATM   16  C   UNL     1      25.038  45.223  51.692  1.00  0.00     0.224 C 
HETATM   17  N   UNL     1      24.571  46.291  51.011  1.00  0.00    -0.327 N 
HETATM   18  H   UNL     1      23.563  46.358  51.132  1.00  0.00     0.169 HD
HETATM   19  O   UNL     1      24.236  44.618  52.423  1.00  0.00    -0.273 OA
BRANCH  17  20
HETATM   20  C   UNL     1      25.115  47.310  50.206  1.00  0.00     0.034 A 
HETATM   21  C   UNL     1      26.467  47.574  49.996  1.00  0.00     0.032 A 
HETATM   22  C   UNL     1      26.870  48.649  49.190  1.00  0.00     0.044 A 
HETATM   23  C   UNL     1      25.922  49.460  48.585  1.00  0.00     0.116 A 
HETATM   24  C   UNL     1      24.572  49.213  48.764  1.00  0.00     0.044 A 
HETATM   25  F   UNL     1      26.315  50.486  47.822  1.00  0.00    -0.206 F 
HETATM   26  C   UNL     1      24.173  48.141  49.569  1.00  0.00     0.032 A 
ENDBRANCH  17  20
ENDBRANCH  15  16
ENDBRANCH   1  15
TORSDOF 3
ENDMDL
MODEL 2
REMARK VINA RESULT:      -8.8      1.173      1.365
REMARK  3 active torsions:
REMARK  status: ('A' for Active; 'I' for Inactive)
REMARK    1  A    between atoms: C_2  and  N_3 
REMARK       I    between atoms: N_3  and  C_4 
REMARK    2  A    between atoms: C_4  and  C_5 
REMARK    3  A    between atoms: C_5  and  C_6 
ROOT
HETATM    1  C   UNL     1      26.273  42.973  51.504  1.00  0.00     0.286 C 
HETATM    2  N   UNL     1      26.509  43.577  52.893  1.00  0.00    -0.056 N 
HETATM    3  H   UNL     1      26.019  44.490  52.947  1.00  0.00     0.278 HD
HETATM    4  H   UNL     1      26.071  42.971  53.600  1.00  0.00     0.278 HD
HETATM    5  C   UNL     1      27.955  43.819  53.242  1.00  0.00     0.209 C 
HETATM    6  C   UNL     1      28.767  42.539  52.973  1.00  0.00     0.115 C 
HETATM    7  N   UNL     1      28.613  42.101  51.596  1.00  0.00    -0.353 N 
HETATM    8  C   UNL     1      27.404  42.088  50.952  1.00  0.00     0.249 C 
HETATM    9  O   UNL     1      27.255  41.408  49.942  1.00  0.00    -0.271 OA
HETATM   10  C   UNL     1      28.063  44.248  54.702  1.00  0.00     0.035 C 
HETATM   11  C   UNL     1      29.528  44.467  55.082  1.00  0.00     0.002 C 
HETATM   12  C   UNL     1      30.394  43.246  54.769  1.00  0.00     0.002 C 
HETATM   13  C   UNL     1      30.238  42.776  53.322  1.00  0.00     0.027 C 
HETATM   14  H   UNL     1      29.278  41.430  51.214  1.00  0.00     0.163 HD
ENDROOT
BRANCH   1  15
HETATM   15  C   UNL     1      25.816  44.012  50.475  1.00  0.00     0.146 C 
BRANCH  15  16
HETATM   16  C   UNL     1      24.690  44.850  50.997  1.00  0.00     0.224 C 
HETATM   17  N   UNL     1      24.505  46.170  50.780  1.00  0.00    -0.327 N 
HETATM   18  H   UNL     1      23.661  46.478  51.256  1.00  0.00     0.169 HD
HETATM   19  O   UNL     1      23.928  44.294  51.806  1.00  0.00    -0.273 OA
BRANCH  17  20
HETATM   20  C   UNL     1      25.173  47.197  50.086  1.00  0.00     0.034 A 
HETATM   21  C   UNL     1      26.551  47.349  49.947  1.00  0.00     0.032 A 
HETATM   22  C   UNL     1      27.084  48.445  49.252  1.00  0.00     0.044 A 
HETATM   23  C   UNL     1      26.240  49.390  48.688  1.00  0.00     0.116 A 
HETATM   24  C   UNL     1      24.867  49.256  48.798  1.00  0.00     0.044 A 
HETATM   25  F   UNL     1      26.757  50.434  48.032  1.00  0.00    -0.206 F 
HETATM   26  C   UNL     1      24.338  48.163  49.492  1.00  0.00     0.032 A 
ENDBRANCH  17  20
ENDBRANCH  15  16
ENDBRANCH   1  15
TORSDOF 3
ENDMDL
MODEL 3
REMARK VINA RESULT:      -8.7      3.772      7.481
REMARK  3 active torsions:
REMARK  status: ('A' for Active; 'I' for Inactive)
REMARK    1  A    between atoms: C_2  and  N_3 
REMARK       I    between atoms: N_3  and  C_4 
REMARK    2  A    between atoms: C_4  and  C_5 
REMARK    3  A    between atoms: C_5  and  C_6 
ROOT
HETATM    1  C   UNL     1      27.133  44.735  53.065  1.00  0.00     0.286 C 
HETATM    2  N   UNL     1      26.353  45.534  52.015  1.00  0.00    -0.056 N 
HETATM    3  H   UNL     1      26.046  46.431  52.438  1.00  0.00     0.278 HD
HETATM    4  H   UNL     1      26.986  45.779  51.242  1.00  0.00     0.278 HD
HETATM    5  C   UNL     1      25.124  44.846  51.478  1.00  0.00     0.209 C 
HETATM    6  C   UNL     1      25.492  43.419  51.029  1.00  0.00     0.115 C 
HETATM    7  N   UNL     1      26.097  42.668  52.115  1.00  0.00    -0.353 N 
HETATM    8  C   UNL     1      27.040  43.203  52.953  1.00  0.00     0.249 C 
HETATM    9  O   UNL     1      27.761  42.464  53.615  1.00  0.00    -0.271 OA
HETATM   10  C   UNL     1      24.545  45.659  50.324  1.00  0.00     0.035 C 
HETATM   11  C   UNL     1      23.315  44.957  49.747  1.00  0.00     0.002 C 
HETATM   12  C   UNL     1      23.610  43.510  49.348  1.00  0.00     0.002 C 
HETATM   13  C   UNL     1      24.249  42.711  50.485  1.00  0.00     0.027 C 
HETATM   14  H   UNL     1      26.156  41.654  52.042  1.00  0.00     0.163 HD
ENDROOT
BRANCH   1  15
HETATM   15  C   UNL     1      26.865  45.214  54.495  1.00  0.00     0.146 C 
BRANCH  15  16
HETATM   16  C   UNL     1      27.660  46.439  54.826  1.00  0.00     0.224 C 
HETATM   17  N   UNL     1      28.821  46.480  55.514  1.00  0.00    -0.327 N 
HETATM   18  H   UNL     1      29.137  47.444  55.593  1.00  0.00     0.169 HD
HETATM   19  O   UNL     1      27.128  47.525  54.541  1.00  0.00    -0.273 OA
BRANCH  17  20
HETATM   20  C   UNL     1      29.675  45.551  56.139  1.00  0.00     0.034 A 
HETATM   21  C   UNL     1      30.173  45.620  57.439  1.00  0.00     0.032 A 
HETATM   22  C   UNL     1      31.046  44.635  57.923  1.00  0.00     0.044 A 
HETATM   23  C   UNL     1      31.419  43.574  57.113  1.00  0.00     0.116 A 
HETATM   24  C   UNL     1      30.927  43.472  55.823  1.00  0.00     0.044 A 
HETATM   25  F   UNL     1      32.255  42.641  57.581  1.00  0.00    -0.206 F 
HETATM   26  C   UNL     1      30.058  44.455  55.341  1.00  0.00     0.032 A 
ENDBRANCH  17  20
ENDBRANCH  15  16
ENDBRANCH   1  15
TORSDOF 3
ENDMDL
MODEL 4
REMARK VINA RESULT:      -8.7      3.981      6.869
REMARK  3 active torsions:
REMARK  status: ('A' for Active; 'I' for Inactive)
REMARK    1  A    between atoms: C_2  and  N_3 
REMARK       I    between atoms: N_3  and  C_4 
REMARK    2  A    between atoms: C_4  and  C_5 
REMARK    3  A    between atoms: C_5  and  C_6 
ROOT
HETATM    1  C   UNL     1      26.354  45.427  53.662  1.00  0.00     0.286 C 
HETATM    2  N   UNL     1      26.987  44.109  54.122  1.00  0.00    -0.056 N 
HETATM    3  H   UNL     1      27.759  44.321  54.782  1.00  0.00     0.278 HD
HETATM    4  H   UNL     1      26.290  43.571  54.654  1.00  0.00     0.278 HD
HETATM    5  C   UNL     1      27.561  43.261  53.016  1.00  0.00     0.209 C 
HETATM    6  C   UNL     1      26.510  43.094  51.902  1.00  0.00     0.115 C 
HETATM    7  N   UNL     1      26.057  44.384  51.411  1.00  0.00    -0.353 N 
HETATM    8  C   UNL     1      25.765  45.433  52.241  1.00  0.00     0.249 C 
HETATM    9  O   UNL     1      25.076  46.363  51.834  1.00  0.00    -0.271 OA
HETATM   10  C   UNL     1      27.993  41.911  53.578  1.00  0.00     0.035 C 
HETATM   11  C   UNL     1      28.548  41.026  52.461  1.00  0.00     0.002 C 
HETATM   12  C   UNL     1      27.567  40.883  51.296  1.00  0.00     0.002 C 
HETATM   13  C   UNL     1      27.085  42.236  50.773  1.00  0.00     0.027 C 
HETATM   14  H   UNL     1      25.565  44.429  50.520  1.00  0.00     0.163 HD
ENDROOT
BRANCH   1  15
HETATM   15  C   UNL     1      27.264  46.637  53.901  1.00  0.00     0.146 C 
BRANCH  15  16
HETATM   16  C   UNL     1      27.160  47.137  55.309  1.00  0.00     0.224 C 
HETATM   17  N   UNL     1      27.956  46.791  56.343  1.00  0.00    -0.327 N 
HETATM   18  H   UNL     1      27.657  47.282  57.183  1.00  0.00     0.169 HD
HETATM   19  O   UNL     1      26.170  47.843  55.563  1.00  0.00    -0.273 OA
BRANCH  17  20
HETATM   20  C   UNL     1      29.059  45.939  56.547  1.00  0.00     0.034 A 
HETATM   21  C   UNL     1      29.664  45.118  55.598  1.00  0.00     0.032 A 
HETATM   22  C   UNL     1      30.742  44.292  55.949  1.00  0.00     0.044 A 
HETATM   23  C   UNL     1      31.223  44.289  57.250  1.00  0.00     0.116 A 
HETATM   24  C   UNL     1      30.650  45.105  58.210  1.00  0.00     0.044 A 
HETATM   25  F   UNL     1      32.248  43.495  57.577  1.00  0.00    -0.206 F 
HETATM   26  C   UNL     1      29.575  45.928  57.857  1.00  0.00     0.032 A 
ENDBRANCH  17  20
ENDBRANCH  15  16
ENDBRANCH   1  15
TORSDOF 3
ENDMDL
MODEL 5
REMARK VINA RESULT:      -8.6      1.689      2.814
REMARK  3 active torsions:
REMARK  status: ('A' for Active; 'I' for Inactive)
REMARK    1  A    between atoms: C_2  and  N_3 
REMARK       I    between atoms: N_3  and  C_4 
REMARK    2  A    between atoms: C_4  and  C_5 
REMARK    3  A    between atoms: C_5  and  C_6 
ROOT
HETATM    1  C   UNL     1      26.977  46.424  53.720  1.00  0.00     0.286 C 
HETATM    2  N   UNL     1      27.907  45.247  53.404  1.00  0.00    -0.056 N 
HETATM    3  H   UNL     1      27.352  44.496  52.952  1.00  0.00     0.278 HD
HETATM    4  H   UNL     1      28.605  45.548  52.711  1.00  0.00     0.278 HD
HETATM    5  C   UNL     1      28.593  44.641  54.601  1.00  0.00     0.209 C 
HETATM    6  C   UNL     1      29.260  45.757  55.428  1.00  0.00     0.115 C 
HETATM    7  N   UNL     1      28.293  46.768  55.817  1.00  0.00    -0.353 N 
HETATM    8  C   UNL     1      27.345  47.260  54.959  1.00  0.00     0.249 C 
HETATM    9  O   UNL     1      26.790  48.326  55.204  1.00  0.00    -0.271 OA
HETATM   10  C   UNL     1      29.616  43.608  54.137  1.00  0.00     0.035 C 
HETATM   11  C   UNL     1      30.344  43.007  55.339  1.00  0.00     0.002 C 
HETATM   12  C   UNL     1      30.967  44.081  56.233  1.00  0.00     0.002 C 
HETATM   13  C   UNL     1      29.957  45.151  56.648  1.00  0.00     0.027 C 
HETATM   14  H   UNL     1      28.531  47.418  56.565  1.00  0.00     0.163 HD
ENDROOT
BRANCH   1  15
HETATM   15  C   UNL     1      25.498  46.027  53.726  1.00  0.00     0.146 C 
BRANCH  15  16
HETATM   16  C   UNL     1      25.164  45.118  52.584  1.00  0.00     0.224 C 
HETATM   17  N   UNL     1      25.035  45.474  51.287  1.00  0.00    -0.327 N 
HETATM   18  H   UNL     1      24.803  44.655  50.731  1.00  0.00     0.169 HD
HETATM   19  O   UNL     1      24.860  43.953  52.887  1.00  0.00    -0.273 OA
BRANCH  17  20
HETATM   20  C   UNL     1      25.131  46.662  50.537  1.00  0.00     0.034 A 
HETATM   21  C   UNL     1      24.075  47.404  50.012  1.00  0.00     0.032 A 
HETATM   22  C   UNL     1      24.318  48.556  49.251  1.00  0.00     0.044 A 
HETATM   23  C   UNL     1      25.619  48.975  49.017  1.00  0.00     0.116 A 
HETATM   24  C   UNL     1      26.687  48.266  49.538  1.00  0.00     0.044 A 
HETATM   25  F   UNL     1      25.842  50.073  48.286  1.00  0.00    -0.206 F 
HETATM   26  C   UNL     1      26.442  47.116  50.296  1.00  0.00     0.032 A 
ENDBRANCH  17  20
ENDBRANCH  15  16
ENDBRANCH   1  15
TORSDOF 3
ENDMDL
MODEL 6
REMARK VINA RESULT:      -8.5      3.237      7.940
REMARK  3 active torsions:
REMARK  status: ('A' for Active; 'I' for Inactive)
REMARK    1  A    between atoms: C_2  and  N_3 
REMARK       I    between atoms: N_3  and  C_4 
REMARK    2  A    between atoms: C_4  and  C_5 
REMARK    3  A    between atoms: C_5  and  C_6 
ROOT
HETATM    1  C   UNL     1      26.305  47.676  50.038  1.00  0.00     0.286 C 
HETATM    2  N   UNL     1      24.774  47.644  50.121  1.00  0.00    -0.056 N 
HETATM    3  H   UNL     1      24.462  46.655  50.155  1.00  0.00     0.278 HD
HETATM    4  H   UNL     1      24.478  48.072  51.008  1.00  0.00     0.278 HD
HETATM    5  C   UNL     1      24.063  48.301  48.966  1.00  0.00     0.209 C 
HETATM    6  C   UNL     1      24.646  49.709  48.740  1.00  0.00     0.115 C 
HETATM    7  N   UNL     1      26.081  49.652  48.525  1.00  0.00    -0.353 N 
HETATM    8  C   UNL     1      26.914  48.864  49.274  1.00  0.00     0.249 C 
HETATM    9  O   UNL     1      28.119  49.095  49.298  1.00  0.00    -0.271 OA
HETATM   10  C   UNL     1      22.566  48.360  49.255  1.00  0.00     0.035 C 
HETATM   11  C   UNL     1      21.833  49.054  48.106  1.00  0.00     0.002 C 
HETATM   12  C   UNL     1      22.420  50.432  47.795  1.00  0.00     0.002 C 
HETATM   13  C   UNL     1      23.931  50.383  47.567  1.00  0.00     0.027 C 
HETATM   14  H   UNL     1      26.552  50.459  48.118  1.00  0.00     0.163 HD
ENDROOT
BRANCH   1  15
HETATM   15  C   UNL     1      26.902  46.343  49.576  1.00  0.00     0.146 C 
BRANCH  15  16
HETATM   16  C   UNL     1      26.042  45.183  49.976  1.00  0.00     0.224 C 
HETATM   17  N   UNL     1      26.224  44.382  51.047  1.00  0.00    -0.327 N 
HETATM   18  H   UNL     1      25.492  43.676  51.073  1.00  0.00     0.169 HD
HETATM   19  O   UNL     1      25.151  44.864  49.171  1.00  0.00    -0.273 OA
BRANCH  17  20
HETATM   20  C   UNL     1      27.152  44.276  52.102  1.00  0.00     0.034 A 
HETATM   21  C   UNL     1      27.082  44.912  53.339  1.00  0.00     0.032 A 
HETATM   22  C   UNL     1      28.099  44.741  54.290  1.00  0.00     0.044 A 
HETATM   23  C   UNL     1      29.187  43.929  54.009  1.00  0.00     0.116 A 
HETATM   24  C   UNL     1      29.275  43.273  52.793  1.00  0.00     0.044 A 
HETATM   25  F   UNL     1      30.154  43.775  54.919  1.00  0.00    -0.206 F 
HETATM   26  C   UNL     1      28.260  43.445  51.847  1.00  0.00     0.032 A 
ENDBRANCH  17  20
ENDBRANCH  15  16
ENDBRANCH   1  15
TORSDOF 3
ENDMDL
MODEL 7
REMARK VINA RESULT:      -8.4      2.064      3.304
REMARK  3 active torsions:
REMARK  status: ('A' for Active; 'I' for Inactive)
REMARK    1  A    between atoms: C_2  and  N_3 
REMARK       I    between atoms: N_3  and  C_4 
REMARK    2  A    between atoms: C_4  and  C_5 
REMARK    3  A    between atoms: C_5  and  C_6 
ROOT
HETATM    1  C   UNL     1      27.943  45.703  54.435  1.00  0.00     0.286 C 
HETATM    2  N   UNL     1      29.140  44.745  54.452  1.00  0.00    -0.056 N 
HETATM    3  H   UNL     1      28.870  43.866  53.971  1.00  0.00     0.278 HD
HETATM    4  H   UNL     1      29.904  45.155  53.900  1.00  0.00     0.278 HD
HETATM    5  C   UNL     1      29.635  44.373  55.826  1.00  0.00     0.209 C 
HETATM    6  C   UNL     1      29.849  45.652  56.657  1.00  0.00     0.115 C 
HETATM    7  N   UNL     1      28.632  46.444  56.720  1.00  0.00    -0.353 N 
HETATM    8  C   UNL     1      27.833  46.666  55.630  1.00  0.00     0.249 C 
HETATM    9  O   UNL     1      27.031  47.594  55.637  1.00  0.00    -0.271 OA
HETATM   10  C   UNL     1      30.925  43.569  55.704  1.00  0.00     0.035 C 
HETATM   11  C   UNL     1      31.459  43.211  57.092  1.00  0.00     0.002 C 
HETATM   12  C   UNL     1      31.624  44.443  57.983  1.00  0.00     0.002 C 
HETATM   13  C   UNL     1      30.349  45.284  58.055  1.00  0.00     0.027 C 
HETATM   14  H   UNL     1      28.552  47.171  57.430  1.00  0.00     0.163 HD
ENDROOT
BRANCH   1  15
HETATM   15  C   UNL     1      26.615  44.989  54.162  1.00  0.00     0.146 C 
BRANCH  15  16
HETATM   16  C   UNL     1      26.723  44.046  53.003  1.00  0.00     0.224 C 
HETATM   17  N   UNL     1      26.330  44.286  51.734  1.00  0.00    -0.327 N 
HETATM   18  H   UNL     1      26.521  43.470  51.158  1.00  0.00     0.169 HD
HETATM   19  O   UNL     1      27.097  42.892  53.275  1.00  0.00    -0.273 OA
BRANCH  17  20
HETATM   20  C   UNL     1      25.734  45.351  51.031  1.00  0.00     0.034 A 
HETATM   21  C   UNL     1      26.201  46.661  50.950  1.00  0.00     0.032 A 
HETATM   22  C   UNL     1      25.484  47.633  50.237  1.00  0.00     0.044 A 
HETATM   23  C   UNL     1      24.302  47.297  49.595  1.00  0.00     0.116 A 
HETATM   24  C   UNL     1      23.822  45.999  49.647  1.00  0.00     0.044 A 
HETATM   25  F   UNL     1      23.622  48.231  48.921  1.00  0.00    -0.206 F 
HETATM   26  C   UNL     1      24.538  45.032  50.359  1.00  0.00     0.032 A 
ENDBRANCH  17  20
ENDBRANCH  15  16
ENDBRANCH   1  15
TORSDOF 3
ENDMDL
MODEL 8
REMARK VINA RESULT:      -8.4      4.098      6.960
REMARK  3 active torsions:
REMARK  status: ('A' for Active; 'I' for Inactive)
REMARK    1  A    between atoms: C_2  and  N_3 
REMARK       I    between atoms: N_3  and  C_4 
REMARK    2  A    between atoms: C_4  and  C_5 
REMARK    3  A    between atoms: C_5  and  C_6 
ROOT
HETATM    1  C   UNL     1      26.342  43.513  52.585  1.00  0.00     0.286 C 
HETATM    2  N   UNL     1      27.303  42.321  52.500  1.00  0.00    -0.056 N 
HETATM    3  H   UNL     1      28.263  42.651  52.719  1.00  0.00     0.278 HD
HETATM    4  H   UNL     1      27.057  41.640  53.231  1.00  0.00     0.278 HD
HETATM    5  C   UNL     1      27.356  41.643  51.155  1.00  0.00     0.209 C 
HETATM    6  C   UNL     1      25.923  41.322  50.688  1.00  0.00     0.115 C 
HETATM    7  N   UNL     1      25.104  42.521  50.654  1.00  0.00    -0.353 N 
HETATM    8  C   UNL     1      25.122  43.462  51.649  1.00  0.00     0.249 C 
HETATM    9  O   UNL     1      24.195  44.259  51.756  1.00  0.00    -0.271 OA
HETATM   10  C   UNL     1      28.203  40.378  51.253  1.00  0.00     0.035 C 
HETATM   11  C   UNL     1      28.240  39.660  49.904  1.00  0.00     0.002 C 
HETATM   12  C   UNL     1      26.838  39.379  49.361  1.00  0.00     0.002 C 
HETATM   13  C   UNL     1      25.966  40.635  49.322  1.00  0.00     0.027 C 
HETATM   14  H   UNL     1      24.228  42.506  50.133  1.00  0.00     0.163 HD
ENDROOT
BRANCH   1  15
HETATM   15  C   UNL     1      27.061  44.862  52.502  1.00  0.00     0.146 C 
BRANCH  15  16
HETATM   16  C   UNL     1      26.852  45.678  53.741  1.00  0.00     0.224 C 
HETATM   17  N   UNL     1      27.644  45.695  54.834  1.00  0.00    -0.327 N 
HETATM   18  H   UNL     1      27.261  46.337  55.523  1.00  0.00     0.169 HD
HETATM   19  O   UNL     1      25.779  46.301  53.806  1.00  0.00    -0.273 OA
BRANCH  17  20
HETATM   20  C   UNL     1      28.830  45.058  55.249  1.00  0.00     0.034 A 
HETATM   21  C   UNL     1      29.404  43.918  54.689  1.00  0.00     0.032 A 
HETATM   22  C   UNL     1      30.576  43.369  55.228  1.00  0.00     0.044 A 
HETATM   23  C   UNL     1      31.184  43.961  56.325  1.00  0.00     0.116 A 
HETATM   24  C   UNL     1      30.644  45.103  56.892  1.00  0.00     0.044 A 
HETATM   25  F   UNL     1      32.299  43.429  56.835  1.00  0.00    -0.206 F 
HETATM   26  C   UNL     1      29.474  45.648  56.354  1.00  0.00     0.032 A 
ENDBRANCH  17  20
ENDBRANCH  15  16
ENDBRANCH   1  15
TORSDOF 3
ENDMDL
MODEL 9
REMARK VINA RESULT:      -8.4      4.365      7.222
REMARK  3 active torsions:
REMARK  status: ('A' for Active; 'I' for Inactive)
REMARK    1  A    between atoms: C_2  and  N_3 
REMARK       I    between atoms: N_3  and  C_4 
REMARK    2  A    between atoms: C_4  and  C_5 
REMARK    3  A    between atoms: C_5  and  C_6 
ROOT
HETATM    1  C   UNL     1      27.638  43.045  52.751  1.00  0.00     0.286 C 
HETATM    2  N   UNL     1      27.037  43.564  51.439  1.00  0.00    -0.056 N 
HETATM    3  H   UNL     1      26.484  44.419  51.640  1.00  0.00     0.278 HD
HETATM    4  H   UNL     1      27.800  43.853  50.812  1.00  0.00     0.278 HD
HETATM    5  C   UNL     1      26.125  42.594  50.732  1.00  0.00     0.209 C 
HETATM    6  C   UNL     1      26.832  41.232  50.598  1.00  0.00     0.115 C 
HETATM    7  N   UNL     1      27.249  40.730  51.896  1.00  0.00    -0.353 N 
HETATM    8  C   UNL     1      27.836  41.523  52.846  1.00  0.00     0.249 C 
HETATM    9  O   UNL     1      28.472  41.013  53.763  1.00  0.00    -0.271 OA
HETATM   10  C   UNL     1      25.741  43.156  49.367  1.00  0.00     0.035 C 
HETATM   11  C   UNL     1      24.842  42.168  48.622  1.00  0.00     0.002 C 
HETATM   12  C   UNL     1      25.470  40.777  48.522  1.00  0.00     0.002 C 
HETATM   13  C   UNL     1      25.913  40.239  49.884  1.00  0.00     0.027 C 
HETATM   14  H   UNL     1      27.495  39.745  51.989  1.00  0.00     0.163 HD
ENDROOT
BRANCH   1  15
HETATM   15  C   UNL     1      26.928  43.601  53.989  1.00  0.00     0.146 C 
BRANCH  15  16
HETATM   16  C   UNL     1      27.072  45.089  54.088  1.00  0.00     0.224 C 
HETATM   17  N   UNL     1      27.967  45.759  54.845  1.00  0.00    -0.327 N 
HETATM   18  H   UNL     1      27.837  46.760  54.720  1.00  0.00     0.169 HD
HETATM   19  O   UNL     1      26.200  45.759  53.511  1.00  0.00    -0.273 OA
BRANCH  17  20
HETATM   20  C   UNL     1      29.001  45.428  55.743  1.00  0.00     0.034 A 
HETATM   21  C   UNL     1      30.034  44.519  55.526  1.00  0.00     0.032 A 
HETATM   22  C   UNL     1      30.982  44.261  56.527  1.00  0.00     0.044 A 
HETATM   23  C   UNL     1      30.905  44.917  57.746  1.00  0.00     0.116 A 
HETATM   24  C   UNL     1      29.898  45.837  57.983  1.00  0.00     0.044 A 
HETATM   25  F   UNL     1      31.810  44.662  58.696  1.00  0.00    -0.206 F 
HETATM   26  C   UNL     1      28.953  46.091  56.984  1.00  0.00     0.032 A 
ENDBRANCH  17  20
ENDBRANCH  15  16
ENDBRANCH   1  15
TORSDOF 3
ENDMDL
MODEL 10
REMARK VINA RESULT:      -8.4     16.376     18.321
REMARK  3 active torsions:
REMARK  status: ('A' for Active; 'I' for Inactive)
REMARK    1  A    between atoms: C_2  and  N_3 
REMARK       I    between atoms: N_3  and  C_4 
REMARK    2  A    between atoms: C_4  and  C_5 
REMARK    3  A    between atoms: C_5  and  C_6 
ROOT
HETATM    1  C   UNL     1      39.716  45.269  64.438  1.00  0.00     0.286 C 
HETATM    2  N   UNL     1      38.560  45.907  65.217  1.00  0.00    -0.056 N 
HETATM    3  H   UNL     1      37.670  45.472  64.909  1.00  0.00     0.278 HD
HETATM    4  H   UNL     1      38.664  45.679  66.216  1.00  0.00     0.278 HD
HETATM    5  C   UNL     1      38.420  47.397  65.038  1.00  0.00     0.209 C 
HETATM    6  C   UNL     1      39.783  48.072  65.280  1.00  0.00     0.115 C 
HETATM    7  N   UNL     1      40.804  47.518  64.407  1.00  0.00    -0.353 N 
HETATM    8  C   UNL     1      40.930  46.175  64.169  1.00  0.00     0.249 C 
HETATM    9  O   UNL     1      41.981  45.728  63.721  1.00  0.00    -0.271 OA
HETATM   10  C   UNL     1      37.359  47.930  65.995  1.00  0.00     0.035 C 
HETATM   11  C   UNL     1      37.228  49.446  65.848  1.00  0.00     0.002 C 
HETATM   12  C   UNL     1      38.570  50.161  66.012  1.00  0.00     0.002 C 
HETATM   13  C   UNL     1      39.652  49.585  65.097  1.00  0.00     0.027 C 
HETATM   14  H   UNL     1      41.675  48.031  64.278  1.00  0.00     0.163 HD
ENDROOT
BRANCH   1  15
HETATM   15  C   UNL     1      39.250  44.556  63.165  1.00  0.00     0.146 C 
BRANCH  15  16
HETATM   16  C   UNL     1      37.913  43.908  63.350  1.00  0.00     0.224 C 
HETATM   17  N   UNL     1      37.676  42.588  63.504  1.00  0.00    -0.327 N 
HETATM   18  H   UNL     1      36.676  42.431  63.608  1.00  0.00     0.169 HD
HETATM   19  O   UNL     1      36.926  44.653  63.227  1.00  0.00    -0.273 OA
BRANCH  17  20
HETATM   20  C   UNL     1      38.443  41.407  63.547  1.00  0.00     0.034 A 
HETATM   21  C   UNL     1      39.032  40.756  62.465  1.00  0.00     0.032 A 
HETATM   22  C   UNL     1      39.745  39.563  62.649  1.00  0.00     0.044 A 
HETATM   23  C   UNL     1      39.880  39.020  63.918  1.00  0.00     0.116 A 
HETATM   24  C   UNL     1      39.319  39.654  65.013  1.00  0.00     0.044 A 
HETATM   25  F   UNL     1      40.558  37.880  64.084  1.00  0.00    -0.206 F 
HETATM   26  C   UNL     1      38.607  40.843  64.827  1.00  0.00     0.032 A 
ENDBRANCH  17  20
ENDBRANCH  15  16
ENDBRANCH   1  15
TORSDOF 3
ENDMDL
