MODEL 1
REMARK VINA RESULT:      -9.1      0.000      0.000
REMARK  6 active torsions:
REMARK  status: ('A' for Active; 'I' for Inactive)
REMARK    1  A    between atoms: C_4  and  C_5 
REMARK    2  A    between atoms: C_6  and  N_7 
REMARK    3  A    between atoms: C_9  and  C_10 
REMARK       I    between atoms: C_10  and  N_11 
REMARK    4  A    between atoms: N_11  and  C_12 
REMARK    5  A    between atoms: C_12  and  C_13 
REMARK    6  A    between atoms: C_13  and  N_14 
ROOT
HETATM    1  C   UNL     1      28.310  44.511  54.549  1.00  0.00     0.019 A 
HETATM    2  C   UNL     1      27.341  45.419  54.235  1.00  0.00     0.111 A 
HETATM    3  C   UNL     1      27.255  46.694  55.094  1.00  0.00     0.273 A 
HETATM    4  O   UNL     1      26.425  47.580  54.896  1.00  0.00    -0.266 OA
HETATM    5  N   UNL     1      28.143  46.853  56.113  1.00  0.00    -0.321 N 
HETATM    6  C   UNL     1      29.132  45.937  56.436  1.00  0.00     0.046 A 
HETATM    7  C   UNL     1      29.251  44.768  55.682  1.00  0.00     0.006 A 
HETATM    8  C   UNL     1      29.992  46.214  57.503  1.00  0.00     0.032 A 
HETATM    9  C   UNL     1      31.000  45.311  57.831  1.00  0.00     0.026 A 
HETATM   10  C   UNL     1      31.138  44.141  57.090  1.00  0.00     0.035 A 
HETATM   11 CL   UNL     1      32.386  43.025  57.483  1.00  0.00    -0.084 Cl
HETATM   12  C   UNL     1      30.274  43.867  56.027  1.00  0.00     0.038 A 
HETATM   13  H   UNL     1      28.033  47.702  56.654  1.00  0.00     0.169 HD
ENDROOT
BRANCH   2  14
HETATM   14  N   UNL     1      26.386  45.269  53.171  1.00  0.00    -0.375 N 
HETATM   15  C   UNL     1      26.363  46.259  52.055  1.00  0.00     0.137 C 
HETATM   16  C   UNL     1      25.651  45.699  50.820  1.00  0.00     0.096 C 
HETATM   17  C   UNL     1      24.320  45.004  51.135  1.00  0.00     0.017 C 
HETATM   18  C   UNL     1      24.340  44.169  52.414  1.00  0.00     0.021 C 
HETATM   19  C   UNL     1      24.993  44.932  53.560  1.00  0.00     0.123 C 
BRANCH  16  20
HETATM   20  C   UNL     1      26.583  44.831  49.994  1.00  0.00     0.223 C 
HETATM   21  N   UNL     1      26.241  43.514  49.854  1.00  0.00    -0.359 N 
HETATM   22  H   UNL     1      25.385  43.231  50.341  1.00  0.00     0.162 HD
HETATM   23  O   UNL     1      27.626  45.275  49.510  1.00  0.00    -0.273 OA
BRANCH  21  24
HETATM   24  C   UNL     1      26.804  42.564  48.899  1.00  0.00     0.150 C 
BRANCH  24  25
HETATM   25  C   UNL     1      26.019  41.276  48.558  1.00  0.00     0.254 C 
BRANCH  25  26
HETATM   26  N   UNL     1      26.872  40.033  48.564  1.00  0.00    -0.066 N 
HETATM   27  H   UNL     1      26.584  39.541  47.695  1.00  0.00     0.280 HD
HETATM   28  C   UNL     1      28.366  40.265  48.517  1.00  0.00     0.261 C 
HETATM   29  C   UNL     1      29.100  38.920  48.471  1.00  0.00     0.195 C 
HETATM   30  O   UNL     1      28.734  38.094  49.582  1.00  0.00    -0.388 OA
HETATM   31  C   UNL     1      27.331  37.801  49.576  1.00  0.00     0.195 C 
HETATM   32  C   UNL     1      26.505  39.087  49.695  1.00  0.00     0.261 C 
ENDBRANCH  25  26
ENDBRANCH  24  25
ENDBRANCH  21  24
ENDBRANCH  16  20
ENDBRANCH   2  14
BRANCH   1  33
HETATM   33  C   UNL     1      28.445  43.280  53.721  1.00  0.00    -0.023 A 
HETATM   34  C   UNL     1      27.869  42.078  54.146  1.00  0.00     0.012 A 
HETATM   35  C   UNL     1      27.938  40.938  53.340  1.00  0.00     0.001 A 
HETATM   36  C   UNL     1      28.575  40.998  52.101  1.00  0.00     0.000 A 
HETATM   37  C   UNL     1      29.127  42.198  51.658  1.00  0.00     0.001 A 
HETATM   38  C   UNL     1      29.051  43.338  52.458  1.00  0.00     0.012 A 
ENDBRANCH   1  33
TORSDOF 6
ENDMDL
MODEL 2
REMARK VINA RESULT:      -8.9      3.557      6.391
REMARK  6 active torsions:
REMARK  status: ('A' for Active; 'I' for Inactive)
REMARK    1  A    between atoms: C_4  and  C_5 
REMARK    2  A    between atoms: C_6  and  N_7 
REMARK    3  A    between atoms: C_9  and  C_10 
REMARK       I    between atoms: C_10  and  N_11 
REMARK    4  A    between atoms: N_11  and  C_12 
REMARK    5  A    between atoms: C_12  and  C_13 
REMARK    6  A    between atoms: C_13  and  N_14 
ROOT
HETATM    1  C   UNL     1      27.488  43.011  51.480  1.00  0.00     0.019 A 
HETATM    2  C   UNL     1      27.658  41.810  50.851  1.00  0.00     0.111 A 
HETATM    3  C   UNL     1      28.665  40.821  51.466  1.00  0.00     0.273 A 
HETATM    4  O   UNL     1      28.891  39.712  50.986  1.00  0.00    -0.266 OA
HETATM    5  N   UNL     1      29.328  41.187  52.596  1.00  0.00    -0.321 N 
HETATM    6  C   UNL     1      29.159  42.402  53.242  1.00  0.00     0.046 A 
HETATM    7  C   UNL     1      28.253  43.329  52.724  1.00  0.00     0.006 A 
HETATM    8  C   UNL     1      29.893  42.662  54.402  1.00  0.00     0.032 A 
HETATM    9  C   UNL     1      29.724  43.872  55.071  1.00  0.00     0.026 A 
HETATM   10  C   UNL     1      28.824  44.808  54.573  1.00  0.00     0.035 A 
HETATM   11 CL   UNL     1      28.602  46.301  55.398  1.00  0.00    -0.084 Cl
HETATM   12  C   UNL     1      28.094  44.545  53.411  1.00  0.00     0.038 A 
HETATM   13  H   UNL     1      29.988  40.505  52.949  1.00  0.00     0.169 HD
ENDROOT
BRANCH   2  14
HETATM   14  N   UNL     1      26.976  41.406  49.652  1.00  0.00    -0.375 N 
HETATM   15  C   UNL     1      25.753  40.558  49.748  1.00  0.00     0.137 C 
HETATM   16  C   UNL     1      24.916  40.628  48.468  1.00  0.00     0.096 C 
HETATM   17  C   UNL     1      25.740  40.482  47.182  1.00  0.00     0.017 C 
HETATM   18  C   UNL     1      27.088  41.199  47.220  1.00  0.00     0.021 C 
HETATM   19  C   UNL     1      27.821  40.926  48.528  1.00  0.00     0.123 C 
BRANCH  16  20
HETATM   20  C   UNL     1      24.029  41.860  48.457  1.00  0.00     0.223 C 
HETATM   21  N   UNL     1      24.391  42.877  47.617  1.00  0.00    -0.359 N 
HETATM   22  H   UNL     1      25.248  42.715  47.080  1.00  0.00     0.162 HD
HETATM   23  O   UNL     1      23.053  41.964  49.203  1.00  0.00    -0.273 OA
BRANCH  21  24
HETATM   24  C   UNL     1      23.567  44.017  47.222  1.00  0.00     0.150 C 
BRANCH  24  25
HETATM   25  C   UNL     1      22.420  43.808  46.207  1.00  0.00     0.254 C 
BRANCH  25  26
HETATM   26  N   UNL     1      21.110  44.412  46.648  1.00  0.00    -0.066 N 
HETATM   27  H   UNL     1      21.107  45.341  46.183  1.00  0.00     0.280 HD
HETATM   28  C   UNL     1      19.869  43.655  46.229  1.00  0.00     0.261 C 
HETATM   29  C   UNL     1      18.619  44.411  46.693  1.00  0.00     0.195 C 
HETATM   30  O   UNL     1      18.644  44.630  48.109  1.00  0.00    -0.388 OA
HETATM   31  C   UNL     1      19.774  45.422  48.495  1.00  0.00     0.195 C 
HETATM   32  C   UNL     1      21.085  44.713  48.137  1.00  0.00     0.261 C 
ENDBRANCH  25  26
ENDBRANCH  24  25
ENDBRANCH  21  24
ENDBRANCH  16  20
ENDBRANCH   2  14
BRANCH   1  33
HETATM   33  C   UNL     1      26.499  43.980  50.933  1.00  0.00    -0.023 A 
HETATM   34  C   UNL     1      25.170  43.956  51.372  1.00  0.00     0.012 A 
HETATM   35  C   UNL     1      24.256  44.905  50.909  1.00  0.00     0.001 A 
HETATM   36  C   UNL     1      24.668  45.891  50.012  1.00  0.00     0.000 A 
HETATM   37  C   UNL     1      25.995  45.939  49.590  1.00  0.00     0.001 A 
HETATM   38  C   UNL     1      26.911  44.996  50.058  1.00  0.00     0.012 A 
ENDBRANCH   1  33
TORSDOF 6
ENDMDL
MODEL 3
REMARK VINA RESULT:      -8.9      3.139      6.527
REMARK  6 active torsions:
REMARK  status: ('A' for Active; 'I' for Inactive)
REMARK    1  A    between atoms: C_4  and  C_5 
REMARK    2  A    between atoms: C_6  and  N_7 
REMARK    3  A    between atoms: C_9  and  C_10 
REMARK       I    between atoms: C_10  and  N_11 
REMARK    4  A    between atoms: N_11  and  C_12 
REMARK    5  A    between atoms: C_12  and  C_13 
REMARK    6  A    between atoms: C_13  and  N_14 
ROOT
HETATM    1  C   UNL     1      27.668  43.182  51.810  1.00  0.00     0.019 A 
HETATM    2  C   UNL     1      27.717  41.980  51.162  1.00  0.00     0.111 A 
HETATM    3  C   UNL     1      28.664  40.906  51.727  1.00  0.00     0.273 A 
HETATM    4  O   UNL     1      28.782  39.789  51.226  1.00  0.00    -0.266 OA
HETATM    5  N   UNL     1      29.397  41.202  52.835  1.00  0.00    -0.321 N 
HETATM    6  C   UNL     1      29.349  42.417  53.500  1.00  0.00     0.046 A 
HETATM    7  C   UNL     1      28.502  43.421  53.027  1.00  0.00     0.006 A 
HETATM    8  C   UNL     1      30.146  42.602  54.634  1.00  0.00     0.032 A 
HETATM    9  C   UNL     1      30.099  43.812  55.322  1.00  0.00     0.026 A 
HETATM   10  C   UNL     1      29.259  44.824  54.869  1.00  0.00     0.035 A 
HETATM   11 CL   UNL     1      29.188  46.318  55.718  1.00  0.00    -0.084 Cl
HETATM   12  C   UNL     1      28.468  44.636  53.733  1.00  0.00     0.038 A 
HETATM   13  H   UNL     1      30.012  40.464  53.155  1.00  0.00     0.169 HD
ENDROOT
BRANCH   2  14
HETATM   14  N   UNL     1      26.961  41.649  49.985  1.00  0.00    -0.375 N 
HETATM   15  C   UNL     1      25.613  41.025  50.126  1.00  0.00     0.137 C 
HETATM   16  C   UNL     1      24.783  41.183  48.849  1.00  0.00     0.096 C 
HETATM   17  C   UNL     1      25.553  40.847  47.566  1.00  0.00     0.017 C 
HETATM   18  C   UNL     1      27.003  41.327  47.564  1.00  0.00     0.021 C 
HETATM   19  C   UNL     1      27.697  40.988  48.878  1.00  0.00     0.123 C 
BRANCH  16  20
HETATM   20  C   UNL     1      24.117  42.547  48.791  1.00  0.00     0.223 C 
HETATM   21  N   UNL     1      22.879  42.656  49.363  1.00  0.00    -0.359 N 
HETATM   22  H   UNL     1      22.507  41.791  49.768  1.00  0.00     0.162 HD
HETATM   23  O   UNL     1      24.641  43.502  48.214  1.00  0.00    -0.273 OA
BRANCH  21  24
HETATM   24  C   UNL     1      22.173  43.894  49.682  1.00  0.00     0.150 C 
BRANCH  24  25
HETATM   25  C   UNL     1      21.521  44.710  48.543  1.00  0.00     0.254 C 
BRANCH  25  26
HETATM   26  N   UNL     1      21.236  46.144  48.917  1.00  0.00    -0.066 N 
HETATM   27  H   UNL     1      21.366  46.151  49.948  1.00  0.00     0.280 HD
HETATM   28  C   UNL     1      22.157  47.174  48.302  1.00  0.00     0.261 C 
HETATM   29  C   UNL     1      21.787  48.571  48.814  1.00  0.00     0.195 C 
HETATM   30  O   UNL     1      20.413  48.872  48.544  1.00  0.00    -0.388 OA
HETATM   31  C   UNL     1      19.537  47.946  49.199  1.00  0.00     0.195 C 
HETATM   32  C   UNL     1      19.780  46.518  48.698  1.00  0.00     0.261 C 
ENDBRANCH  25  26
ENDBRANCH  24  25
ENDBRANCH  21  24
ENDBRANCH  16  20
ENDBRANCH   2  14
BRANCH   1  33
HETATM   33  C   UNL     1      26.740  44.235  51.312  1.00  0.00    -0.023 A 
HETATM   34  C   UNL     1      25.503  44.436  51.934  1.00  0.00     0.012 A 
HETATM   35  C   UNL     1      24.658  45.465  51.510  1.00  0.00     0.001 A 
HETATM   36  C   UNL     1      25.052  46.305  50.469  1.00  0.00     0.000 A 
HETATM   37  C   UNL     1      26.293  46.131  49.863  1.00  0.00     0.001 A 
HETATM   38  C   UNL     1      27.141  45.108  50.290  1.00  0.00     0.012 A 
ENDBRANCH   1  33
TORSDOF 6
ENDMDL
MODEL 4
REMARK VINA RESULT:      -8.8     13.206     15.621
REMARK  6 active torsions:
REMARK  status: ('A' for Active; 'I' for Inactive)
REMARK    1  A    between atoms: C_4  and  C_5 
REMARK    2  A    between atoms: C_6  and  N_7 
REMARK    3  A    between atoms: C_9  and  C_10 
REMARK       I    between atoms: C_10  and  N_11 
REMARK    4  A    between atoms: N_11  and  C_12 
REMARK    5  A    between atoms: C_12  and  C_13 
REMARK    6  A    between atoms: C_13  and  N_14 
ROOT
HETATM    1  C   UNL     1      32.225  50.667  40.031  1.00  0.00     0.019 A 
HETATM    2  C   UNL     1      32.091  49.404  40.534  1.00  0.00     0.111 A 
HETATM    3  C   UNL     1      33.356  48.720  41.083  1.00  0.00     0.273 A 
HETATM    4  O   UNL     1      33.349  47.588  41.563  1.00  0.00    -0.266 OA
HETATM    5  N   UNL     1      34.534  49.400  41.044  1.00  0.00    -0.321 N 
HETATM    6  C   UNL     1      34.676  50.683  40.538  1.00  0.00     0.046 A 
HETATM    7  C   UNL     1      33.557  51.346  40.033  1.00  0.00     0.006 A 
HETATM    8  C   UNL     1      35.939  51.284  40.558  1.00  0.00     0.032 A 
HETATM    9  C   UNL     1      36.097  52.578  40.067  1.00  0.00     0.026 A 
HETATM   10  C   UNL     1      34.992  53.257  39.562  1.00  0.00     0.035 A 
HETATM   11 CL   UNL     1      35.176  54.858  38.963  1.00  0.00    -0.084 Cl
HETATM   12  C   UNL     1      33.734  52.651  39.542  1.00  0.00     0.038 A 
HETATM   13  H   UNL     1      35.335  48.898  41.405  1.00  0.00     0.169 HD
ENDROOT
BRANCH   2  14
HETATM   14  N   UNL     1      30.861  48.662  40.577  1.00  0.00    -0.375 N 
HETATM   15  C   UNL     1      30.074  48.611  41.843  1.00  0.00     0.137 C 
HETATM   16  C   UNL     1      28.619  48.208  41.586  1.00  0.00     0.096 C 
HETATM   17  C   UNL     1      28.467  47.005  40.647  1.00  0.00     0.017 C 
HETATM   18  C   UNL     1      29.450  46.999  39.477  1.00  0.00     0.021 C 
HETATM   19  C   UNL     1      30.864  47.318  39.944  1.00  0.00     0.123 C 
BRANCH  16  20
HETATM   20  C   UNL     1      27.787  49.400  41.148  1.00  0.00     0.223 C 
HETATM   21  N   UNL     1      27.278  49.368  39.880  1.00  0.00    -0.359 N 
HETATM   22  H   UNL     1      27.524  48.538  39.331  1.00  0.00     0.162 HD
HETATM   23  O   UNL     1      27.614  50.376  41.882  1.00  0.00    -0.273 OA
BRANCH  21  24
HETATM   24  C   UNL     1      26.237  50.236  39.335  1.00  0.00     0.150 C 
BRANCH  24  25
HETATM   25  C   UNL     1      25.013  49.605  38.633  1.00  0.00     0.254 C 
BRANCH  25  26
HETATM   26  N   UNL     1      23.822  49.429  39.542  1.00  0.00    -0.066 N 
HETATM   27  H   UNL     1      24.213  49.618  40.486  1.00  0.00     0.280 HD
HETATM   28  C   UNL     1      22.669  50.377  39.296  1.00  0.00     0.261 C 
HETATM   29  C   UNL     1      21.561  50.122  40.325  1.00  0.00     0.195 C 
HETATM   30  O   UNL     1      21.131  48.756  40.293  1.00  0.00    -0.388 OA
HETATM   31  C   UNL     1      22.205  47.863  40.613  1.00  0.00     0.195 C 
HETATM   32  C   UNL     1      23.341  47.989  39.592  1.00  0.00     0.261 C 
ENDBRANCH  25  26
ENDBRANCH  24  25
ENDBRANCH  21  24
ENDBRANCH  16  20
ENDBRANCH   2  14
BRANCH   1  33
HETATM   33  C   UNL     1      31.018  51.374  39.520  1.00  0.00    -0.023 A 
HETATM   34  C   UNL     1      30.267  52.192  40.371  1.00  0.00     0.012 A 
HETATM   35  C   UNL     1      29.172  52.907  39.879  1.00  0.00     0.001 A 
HETATM   36  C   UNL     1      28.829  52.815  38.530  1.00  0.00     0.000 A 
HETATM   37  C   UNL     1      29.587  52.025  37.670  1.00  0.00     0.001 A 
HETATM   38  C   UNL     1      30.686  51.317  38.159  1.00  0.00     0.012 A 
ENDBRANCH   1  33
TORSDOF 6
ENDMDL
MODEL 5
REMARK VINA RESULT:      -8.6     14.381     17.744
REMARK  6 active torsions:
REMARK  status: ('A' for Active; 'I' for Inactive)
REMARK    1  A    between atoms: C_4  and  C_5 
REMARK    2  A    between atoms: C_6  and  N_7 
REMARK    3  A    between atoms: C_9  and  C_10 
REMARK       I    between atoms: C_10  and  N_11 
REMARK    4  A    between atoms: N_11  and  C_12 
REMARK    5  A    between atoms: C_12  and  C_13 
REMARK    6  A    between atoms: C_13  and  N_14 
ROOT
HETATM    1  C   UNL     1      30.114  49.376  40.108  1.00  0.00     0.019 A 
HETATM    2  C   UNL     1      31.291  48.979  40.677  1.00  0.00     0.111 A 
HETATM    3  C   UNL     1      31.701  47.505  40.508  1.00  0.00     0.273 A 
HETATM    4  O   UNL     1      32.741  47.043  40.973  1.00  0.00    -0.266 OA
HETATM    5  N   UNL     1      30.880  46.677  39.805  1.00  0.00    -0.321 N 
HETATM    6  C   UNL     1      29.687  47.074  39.223  1.00  0.00     0.046 A 
HETATM    7  C   UNL     1      29.275  48.402  39.345  1.00  0.00     0.006 A 
HETATM    8  C   UNL     1      28.930  46.132  38.518  1.00  0.00     0.032 A 
HETATM    9  C   UNL     1      27.735  46.517  37.914  1.00  0.00     0.026 A 
HETATM   10  C   UNL     1      27.310  47.837  38.022  1.00  0.00     0.035 A 
HETATM   11 CL   UNL     1      25.840  48.323  37.272  1.00  0.00    -0.084 Cl
HETATM   12  C   UNL     1      28.067  48.773  38.730  1.00  0.00     0.038 A 
HETATM   13  H   UNL     1      31.192  45.716  39.738  1.00  0.00     0.169 HD
ENDROOT
BRANCH   2  14
HETATM   14  N   UNL     1      32.169  49.832  41.431  1.00  0.00    -0.375 N 
HETATM   15  C   UNL     1      33.615  49.904  41.074  1.00  0.00     0.137 C 
HETATM   16  C   UNL     1      34.272  51.168  41.634  1.00  0.00     0.096 C 
HETATM   17  C   UNL     1      33.924  51.447  43.102  1.00  0.00     0.017 C 
HETATM   18  C   UNL     1      32.470  51.151  43.465  1.00  0.00     0.021 C 
HETATM   19  C   UNL     1      32.027  49.803  42.909  1.00  0.00     0.123 C 
BRANCH  16  20
HETATM   20  C   UNL     1      34.019  52.365  40.735  1.00  0.00     0.223 C 
HETATM   21  N   UNL     1      35.116  52.983  40.203  1.00  0.00    -0.359 N 
HETATM   22  H   UNL     1      36.019  52.585  40.479  1.00  0.00     0.162 HD
HETATM   23  O   UNL     1      32.881  52.793  40.529  1.00  0.00    -0.273 OA
BRANCH  21  24
HETATM   24  C   UNL     1      35.127  53.952  39.110  1.00  0.00     0.150 C 
BRANCH  24  25
HETATM   25  C   UNL     1      36.317  54.929  38.974  1.00  0.00     0.254 C 
BRANCH  25  26
HETATM   26  N   UNL     1      35.938  56.259  38.371  1.00  0.00    -0.066 N 
HETATM   27  H   UNL     1      35.482  55.993  37.476  1.00  0.00     0.280 HD
HETATM   28  C   UNL     1      34.970  57.091  39.183  1.00  0.00     0.261 C 
HETATM   29  C   UNL     1      34.633  58.380  38.425  1.00  0.00     0.195 C 
HETATM   30  O   UNL     1      35.819  59.118  38.109  1.00  0.00    -0.388 OA
HETATM   31  C   UNL     1      36.697  58.361  37.266  1.00  0.00     0.195 C 
HETATM   32  C   UNL     1      37.154  57.077  37.969  1.00  0.00     0.261 C 
ENDBRANCH  25  26
ENDBRANCH  24  25
ENDBRANCH  21  24
ENDBRANCH  16  20
ENDBRANCH   2  14
BRANCH   1  33
HETATM   33  C   UNL     1      29.700  50.802  40.222  1.00  0.00    -0.023 A 
HETATM   34  C   UNL     1      29.975  51.702  39.187  1.00  0.00     0.012 A 
HETATM   35  C   UNL     1      29.531  53.024  39.263  1.00  0.00     0.001 A 
HETATM   36  C   UNL     1      28.800  53.451  40.371  1.00  0.00     0.000 A 
HETATM   37  C   UNL     1      28.497  52.555  41.394  1.00  0.00     0.001 A 
HETATM   38  C   UNL     1      28.933  51.232  41.315  1.00  0.00     0.012 A 
ENDBRANCH   1  33
TORSDOF 6
ENDMDL
MODEL 6
REMARK VINA RESULT:      -7.9     12.568     15.393
REMARK  6 active torsions:
REMARK  status: ('A' for Active; 'I' for Inactive)
REMARK    1  A    between atoms: C_4  and  C_5 
REMARK    2  A    between atoms: C_6  and  N_7 
REMARK    3  A    between atoms: C_9  and  C_10 
REMARK       I    between atoms: C_10  and  N_11 
REMARK    4  A    between atoms: N_11  and  C_12 
REMARK    5  A    between atoms: C_12  and  C_13 
REMARK    6  A    between atoms: C_13  and  N_14 
ROOT
HETATM    1  C   UNL     1      27.830  48.207  40.241  1.00  0.00     0.019 A 
HETATM    2  C   UNL     1      27.234  49.334  39.750  1.00  0.00     0.111 A 
HETATM    3  C   UNL     1      25.775  49.216  39.273  1.00  0.00     0.273 A 
HETATM    4  O   UNL     1      25.141  50.167  38.820  1.00  0.00    -0.266 OA
HETATM    5  N   UNL     1      25.155  48.008  39.366  1.00  0.00    -0.321 N 
HETATM    6  C   UNL     1      25.753  46.861  39.866  1.00  0.00     0.046 A 
HETATM    7  C   UNL     1      27.073  46.920  40.314  1.00  0.00     0.006 A 
HETATM    8  C   UNL     1      25.011  45.677  39.916  1.00  0.00     0.032 A 
HETATM    9  C   UNL     1      25.592  44.519  40.429  1.00  0.00     0.026 A 
HETATM   10  C   UNL     1      26.906  44.558  40.885  1.00  0.00     0.035 A 
HETATM   11 CL   UNL     1      27.627  43.135  41.528  1.00  0.00    -0.084 Cl
HETATM   12  C   UNL     1      27.643  45.743  40.829  1.00  0.00     0.038 A 
HETATM   13  H   UNL     1      24.202  47.984  39.025  1.00  0.00     0.169 HD
ENDROOT
BRANCH   2  14
HETATM   14  N   UNL     1      27.871  50.617  39.634  1.00  0.00    -0.375 N 
HETATM   15  C   UNL     1      27.619  51.662  40.668  1.00  0.00     0.137 C 
HETATM   16  C   UNL     1      28.705  52.741  40.656  1.00  0.00     0.096 C 
HETATM   17  C   UNL     1      29.056  53.249  39.252  1.00  0.00     0.017 C 
HETATM   18  C   UNL     1      29.091  52.158  38.184  1.00  0.00     0.021 C 
HETATM   19  C   UNL     1      27.875  51.245  38.289  1.00  0.00     0.123 C 
BRANCH  16  20
HETATM   20  C   UNL     1      29.928  52.299  41.440  1.00  0.00     0.223 C 
HETATM   21  N   UNL     1      31.040  51.965  40.718  1.00  0.00    -0.359 N 
HETATM   22  H   UNL     1      30.936  52.030  39.701  1.00  0.00     0.162 HD
HETATM   23  O   UNL     1      29.910  52.197  42.669  1.00  0.00    -0.273 OA
BRANCH  21  24
HETATM   24  C   UNL     1      32.395  51.789  41.234  1.00  0.00     0.150 C 
BRANCH  24  25
HETATM   25  C   UNL     1      33.597  51.923  40.272  1.00  0.00     0.254 C 
BRANCH  25  26
HETATM   26  N   UNL     1      34.916  52.112  40.979  1.00  0.00    -0.066 N 
HETATM   27  H   UNL     1      34.892  53.111  41.264  1.00  0.00     0.280 HD
HETATM   28  C   UNL     1      35.124  51.259  42.210  1.00  0.00     0.261 C 
HETATM   29  C   UNL     1      36.474  51.598  42.853  1.00  0.00     0.195 C 
HETATM   30  O   UNL     1      37.546  51.435  41.918  1.00  0.00    -0.388 OA
HETATM   31  C   UNL     1      37.394  52.308  40.792  1.00  0.00     0.195 C 
HETATM   32  C   UNL     1      36.099  51.997  40.032  1.00  0.00     0.261 C 
ENDBRANCH  25  26
ENDBRANCH  24  25
ENDBRANCH  21  24
ENDBRANCH  16  20
ENDBRANCH   2  14
BRANCH   1  33
HETATM   33  C   UNL     1      29.231  48.288  40.742  1.00  0.00    -0.023 A 
HETATM   34  C   UNL     1      29.485  48.651  42.069  1.00  0.00     0.012 A 
HETATM   35  C   UNL     1      30.793  48.666  42.559  1.00  0.00     0.001 A 
HETATM   36  C   UNL     1      31.853  48.308  41.726  1.00  0.00     0.000 A 
HETATM   37  C   UNL     1      31.607  47.919  40.412  1.00  0.00     0.001 A 
HETATM   38  C   UNL     1      30.300  47.897  39.924  1.00  0.00     0.012 A 
ENDBRANCH   1  33
TORSDOF 6
ENDMDL
MODEL 7
REMARK VINA RESULT:      -7.9      9.483     13.570
REMARK  6 active torsions:
REMARK  status: ('A' for Active; 'I' for Inactive)
REMARK    1  A    between atoms: C_4  and  C_5 
REMARK    2  A    between atoms: C_6  and  N_7 
REMARK    3  A    between atoms: C_9  and  C_10 
REMARK       I    between atoms: C_10  and  N_11 
REMARK    4  A    between atoms: N_11  and  C_12 
REMARK    5  A    between atoms: C_12  and  C_13 
REMARK    6  A    between atoms: C_13  and  N_14 
ROOT
HETATM    1  C   UNL     1      20.497  47.536  48.360  1.00  0.00     0.019 A 
HETATM    2  C   UNL     1      19.416  46.761  48.050  1.00  0.00     0.111 A 
HETATM    3  C   UNL     1      19.602  45.233  48.087  1.00  0.00     0.273 A 
HETATM    4  O   UNL     1      18.696  44.442  47.832  1.00  0.00    -0.266 OA
HETATM    5  N   UNL     1      20.822  44.734  48.428  1.00  0.00    -0.321 N 
HETATM    6  C   UNL     1      21.922  45.515  48.747  1.00  0.00     0.046 A 
HETATM    7  C   UNL     1      21.800  46.905  48.731  1.00  0.00     0.006 A 
HETATM    8  C   UNL     1      23.124  44.887  49.088  1.00  0.00     0.032 A 
HETATM    9  C   UNL     1      24.235  45.656  49.425  1.00  0.00     0.026 A 
HETATM   10  C   UNL     1      24.133  47.043  49.418  1.00  0.00     0.035 A 
HETATM   11 CL   UNL     1      25.497  48.001  49.843  1.00  0.00    -0.084 Cl
HETATM   12  C   UNL     1      22.931  47.666  49.074  1.00  0.00     0.038 A 
HETATM   13  H   UNL     1      20.892  43.724  48.423  1.00  0.00     0.169 HD
ENDROOT
BRANCH   2  14
HETATM   14  N   UNL     1      18.122  47.264  47.679  1.00  0.00    -0.375 N 
HETATM   15  C   UNL     1      17.093  47.504  48.732  1.00  0.00     0.137 C 
HETATM   16  C   UNL     1      15.998  48.457  48.244  1.00  0.00     0.096 C 
HETATM   17  C   UNL     1      15.467  48.124  46.844  1.00  0.00     0.017 C 
HETATM   18  C   UNL     1      16.544  47.675  45.859  1.00  0.00     0.021 C 
HETATM   19  C   UNL     1      17.477  46.648  46.491  1.00  0.00     0.123 C 
BRANCH  16  20
HETATM   20  C   UNL     1      16.432  49.906  48.375  1.00  0.00     0.223 C 
HETATM   21  N   UNL     1      16.242  50.710  47.285  1.00  0.00    -0.359 N 
HETATM   22  H   UNL     1      15.836  50.248  46.467  1.00  0.00     0.162 HD
HETATM   23  O   UNL     1      16.974  50.332  49.397  1.00  0.00    -0.273 OA
BRANCH  21  24
HETATM   24  C   UNL     1      16.310  52.169  47.256  1.00  0.00     0.150 C 
BRANCH  24  25
HETATM   25  C   UNL     1      15.006  52.991  47.377  1.00  0.00     0.254 C 
BRANCH  25  26
HETATM   26  N   UNL     1      14.957  53.862  48.608  1.00  0.00    -0.066 N 
HETATM   27  H   UNL     1      15.934  54.205  48.696  1.00  0.00     0.280 HD
HETATM   28  C   UNL     1      14.029  55.054  48.526  1.00  0.00     0.261 C 
HETATM   29  C   UNL     1      14.125  55.876  49.817  1.00  0.00     0.195 C 
HETATM   30  O   UNL     1      13.839  55.068  50.965  1.00  0.00    -0.388 OA
HETATM   31  C   UNL     1      14.773  53.989  51.090  1.00  0.00     0.195 C 
HETATM   32  C   UNL     1      14.701  53.061  49.873  1.00  0.00     0.261 C 
ENDBRANCH  25  26
ENDBRANCH  24  25
ENDBRANCH  21  24
ENDBRANCH  16  20
ENDBRANCH   2  14
BRANCH   1  33
HETATM   33  C   UNL     1      20.346  49.018  48.366  1.00  0.00    -0.023 A 
HETATM   34  C   UNL     1      20.020  49.698  47.187  1.00  0.00     0.012 A 
HETATM   35  C   UNL     1      19.815  51.080  47.203  1.00  0.00     0.001 A 
HETATM   36  C   UNL     1      19.925  51.787  48.400  1.00  0.00     0.000 A 
HETATM   37  C   UNL     1      20.222  51.115  49.582  1.00  0.00     0.001 A 
HETATM   38  C   UNL     1      20.420  49.733  49.569  1.00  0.00     0.012 A 
ENDBRANCH   1  33
TORSDOF 6
ENDMDL
MODEL 8
REMARK VINA RESULT:      -7.7      9.406     12.662
REMARK  6 active torsions:
REMARK  status: ('A' for Active; 'I' for Inactive)
REMARK    1  A    between atoms: C_4  and  C_5 
REMARK    2  A    between atoms: C_6  and  N_7 
REMARK    3  A    between atoms: C_9  and  C_10 
REMARK       I    between atoms: C_10  and  N_11 
REMARK    4  A    between atoms: N_11  and  C_12 
REMARK    5  A    between atoms: C_12  and  C_13 
REMARK    6  A    between atoms: C_13  and  N_14 
ROOT
HETATM    1  C   UNL     1      20.603  48.056  48.601  1.00  0.00     0.019 A 
HETATM    2  C   UNL     1      20.826  49.321  49.064  1.00  0.00     0.111 A 
HETATM    3  C   UNL     1      22.222  49.635  49.632  1.00  0.00     0.273 A 
HETATM    4  O   UNL     1      22.533  50.741  50.069  1.00  0.00    -0.266 OA
HETATM    5  N   UNL     1      23.158  48.646  49.641  1.00  0.00    -0.321 N 
HETATM    6  C   UNL     1      22.940  47.361  49.170  1.00  0.00     0.046 A 
HETATM    7  C   UNL     1      21.690  47.031  48.642  1.00  0.00     0.006 A 
HETATM    8  C   UNL     1      23.982  46.432  49.227  1.00  0.00     0.032 A 
HETATM    9  C   UNL     1      23.785  45.140  48.744  1.00  0.00     0.026 A 
HETATM   10  C   UNL     1      22.548  44.792  48.210  1.00  0.00     0.035 A 
HETATM   11 CL   UNL     1      22.297  43.203  47.603  1.00  0.00    -0.084 Cl
HETATM   12  C   UNL     1      21.508  45.724  48.159  1.00  0.00     0.038 A 
HETATM   13  H   UNL     1      24.053  48.903  50.038  1.00  0.00     0.169 HD
ENDROOT
BRANCH   2  14
HETATM   14  N   UNL     1      19.851  50.377  49.073  1.00  0.00    -0.375 N 
HETATM   15  C   UNL     1      20.146  51.660  48.370  1.00  0.00     0.137 C 
HETATM   16  C   UNL     1      18.867  52.449  48.077  1.00  0.00     0.096 C 
HETATM   17  C   UNL     1      17.908  52.537  49.271  1.00  0.00     0.017 C 
HETATM   18  C   UNL     1      17.807  51.250  50.087  1.00  0.00     0.021 C 
HETATM   19  C   UNL     1      19.187  50.667  50.369  1.00  0.00     0.123 C 
BRANCH  16  20
HETATM   20  C   UNL     1      18.186  51.945  46.816  1.00  0.00     0.223 C 
HETATM   21  N   UNL     1      16.929  52.418  46.560  1.00  0.00    -0.359 N 
HETATM   22  H   UNL     1      16.554  53.064  47.262  1.00  0.00     0.162 HD
HETATM   23  O   UNL     1      18.718  51.112  46.079  1.00  0.00    -0.273 OA
BRANCH  21  24
HETATM   24  C   UNL     1      16.197  52.311  45.301  1.00  0.00     0.150 C 
BRANCH  24  25
HETATM   25  C   UNL     1      16.713  53.071  44.057  1.00  0.00     0.254 C 
BRANCH  25  26
HETATM   26  N   UNL     1      17.583  52.229  43.156  1.00  0.00    -0.066 N 
HETATM   27  H   UNL     1      18.505  52.244  43.634  1.00  0.00     0.280 HD
HETATM   28  C   UNL     1      17.147  50.791  42.986  1.00  0.00     0.261 C 
HETATM   29  C   UNL     1      18.150  50.047  42.097  1.00  0.00     0.195 C 
HETATM   30  O   UNL     1      18.302  50.700  40.832  1.00  0.00    -0.388 OA
HETATM   31  C   UNL     1      18.799  52.035  40.989  1.00  0.00     0.195 C 
HETATM   32  C   UNL     1      17.823  52.887  41.808  1.00  0.00     0.261 C 
ENDBRANCH  25  26
ENDBRANCH  24  25
ENDBRANCH  21  24
ENDBRANCH  16  20
ENDBRANCH   2  14
BRANCH   1  33
HETATM   33  C   UNL     1      19.274  47.723  48.015  1.00  0.00    -0.023 A 
HETATM   34  C   UNL     1      18.201  47.386  48.847  1.00  0.00     0.012 A 
HETATM   35  C   UNL     1      16.938  47.137  48.304  1.00  0.00     0.001 A 
HETATM   36  C   UNL     1      16.740  47.234  46.927  1.00  0.00     0.000 A 
HETATM   37  C   UNL     1      17.795  47.596  46.094  1.00  0.00     0.001 A 
HETATM   38  C   UNL     1      19.055  47.853  46.636  1.00  0.00     0.012 A 
ENDBRANCH   1  33
TORSDOF 6
ENDMDL
MODEL 9
REMARK VINA RESULT:      -7.6      8.522     12.562
REMARK  6 active torsions:
REMARK  status: ('A' for Active; 'I' for Inactive)
REMARK    1  A    between atoms: C_4  and  C_5 
REMARK    2  A    between atoms: C_6  and  N_7 
REMARK    3  A    between atoms: C_9  and  C_10 
REMARK       I    between atoms: C_10  and  N_11 
REMARK    4  A    between atoms: N_11  and  C_12 
REMARK    5  A    between atoms: C_12  and  C_13 
REMARK    6  A    between atoms: C_13  and  N_14 
ROOT
HETATM    1  C   UNL     1      21.848  47.063  48.377  1.00  0.00     0.019 A 
HETATM    2  C   UNL     1      20.926  46.243  47.791  1.00  0.00     0.111 A 
HETATM    3  C   UNL     1      21.253  44.741  47.720  1.00  0.00     0.273 A 
HETATM    4  O   UNL     1      20.493  43.913  47.220  1.00  0.00    -0.266 OA
HETATM    5  N   UNL     1      22.432  44.306  48.243  1.00  0.00    -0.321 N 
HETATM    6  C   UNL     1      23.371  45.131  48.842  1.00  0.00     0.046 A 
HETATM    7  C   UNL     1      23.117  46.500  48.933  1.00  0.00     0.006 A 
HETATM    8  C   UNL     1      24.545  44.567  49.350  1.00  0.00     0.032 A 
HETATM    9  C   UNL     1      25.492  45.379  49.968  1.00  0.00     0.026 A 
HETATM   10  C   UNL     1      25.256  46.746  50.072  1.00  0.00     0.035 A 
HETATM   11 CL   UNL     1      26.415  47.756  50.843  1.00  0.00    -0.084 Cl
HETATM   12  C   UNL     1      24.082  47.306  49.561  1.00  0.00     0.038 A 
HETATM   13  H   UNL     1      22.602  43.311  48.157  1.00  0.00     0.169 HD
ENDROOT
BRANCH   2  14
HETATM   14  N   UNL     1      19.680  46.680  47.224  1.00  0.00    -0.375 N 
HETATM   15  C   UNL     1      18.395  46.159  47.774  1.00  0.00     0.137 C 
HETATM   16  C   UNL     1      17.215  47.059  47.399  1.00  0.00     0.096 C 
HETATM   17  C   UNL     1      17.198  47.473  45.922  1.00  0.00     0.017 C 
HETATM   18  C   UNL     1      18.577  47.792  45.348  1.00  0.00     0.021 C 
HETATM   19  C   UNL     1      19.597  46.730  45.742  1.00  0.00     0.123 C 
BRANCH  16  20
HETATM   20  C   UNL     1      17.106  48.245  48.340  1.00  0.00     0.223 C 
HETATM   21  N   UNL     1      16.595  49.403  47.822  1.00  0.00    -0.359 N 
HETATM   22  H   UNL     1      16.347  49.364  46.828  1.00  0.00     0.162 HD
HETATM   23  O   UNL     1      17.502  48.187  49.507  1.00  0.00    -0.273 OA
BRANCH  21  24
HETATM   24  C   UNL     1      16.135  50.567  48.574  1.00  0.00     0.150 C 
BRANCH  24  25
HETATM   25  C   UNL     1      16.991  51.854  48.578  1.00  0.00     0.254 C 
BRANCH  25  26
HETATM   26  N   UNL     1      16.174  53.119  48.667  1.00  0.00    -0.066 N 
HETATM   27  H   UNL     1      16.803  53.838  48.258  1.00  0.00     0.280 HD
HETATM   28  C   UNL     1      14.875  53.113  47.893  1.00  0.00     0.261 C 
HETATM   29  C   UNL     1      14.184  54.475  48.027  1.00  0.00     0.195 C 
HETATM   30  O   UNL     1      13.971  54.811  49.403  1.00  0.00    -0.388 OA
HETATM   31  C   UNL     1      15.211  54.904  50.116  1.00  0.00     0.195 C 
HETATM   32  C   UNL     1      15.948  53.560  50.103  1.00  0.00     0.261 C 
ENDBRANCH  25  26
ENDBRANCH  24  25
ENDBRANCH  21  24
ENDBRANCH  16  20
ENDBRANCH   2  14
BRANCH   1  33
HETATM   33  C   UNL     1      21.553  48.518  48.493  1.00  0.00    -0.023 A 
HETATM   34  C   UNL     1      20.690  48.985  49.491  1.00  0.00     0.012 A 
HETATM   35  C   UNL     1      20.462  50.355  49.642  1.00  0.00     0.001 A 
HETATM   36  C   UNL     1      21.104  51.266  48.803  1.00  0.00     0.000 A 
HETATM   37  C   UNL     1      21.985  50.811  47.825  1.00  0.00     0.001 A 
HETATM   38  C   UNL     1      22.220  49.444  47.678  1.00  0.00     0.012 A 
ENDBRANCH   1  33
TORSDOF 6
ENDMDL
MODEL 10
REMARK VINA RESULT:      -7.6      3.783      8.245
REMARK  6 active torsions:
REMARK  status: ('A' for Active; 'I' for Inactive)
REMARK    1  A    between atoms: C_4  and  C_5 
REMARK    2  A    between atoms: C_6  and  N_7 
REMARK    3  A    between atoms: C_9  and  C_10 
REMARK       I    between atoms: C_10  and  N_11 
REMARK    4  A    between atoms: N_11  and  C_12 
REMARK    5  A    between atoms: C_12  and  C_13 
REMARK    6  A    between atoms: C_13  and  N_14 
ROOT
HETATM    1  C   UNL     1      24.082  45.646  49.577  1.00  0.00     0.019 A 
HETATM    2  C   UNL     1      24.193  44.434  48.958  1.00  0.00     0.111 A 
HETATM    3  C   UNL     1      23.394  44.222  47.659  1.00  0.00     0.273 A 
HETATM    4  O   UNL     1      23.425  43.173  47.018  1.00  0.00    -0.266 OA
HETATM    5  N   UNL     1      22.626  45.244  47.194  1.00  0.00    -0.321 N 
HETATM    6  C   UNL     1      22.511  46.479  47.814  1.00  0.00     0.046 A 
HETATM    7  C   UNL     1      23.220  46.719  48.992  1.00  0.00     0.006 A 
HETATM    8  C   UNL     1      21.694  47.455  47.236  1.00  0.00     0.032 A 
HETATM    9  C   UNL     1      21.579  48.706  47.839  1.00  0.00     0.026 A 
HETATM   10  C   UNL     1      22.280  48.966  49.012  1.00  0.00     0.035 A 
HETATM   11 CL   UNL     1      22.151  50.510  49.758  1.00  0.00    -0.084 Cl
HETATM   12  C   UNL     1      23.092  47.986  49.588  1.00  0.00     0.038 A 
HETATM   13  H   UNL     1      22.112  45.046  46.344  1.00  0.00     0.169 HD
ENDROOT
BRANCH   2  14
HETATM   14  N   UNL     1      24.990  43.337  49.435  1.00  0.00    -0.375 N 
HETATM   15  C   UNL     1      26.422  43.235  49.033  1.00  0.00     0.137 C 
HETATM   16  C   UNL     1      27.210  42.325  49.979  1.00  0.00     0.096 C 
HETATM   17  C   UNL     1      26.502  41.002  50.298  1.00  0.00     0.017 C 
HETATM   18  C   UNL     1      24.993  41.133  50.491  1.00  0.00     0.021 C 
HETATM   19  C   UNL     1      24.369  41.988  49.394  1.00  0.00     0.123 C 
BRANCH  16  20
HETATM   20  C   UNL     1      27.643  43.073  51.228  1.00  0.00     0.223 C 
HETATM   21  N   UNL     1      27.542  42.404  52.417  1.00  0.00    -0.359 N 
HETATM   22  H   UNL     1      27.164  41.454  52.352  1.00  0.00     0.162 HD
HETATM   23  O   UNL     1      28.022  44.245  51.185  1.00  0.00    -0.273 OA
BRANCH  21  24
HETATM   24  C   UNL     1      28.146  42.791  53.689  1.00  0.00     0.150 C 
BRANCH  24  25
HETATM   25  C   UNL     1      29.686  42.836  53.815  1.00  0.00     0.254 C 
BRANCH  25  26
HETATM   26  N   UNL     1      30.176  43.820  54.848  1.00  0.00    -0.066 N 
HETATM   27  H   UNL     1      30.977  44.283  54.374  1.00  0.00     0.280 HD
HETATM   28  C   UNL     1      29.179  44.879  55.266  1.00  0.00     0.261 C 
HETATM   29  C   UNL     1      29.831  45.837  56.270  1.00  0.00     0.195 C 
HETATM   30  O   UNL     1      30.344  45.126  57.402  1.00  0.00    -0.388 OA
HETATM   31  C   UNL     1      31.353  44.184  57.015  1.00  0.00     0.195 C 
HETATM   32  C   UNL     1      30.777  43.131  56.061  1.00  0.00     0.261 C 
ENDBRANCH  25  26
ENDBRANCH  24  25
ENDBRANCH  21  24
ENDBRANCH  16  20
ENDBRANCH   2  14
BRANCH   1  33
HETATM   33  C   UNL     1      24.865  45.899  50.818  1.00  0.00    -0.023 A 
HETATM   34  C   UNL     1      25.731  46.996  50.895  1.00  0.00     0.012 A 
HETATM   35  C   UNL     1      26.417  47.272  52.080  1.00  0.00     0.001 A 
HETATM   36  C   UNL     1      26.232  46.460  53.198  1.00  0.00     0.000 A 
HETATM   37  C   UNL     1      25.351  45.383  53.140  1.00  0.00     0.001 A 
HETATM   38  C   UNL     1      24.660  45.110  51.959  1.00  0.00     0.012 A 
ENDBRANCH   1  33
TORSDOF 6
ENDMDL
