MODEL 1
REMARK VINA RESULT:      -9.0      0.000      0.000
REMARK  11 active torsions:
REMARK  status: ('A' for Active; 'I' for Inactive)
REMARK    1  A    between atoms: O_2  and  C_3 
REMARK    2  A    between atoms: C_3  and  C_4 
REMARK    3  A    between atoms: C_4  and  C_5 
REMARK    4  A    between atoms: C_5  and  O_6 
REMARK    5  A    between atoms: O_6  and  C_7 
REMARK    6  A    between atoms: C_7  and  C_9 
REMARK    7  A    between atoms: C_13  and  C_15 
REMARK    8  A    between atoms: C_17  and  C_23 
REMARK    9  A    between atoms: C_20  and  C_21 
REMARK   10  A    between atoms: C_21  and  N_22 
REMARK       I    between atoms: C_23  and  N_25 
REMARK   11  A    between atoms: N_25  and  C_26 
ROOT
HETATM    1  C   UNL     1      25.425  46.232  50.751  1.00  0.00    -0.017 A 
HETATM    2  C   UNL     1      26.130  46.026  51.956  1.00  0.00     0.030 A 
HETATM    3  C   UNL     1      25.946  44.868  52.722  1.00  0.00     0.033 A 
HETATM    4  C   UNL     1      25.049  43.894  52.290  1.00  0.00     0.017 A 
HETATM    5  C   UNL     1      24.339  44.082  51.104  1.00  0.00     0.011 A 
HETATM    6  C   UNL     1      24.525  45.235  50.313  1.00  0.00    -0.020 A 
ENDROOT
BRANCH   1   7
HETATM    7  C   UNL     1      25.712  47.454  49.982  1.00  0.00    -0.024 A 
HETATM    8  C   UNL     1      27.023  47.832  49.659  1.00  0.00     0.012 A 
HETATM    9  C   UNL     1      27.272  48.990  48.918  1.00  0.00     0.002 A 
HETATM   10  C   UNL     1      26.210  49.780  48.475  1.00  0.00     0.017 A 
HETATM   11  C   UNL     1      24.893  49.415  48.770  1.00  0.00     0.040 A 
HETATM   12  C   UNL     1      24.653  48.258  49.527  1.00  0.00     0.030 A 
BRANCH  11  13
HETATM   13  C   UNL     1      23.781  50.276  48.281  1.00  0.00     0.293 C 
HETATM   14  O   UNL     1      23.583  50.524  47.103  1.00  0.00    -0.259 OA
BRANCH  13  15
HETATM   15  O   UNL     1      23.051  50.719  49.331  1.00  0.00    -0.317 OA
BRANCH  15  16
HETATM   16  C   UNL     1      21.676  51.049  49.077  1.00  0.00     0.181 C 
BRANCH  16  17
HETATM   17  C   UNL     1      20.841  50.902  50.345  1.00  0.00     0.053 C 
BRANCH  17  18
HETATM   18  C   UNL     1      19.362  50.727  50.023  1.00  0.00     0.169 C 
BRANCH  18  19
HETATM   19  O   UNL     1      18.756  49.887  51.000  1.00  0.00    -0.396 OA
HETATM   20  C   UNL     1      18.749  48.524  50.594  1.00  0.00     0.201 C 
ENDBRANCH  18  19
ENDBRANCH  17  18
ENDBRANCH  16  17
ENDBRANCH  15  16
ENDBRANCH  13  15
ENDBRANCH  11  13
ENDBRANCH   1   7
BRANCH   6  21
HETATM   21  C   UNL     1      23.775  45.312  49.000  1.00  0.00     0.306 C 
BRANCH  21  22
HETATM   22  N   UNL     1      22.334  45.201  49.202  1.00  0.00     0.082 N 
HETATM   23  H   UNL     1      22.140  45.189  50.201  1.00  0.00     0.313 HD
HETATM   24  H   UNL     1      21.885  46.038  48.834  1.00  0.00     0.313 HD
ENDBRANCH  21  22
ENDBRANCH   6  21
BRANCH   3  25
HETATM   25  C   UNL     1      26.752  44.613  53.949  1.00  0.00     0.256 C 
HETATM   26  O   UNL     1      26.222  44.020  54.881  1.00  0.00    -0.267 OA
HETATM   27  N   UNL     1      28.046  45.105  53.914  1.00  0.00    -0.323 N 
HETATM   28  H   UNL     1      28.278  45.732  53.155  1.00  0.00     0.169 HD
BRANCH  27  29
HETATM   29  C   UNL     1      29.066  44.874  54.863  1.00  0.00     0.037 A 
HETATM   30  C   UNL     1      29.376  45.753  55.896  1.00  0.00     0.049 A 
HETATM   31  C   UNL     1      30.381  45.400  56.784  1.00  0.00     0.118 A 
HETATM   32  N   UNL     1      31.083  44.249  56.711  1.00  0.00    -0.273 NA
HETATM   33  C   UNL     1      30.766  43.416  55.701  1.00  0.00     0.118 A 
HETATM   34  C   UNL     1      29.775  43.677  54.767  1.00  0.00     0.049 A 
ENDBRANCH  27  29
ENDBRANCH   3  25
TORSDOF 11
ENDMDL
MODEL 2
REMARK VINA RESULT:      -8.8      2.984     10.111
REMARK  11 active torsions:
REMARK  status: ('A' for Active; 'I' for Inactive)
REMARK    1  A    between atoms: O_2  and  C_3 
REMARK    2  A    between atoms: C_3  and  C_4 
REMARK    3  A    between atoms: C_4  and  C_5 
REMARK    4  A    between atoms: C_5  and  O_6 
REMARK    5  A    between atoms: O_6  and  C_7 
REMARK    6  A    between atoms: C_7  and  C_9 
REMARK    7  A    between atoms: C_13  and  C_15 
REMARK    8  A    between atoms: C_17  and  C_23 
REMARK    9  A    between atoms: C_20  and  C_21 
REMARK   10  A    between atoms: C_21  and  N_22 
REMARK       I    between atoms: C_23  and  N_25 
REMARK   11  A    between atoms: N_25  and  C_26 
ROOT
HETATM    1  C   UNL     1      25.340  48.022  49.742  1.00  0.00    -0.017 A 
HETATM    2  C   UNL     1      23.946  48.201  49.612  1.00  0.00     0.030 A 
HETATM    3  C   UNL     1      23.411  49.209  48.799  1.00  0.00     0.033 A 
HETATM    4  C   UNL     1      24.269  50.056  48.102  1.00  0.00     0.017 A 
HETATM    5  C   UNL     1      25.649  49.898  48.222  1.00  0.00     0.011 A 
HETATM    6  C   UNL     1      26.203  48.878  49.024  1.00  0.00    -0.020 A 
ENDROOT
BRANCH   1   7
HETATM    7  C   UNL     1      25.818  46.909  50.579  1.00  0.00    -0.024 A 
HETATM    8  C   UNL     1      26.180  45.673  50.026  1.00  0.00     0.012 A 
HETATM    9  C   UNL     1      26.644  44.634  50.838  1.00  0.00     0.002 A 
HETATM   10  C   UNL     1      26.768  44.823  52.215  1.00  0.00     0.017 A 
HETATM   11  C   UNL     1      26.430  46.054  52.788  1.00  0.00     0.040 A 
HETATM   12  C   UNL     1      25.951  47.086  51.967  1.00  0.00     0.030 A 
BRANCH  11  13
HETATM   13  C   UNL     1      26.576  46.225  54.259  1.00  0.00     0.293 C 
HETATM   14  O   UNL     1      25.837  46.918  54.938  1.00  0.00    -0.259 OA
BRANCH  13  15
HETATM   15  O   UNL     1      27.632  45.501  54.701  1.00  0.00    -0.317 OA
BRANCH  15  16
HETATM   16  C   UNL     1      28.569  46.171  55.559  1.00  0.00     0.181 C 
BRANCH  16  17
HETATM   17  C   UNL     1      29.727  45.247  55.920  1.00  0.00     0.053 C 
BRANCH  17  18
HETATM   18  C   UNL     1      29.755  44.011  55.031  1.00  0.00     0.169 C 
BRANCH  18  19
HETATM   19  O   UNL     1      30.797  43.138  55.457  1.00  0.00    -0.396 OA
HETATM   20  C   UNL     1      31.345  43.540  56.705  1.00  0.00     0.201 C 
ENDBRANCH  18  19
ENDBRANCH  17  18
ENDBRANCH  16  17
ENDBRANCH  15  16
ENDBRANCH  13  15
ENDBRANCH  11  13
ENDBRANCH   1   7
BRANCH   6  21
HETATM   21  C   UNL     1      27.710  48.730  49.025  1.00  0.00     0.306 C 
BRANCH  21  22
HETATM   22  N   UNL     1      28.373  50.026  49.114  1.00  0.00     0.082 N 
HETATM   23  H   UNL     1      27.937  50.667  48.455  1.00  0.00     0.313 HD
HETATM   24  H   UNL     1      28.211  50.416  50.041  1.00  0.00     0.313 HD
ENDBRANCH  21  22
ENDBRANCH   6  21
BRANCH   3  25
HETATM   25  C   UNL     1      21.941  49.343  48.596  1.00  0.00     0.256 C 
HETATM   26  O   UNL     1      21.219  48.413  48.936  1.00  0.00    -0.267 OA
HETATM   27  N   UNL     1      21.535  50.531  48.012  1.00  0.00    -0.323 N 
HETATM   28  H   UNL     1      22.259  51.119  47.618  1.00  0.00     0.169 HD
BRANCH  27  29
HETATM   29  C   UNL     1      20.208  50.985  47.848  1.00  0.00     0.037 A 
HETATM   30  C   UNL     1      19.624  51.972  48.635  1.00  0.00     0.049 A 
HETATM   31  C   UNL     1      18.321  52.354  48.357  1.00  0.00     0.118 A 
HETATM   32  N   UNL     1      17.575  51.826  47.363  1.00  0.00    -0.273 NA
HETATM   33  C   UNL     1      18.162  50.870  46.616  1.00  0.00     0.118 A 
HETATM   34  C   UNL     1      19.459  50.425  46.813  1.00  0.00     0.049 A 
ENDBRANCH  27  29
ENDBRANCH   3  25
TORSDOF 11
ENDMDL
MODEL 3
REMARK VINA RESULT:      -8.0      3.510      4.630
REMARK  11 active torsions:
REMARK  status: ('A' for Active; 'I' for Inactive)
REMARK    1  A    between atoms: O_2  and  C_3 
REMARK    2  A    between atoms: C_3  and  C_4 
REMARK    3  A    between atoms: C_4  and  C_5 
REMARK    4  A    between atoms: C_5  and  O_6 
REMARK    5  A    between atoms: O_6  and  C_7 
REMARK    6  A    between atoms: C_7  and  C_9 
REMARK    7  A    between atoms: C_13  and  C_15 
REMARK    8  A    between atoms: C_17  and  C_23 
REMARK    9  A    between atoms: C_20  and  C_21 
REMARK   10  A    between atoms: C_21  and  N_22 
REMARK       I    between atoms: C_23  and  N_25 
REMARK   11  A    between atoms: N_25  and  C_26 
ROOT
HETATM    1  C   UNL     1      26.357  46.235  50.721  1.00  0.00    -0.017 A 
HETATM    2  C   UNL     1      26.695  45.054  50.027  1.00  0.00     0.030 A 
HETATM    3  C   UNL     1      26.769  43.817  50.682  1.00  0.00     0.033 A 
HETATM    4  C   UNL     1      26.505  43.746  52.048  1.00  0.00     0.017 A 
HETATM    5  C   UNL     1      26.175  44.904  52.751  1.00  0.00     0.011 A 
HETATM    6  C   UNL     1      26.080  46.153  52.104  1.00  0.00    -0.020 A 
ENDROOT
BRANCH   1   7
HETATM    7  C   UNL     1      26.256  47.484  49.949  1.00  0.00    -0.024 A 
HETATM    8  C   UNL     1      27.391  48.229  49.598  1.00  0.00     0.012 A 
HETATM    9  C   UNL     1      27.273  49.406  48.853  1.00  0.00     0.002 A 
HETATM   10  C   UNL     1      26.016  49.847  48.436  1.00  0.00     0.017 A 
HETATM   11  C   UNL     1      24.870  49.113  48.760  1.00  0.00     0.040 A 
HETATM   12  C   UNL     1      24.998  47.940  49.520  1.00  0.00     0.030 A 
BRANCH  11  13
HETATM   13  C   UNL     1      23.545  49.608  48.298  1.00  0.00     0.293 C 
HETATM   14  O   UNL     1      23.368  50.184  47.237  1.00  0.00    -0.259 OA
BRANCH  13  15
HETATM   15  O   UNL     1      22.600  49.315  49.223  1.00  0.00    -0.317 OA
BRANCH  15  16
HETATM   16  C   UNL     1      21.320  48.884  48.734  1.00  0.00     0.181 C 
BRANCH  16  17
HETATM   17  C   UNL     1      20.194  49.462  49.585  1.00  0.00     0.053 C 
BRANCH  17  18
HETATM   18  C   UNL     1      20.469  50.910  49.968  1.00  0.00     0.169 C 
BRANCH  18  19
HETATM   19  O   UNL     1      19.241  51.627  50.046  1.00  0.00    -0.396 OA
HETATM   20  C   UNL     1      18.118  50.759  49.969  1.00  0.00     0.201 C 
ENDBRANCH  18  19
ENDBRANCH  17  18
ENDBRANCH  16  17
ENDBRANCH  15  16
ENDBRANCH  13  15
ENDBRANCH  11  13
ENDBRANCH   1   7
BRANCH   6  21
HETATM   21  C   UNL     1      25.633  47.339  52.933  1.00  0.00     0.306 C 
BRANCH  21  22
HETATM   22  N   UNL     1      26.238  47.321  54.260  1.00  0.00     0.082 N 
HETATM   23  H   UNL     1      27.168  46.913  54.194  1.00  0.00     0.313 HD
HETATM   24  H   UNL     1      26.368  48.280  54.576  1.00  0.00     0.313 HD
ENDBRANCH  21  22
ENDBRANCH   6  21
BRANCH   3  25
HETATM   25  C   UNL     1      27.043  42.558  49.933  1.00  0.00     0.256 C 
HETATM   26  O   UNL     1      27.199  42.625  48.719  1.00  0.00    -0.267 OA
HETATM   27  N   UNL     1      27.075  41.411  50.706  1.00  0.00    -0.323 N 
HETATM   28  H   UNL     1      26.745  41.490  51.660  1.00  0.00     0.169 HD
BRANCH  27  29
HETATM   29  C   UNL     1      27.462  40.118  50.289  1.00  0.00     0.037 A 
HETATM   30  C   UNL     1      28.755  39.618  50.414  1.00  0.00     0.049 A 
HETATM   31  C   UNL     1      29.005  38.321  49.995  1.00  0.00     0.118 A 
HETATM   32  N   UNL     1      28.068  37.504  49.468  1.00  0.00    -0.273 NA
HETATM   33  C   UNL     1      26.825  38.011  49.355  1.00  0.00     0.118 A 
HETATM   34  C   UNL     1      26.475  39.293  49.750  1.00  0.00     0.049 A 
ENDBRANCH  27  29
ENDBRANCH   3  25
TORSDOF 11
ENDMDL
MODEL 4
REMARK VINA RESULT:      -7.8      2.889      9.924
REMARK  11 active torsions:
REMARK  status: ('A' for Active; 'I' for Inactive)
REMARK    1  A    between atoms: O_2  and  C_3 
REMARK    2  A    between atoms: C_3  and  C_4 
REMARK    3  A    between atoms: C_4  and  C_5 
REMARK    4  A    between atoms: C_5  and  O_6 
REMARK    5  A    between atoms: O_6  and  C_7 
REMARK    6  A    between atoms: C_7  and  C_9 
REMARK    7  A    between atoms: C_13  and  C_15 
REMARK    8  A    between atoms: C_17  and  C_23 
REMARK    9  A    between atoms: C_20  and  C_21 
REMARK   10  A    between atoms: C_21  and  N_22 
REMARK       I    between atoms: C_23  and  N_25 
REMARK   11  A    between atoms: N_25  and  C_26 
ROOT
HETATM    1  C   UNL     1      24.530  48.323  49.587  1.00  0.00    -0.017 A 
HETATM    2  C   UNL     1      23.181  48.704  49.419  1.00  0.00     0.030 A 
HETATM    3  C   UNL     1      22.822  49.781  48.597  1.00  0.00     0.033 A 
HETATM    4  C   UNL     1      23.814  50.496  47.929  1.00  0.00     0.017 A 
HETATM    5  C   UNL     1      25.153  50.137  48.087  1.00  0.00     0.011 A 
HETATM    6  C   UNL     1      25.529  49.046  48.897  1.00  0.00    -0.020 A 
ENDROOT
BRANCH   1   7
HETATM    7  C   UNL     1      24.817  47.151  50.430  1.00  0.00    -0.024 A 
HETATM    8  C   UNL     1      24.581  45.844  49.981  1.00  0.00     0.012 A 
HETATM    9  C   UNL     1      24.873  44.745  50.793  1.00  0.00     0.002 A 
HETATM   10  C   UNL     1      25.420  44.937  52.062  1.00  0.00     0.017 A 
HETATM   11  C   UNL     1      25.681  46.231  52.525  1.00  0.00     0.040 A 
HETATM   12  C   UNL     1      25.371  47.329  51.708  1.00  0.00     0.030 A 
BRANCH  11  13
HETATM   13  C   UNL     1      26.269  46.404  53.882  1.00  0.00     0.293 C 
HETATM   14  O   UNL     1      25.652  46.846  54.837  1.00  0.00    -0.259 OA
BRANCH  13  15
HETATM   15  O   UNL     1      27.560  45.996  53.876  1.00  0.00    -0.317 OA
BRANCH  15  16
HETATM   16  C   UNL     1      27.965  45.097  54.921  1.00  0.00     0.181 C 
BRANCH  16  17
HETATM   17  C   UNL     1      28.553  43.817  54.336  1.00  0.00     0.053 C 
BRANCH  17  18
HETATM   18  C   UNL     1      27.499  42.724  54.212  1.00  0.00     0.169 C 
BRANCH  18  19
HETATM   19  O   UNL     1      27.719  41.980  53.017  1.00  0.00    -0.396 OA
HETATM   20  C   UNL     1      28.884  42.417  52.330  1.00  0.00     0.201 C 
ENDBRANCH  18  19
ENDBRANCH  17  18
ENDBRANCH  16  17
ENDBRANCH  15  16
ENDBRANCH  13  15
ENDBRANCH  11  13
ENDBRANCH   1   7
BRANCH   6  21
HETATM   21  C   UNL     1      26.998  48.679  48.940  1.00  0.00     0.306 C 
BRANCH  21  22
HETATM   22  N   UNL     1      27.844  49.866  48.917  1.00  0.00     0.082 N 
HETATM   23  H   UNL     1      28.729  49.652  49.372  1.00  0.00     0.313 HD
HETATM   24  H   UNL     1      28.067  50.093  47.950  1.00  0.00     0.313 HD
ENDBRANCH  21  22
ENDBRANCH   6  21
BRANCH   3  25
HETATM   25  C   UNL     1      21.394  50.129  48.355  1.00  0.00     0.256 C 
HETATM   26  O   UNL     1      21.077  51.313  48.349  1.00  0.00    -0.267 OA
HETATM   27  N   UNL     1      20.549  49.048  48.175  1.00  0.00    -0.323 N 
HETATM   28  H   UNL     1      20.922  48.132  48.391  1.00  0.00     0.169 HD
BRANCH  27  29
HETATM   29  C   UNL     1      19.194  49.088  47.778  1.00  0.00     0.037 A 
HETATM   30  C   UNL     1      18.127  48.856  48.640  1.00  0.00     0.049 A 
HETATM   31  C   UNL     1      16.839  48.954  48.138  1.00  0.00     0.118 A 
HETATM   32  N   UNL     1      16.550  49.262  46.855  1.00  0.00    -0.273 NA
HETATM   33  C   UNL     1      17.600  49.480  46.039  1.00  0.00     0.118 A 
HETATM   34  C   UNL     1      18.922  49.410  46.448  1.00  0.00     0.049 A 
ENDBRANCH  27  29
ENDBRANCH   3  25
TORSDOF 11
ENDMDL
MODEL 5
REMARK VINA RESULT:      -7.7      9.150     13.113
REMARK  11 active torsions:
REMARK  status: ('A' for Active; 'I' for Inactive)
REMARK    1  A    between atoms: O_2  and  C_3 
REMARK    2  A    between atoms: C_3  and  C_4 
REMARK    3  A    between atoms: C_4  and  C_5 
REMARK    4  A    between atoms: C_5  and  O_6 
REMARK    5  A    between atoms: O_6  and  C_7 
REMARK    6  A    between atoms: C_7  and  C_9 
REMARK    7  A    between atoms: C_13  and  C_15 
REMARK    8  A    between atoms: C_17  and  C_23 
REMARK    9  A    between atoms: C_20  and  C_21 
REMARK   10  A    between atoms: C_21  and  N_22 
REMARK       I    between atoms: C_23  and  N_25 
REMARK   11  A    between atoms: N_25  and  C_26 
ROOT
HETATM    1  C   UNL     1      16.327  52.936  49.025  1.00  0.00    -0.017 A 
HETATM    2  C   UNL     1      15.945  53.730  50.128  1.00  0.00     0.030 A 
HETATM    3  C   UNL     1      14.760  54.477  50.115  1.00  0.00     0.033 A 
HETATM    4  C   UNL     1      13.937  54.441  48.992  1.00  0.00     0.017 A 
HETATM    5  C   UNL     1      14.300  53.667  47.890  1.00  0.00     0.011 A 
HETATM    6  C   UNL     1      15.482  52.896  47.894  1.00  0.00    -0.020 A 
ENDROOT
BRANCH   1   7
HETATM    7  C   UNL     1      17.563  52.145  49.139  1.00  0.00    -0.024 A 
HETATM    8  C   UNL     1      18.762  52.560  48.541  1.00  0.00     0.012 A 
HETATM    9  C   UNL     1      19.927  51.800  48.672  1.00  0.00     0.002 A 
HETATM   10  C   UNL     1      19.914  50.620  49.417  1.00  0.00     0.017 A 
HETATM   11  C   UNL     1      18.734  50.195  50.037  1.00  0.00     0.040 A 
HETATM   12  C   UNL     1      17.566  50.957  49.888  1.00  0.00     0.030 A 
BRANCH  11  13
HETATM   13  C   UNL     1      18.753  48.933  50.828  1.00  0.00     0.293 C 
HETATM   14  O   UNL     1      18.565  48.885  52.032  1.00  0.00    -0.259 OA
BRANCH  13  15
HETATM   15  O   UNL     1      19.002  47.884  50.008  1.00  0.00    -0.317 OA
BRANCH  15  16
HETATM   16  C   UNL     1      17.937  47.468  49.139  1.00  0.00     0.181 C 
BRANCH  16  17
HETATM   17  C   UNL     1      18.330  47.650  47.677  1.00  0.00     0.053 C 
BRANCH  17  18
HETATM   18  C   UNL     1      17.304  48.487  46.922  1.00  0.00     0.169 C 
BRANCH  18  19
HETATM   19  O   UNL     1      16.050  48.428  47.595  1.00  0.00    -0.396 OA
HETATM   20  C   UNL     1      14.960  48.447  46.683  1.00  0.00     0.201 C 
ENDBRANCH  18  19
ENDBRANCH  17  18
ENDBRANCH  16  17
ENDBRANCH  15  16
ENDBRANCH  13  15
ENDBRANCH  11  13
ENDBRANCH   1   7
BRANCH   6  21
HETATM   21  C   UNL     1      15.750  52.021  46.688  1.00  0.00     0.306 C 
BRANCH  21  22
HETATM   22  N   UNL     1      14.632  52.046  45.752  1.00  0.00     0.082 N 
HETATM   23  H   UNL     1      13.770  52.206  46.269  1.00  0.00     0.313 HD
HETATM   24  H   UNL     1      14.743  52.843  45.127  1.00  0.00     0.313 HD
ENDBRANCH  21  22
ENDBRANCH   6  21
BRANCH   3  25
HETATM   25  C   UNL     1      14.316  55.247  51.311  1.00  0.00     0.256 C 
HETATM   26  O   UNL     1      13.356  54.830  51.948  1.00  0.00    -0.267 OA
HETATM   27  N   UNL     1      15.043  56.396  51.573  1.00  0.00    -0.323 N 
HETATM   28  H   UNL     1      15.684  56.707  50.854  1.00  0.00     0.169 HD
BRANCH  27  29
HETATM   29  C   UNL     1      14.943  57.220  52.715  1.00  0.00     0.037 A 
HETATM   30  C   UNL     1      14.155  58.365  52.777  1.00  0.00     0.049 A 
HETATM   31  C   UNL     1      14.115  59.077  53.966  1.00  0.00     0.118 A 
HETATM   32  N   UNL     1      14.798  58.728  55.078  1.00  0.00    -0.273 NA
HETATM   33  C   UNL     1      15.555  57.616  54.992  1.00  0.00     0.118 A 
HETATM   34  C   UNL     1      15.656  56.837  53.851  1.00  0.00     0.049 A 
ENDBRANCH  27  29
ENDBRANCH   3  25
TORSDOF 11
ENDMDL
MODEL 6
REMARK VINA RESULT:      -7.5      3.662      8.108
REMARK  11 active torsions:
REMARK  status: ('A' for Active; 'I' for Inactive)
REMARK    1  A    between atoms: O_2  and  C_3 
REMARK    2  A    between atoms: C_3  and  C_4 
REMARK    3  A    between atoms: C_4  and  C_5 
REMARK    4  A    between atoms: C_5  and  O_6 
REMARK    5  A    between atoms: O_6  and  C_7 
REMARK    6  A    between atoms: C_7  and  C_9 
REMARK    7  A    between atoms: C_13  and  C_15 
REMARK    8  A    between atoms: C_17  and  C_23 
REMARK    9  A    between atoms: C_20  and  C_21 
REMARK   10  A    between atoms: C_21  and  N_22 
REMARK       I    between atoms: C_23  and  N_25 
REMARK   11  A    between atoms: N_25  and  C_26 
ROOT
HETATM    1  C   UNL     1      27.781  43.564  52.748  1.00  0.00    -0.017 A 
HETATM    2  C   UNL     1      26.981  44.561  52.149  1.00  0.00     0.030 A 
HETATM    3  C   UNL     1      26.732  45.782  52.790  1.00  0.00     0.033 A 
HETATM    4  C   UNL     1      27.285  46.023  54.046  1.00  0.00     0.017 A 
HETATM    5  C   UNL     1      28.074  45.048  54.655  1.00  0.00     0.011 A 
HETATM    6  C   UNL     1      28.346  43.820  54.017  1.00  0.00    -0.020 A 
ENDROOT
BRANCH   1   7
HETATM    7  C   UNL     1      28.031  42.329  51.986  1.00  0.00    -0.024 A 
HETATM    8  C   UNL     1      28.647  41.214  52.572  1.00  0.00     0.012 A 
HETATM    9  C   UNL     1      28.863  40.046  51.834  1.00  0.00     0.002 A 
HETATM   10  C   UNL     1      28.450  39.972  50.503  1.00  0.00     0.017 A 
HETATM   11  C   UNL     1      27.818  41.066  49.902  1.00  0.00     0.040 A 
HETATM   12  C   UNL     1      27.619  42.239  50.646  1.00  0.00     0.030 A 
BRANCH  11  13
HETATM   13  C   UNL     1      27.387  40.955  48.482  1.00  0.00     0.293 C 
HETATM   14  O   UNL     1      28.006  41.433  47.546  1.00  0.00    -0.259 OA
BRANCH  13  15
HETATM   15  O   UNL     1      26.231  40.253  48.408  1.00  0.00    -0.317 OA
BRANCH  15  16
HETATM   16  C   UNL     1      25.143  40.860  47.693  1.00  0.00     0.181 C 
BRANCH  16  17
HETATM   17  C   UNL     1      24.105  41.418  48.660  1.00  0.00     0.053 C 
BRANCH  17  18
HETATM   18  C   UNL     1      23.833  42.894  48.398  1.00  0.00     0.169 C 
BRANCH  18  19
HETATM   19  O   UNL     1      24.555  43.687  49.336  1.00  0.00    -0.396 OA
HETATM   20  C   UNL     1      23.725  44.127  50.403  1.00  0.00     0.201 C 
ENDBRANCH  18  19
ENDBRANCH  17  18
ENDBRANCH  16  17
ENDBRANCH  15  16
ENDBRANCH  13  15
ENDBRANCH  11  13
ENDBRANCH   1   7
BRANCH   6  21
HETATM   21  C   UNL     1      29.282  42.859  54.718  1.00  0.00     0.306 C 
BRANCH  21  22
HETATM   22  N   UNL     1      30.603  43.447  54.912  1.00  0.00     0.082 N 
HETATM   23  H   UNL     1      31.010  43.655  54.003  1.00  0.00     0.313 HD
HETATM   24  H   UNL     1      30.498  44.340  55.390  1.00  0.00     0.313 HD
ENDBRANCH  21  22
ENDBRANCH   6  21
BRANCH   3  25
HETATM   25  C   UNL     1      25.958  46.865  52.122  1.00  0.00     0.256 C 
HETATM   26  O   UNL     1      25.333  47.651  52.824  1.00  0.00    -0.267 OA
HETATM   27  N   UNL     1      26.012  46.857  50.739  1.00  0.00    -0.323 N 
HETATM   28  H   UNL     1      26.414  46.039  50.299  1.00  0.00     0.169 HD
BRANCH  27  29
HETATM   29  C   UNL     1      25.507  47.846  49.866  1.00  0.00     0.037 A 
HETATM   30  C   UNL     1      24.154  48.027  49.599  1.00  0.00     0.049 A 
HETATM   31  C   UNL     1      23.780  49.054  48.746  1.00  0.00     0.118 A 
HETATM   32  N   UNL     1      24.651  49.897  48.151  1.00  0.00    -0.273 NA
HETATM   33  C   UNL     1      25.956  49.701  48.424  1.00  0.00     0.118 A 
HETATM   34  C   UNL     1      26.428  48.706  49.266  1.00  0.00     0.049 A 
ENDBRANCH  27  29
ENDBRANCH   3  25
TORSDOF 11
ENDMDL
MODEL 7
REMARK VINA RESULT:      -7.4     12.780     14.912
REMARK  11 active torsions:
REMARK  status: ('A' for Active; 'I' for Inactive)
REMARK    1  A    between atoms: O_2  and  C_3 
REMARK    2  A    between atoms: C_3  and  C_4 
REMARK    3  A    between atoms: C_4  and  C_5 
REMARK    4  A    between atoms: C_5  and  O_6 
REMARK    5  A    between atoms: O_6  and  C_7 
REMARK    6  A    between atoms: C_7  and  C_9 
REMARK    7  A    between atoms: C_13  and  C_15 
REMARK    8  A    between atoms: C_17  and  C_23 
REMARK    9  A    between atoms: C_20  and  C_21 
REMARK   10  A    between atoms: C_21  and  N_22 
REMARK       I    between atoms: C_23  and  N_25 
REMARK   11  A    between atoms: N_25  and  C_26 
ROOT
HETATM    1  C   UNL     1      35.538  51.459  42.247  1.00  0.00    -0.017 A 
HETATM    2  C   UNL     1      36.365  51.423  43.389  1.00  0.00     0.030 A 
HETATM    3  C   UNL     1      37.660  51.959  43.372  1.00  0.00     0.033 A 
HETATM    4  C   UNL     1      38.146  52.541  42.203  1.00  0.00     0.017 A 
HETATM    5  C   UNL     1      37.345  52.581  41.062  1.00  0.00     0.011 A 
HETATM    6  C   UNL     1      36.034  52.061  41.069  1.00  0.00    -0.020 A 
ENDROOT
BRANCH   1   7
HETATM    7  C   UNL     1      34.174  50.916  42.364  1.00  0.00    -0.024 A 
HETATM    8  C   UNL     1      33.189  51.556  43.130  1.00  0.00     0.012 A 
HETATM    9  C   UNL     1      31.897  51.030  43.218  1.00  0.00     0.002 A 
HETATM   10  C   UNL     1      31.567  49.864  42.526  1.00  0.00     0.017 A 
HETATM   11  C   UNL     1      32.528  49.217  41.741  1.00  0.00     0.040 A 
HETATM   12  C   UNL     1      33.827  49.745  41.671  1.00  0.00     0.030 A 
BRANCH  11  13
HETATM   13  C   UNL     1      32.145  47.977  41.013  1.00  0.00     0.293 C 
HETATM   14  O   UNL     1      32.835  46.972  40.974  1.00  0.00    -0.259 OA
BRANCH  13  15
HETATM   15  O   UNL     1      30.937  48.148  40.424  1.00  0.00    -0.317 OA
BRANCH  15  16
HETATM   16  C   UNL     1      30.933  48.464  39.023  1.00  0.00     0.181 C 
BRANCH  16  17
HETATM   17  C   UNL     1      30.518  49.913  38.797  1.00  0.00     0.053 C 
BRANCH  17  18
HETATM   18  C   UNL     1      31.716  50.793  38.466  1.00  0.00     0.169 C 
BRANCH  18  19
HETATM   19  O   UNL     1      31.834  51.828  39.438  1.00  0.00    -0.396 OA
HETATM   20  C   UNL     1      30.562  52.282  39.882  1.00  0.00     0.201 C 
ENDBRANCH  18  19
ENDBRANCH  17  18
ENDBRANCH  16  17
ENDBRANCH  15  16
ENDBRANCH  13  15
ENDBRANCH  11  13
ENDBRANCH   1   7
BRANCH   6  21
HETATM   21  C   UNL     1      35.209  52.226  39.810  1.00  0.00     0.306 C 
BRANCH  21  22
HETATM   22  N   UNL     1      34.444  53.468  39.834  1.00  0.00     0.082 N 
HETATM   23  H   UNL     1      35.051  54.225  40.141  1.00  0.00     0.313 HD
HETATM   24  H   UNL     1      34.159  53.698  38.884  1.00  0.00     0.313 HD
ENDBRANCH  21  22
ENDBRANCH   6  21
BRANCH   3  25
HETATM   25  C   UNL     1      38.501  51.995  44.601  1.00  0.00     0.256 C 
HETATM   26  O   UNL     1      39.193  51.018  44.862  1.00  0.00    -0.267 OA
HETATM   27  N   UNL     1      38.396  53.155  45.349  1.00  0.00    -0.323 N 
HETATM   28  H   UNL     1      37.648  53.792  45.107  1.00  0.00     0.169 HD
BRANCH  27  29
HETATM   29  C   UNL     1      39.186  53.520  46.462  1.00  0.00     0.037 A 
HETATM   30  C   UNL     1      38.733  53.490  47.777  1.00  0.00     0.049 A 
HETATM   31  C   UNL     1      39.613  53.843  48.787  1.00  0.00     0.118 A 
HETATM   32  N   UNL     1      40.894  54.218  48.577  1.00  0.00    -0.273 NA
HETATM   33  C   UNL     1      41.309  54.240  47.295  1.00  0.00     0.118 A 
HETATM   34  C   UNL     1      40.506  53.901  46.217  1.00  0.00     0.049 A 
ENDBRANCH  27  29
ENDBRANCH   3  25
TORSDOF 11
ENDMDL
MODEL 8
REMARK VINA RESULT:      -7.3      4.741      8.481
REMARK  11 active torsions:
REMARK  status: ('A' for Active; 'I' for Inactive)
REMARK    1  A    between atoms: O_2  and  C_3 
REMARK    2  A    between atoms: C_3  and  C_4 
REMARK    3  A    between atoms: C_4  and  C_5 
REMARK    4  A    between atoms: C_5  and  O_6 
REMARK    5  A    between atoms: O_6  and  C_7 
REMARK    6  A    between atoms: C_7  and  C_9 
REMARK    7  A    between atoms: C_13  and  C_15 
REMARK    8  A    between atoms: C_17  and  C_23 
REMARK    9  A    between atoms: C_20  and  C_21 
REMARK   10  A    between atoms: C_21  and  N_22 
REMARK       I    between atoms: C_23  and  N_25 
REMARK   11  A    between atoms: N_25  and  C_26 
ROOT
HETATM    1  C   UNL     1      19.183  50.574  47.280  1.00  0.00    -0.017 A 
HETATM    2  C   UNL     1      20.534  50.433  47.661  1.00  0.00     0.030 A 
HETATM    3  C   UNL     1      20.992  50.872  48.911  1.00  0.00     0.033 A 
HETATM    4  C   UNL     1      20.097  51.461  49.801  1.00  0.00     0.017 A 
HETATM    5  C   UNL     1      18.758  51.614  49.440  1.00  0.00     0.011 A 
HETATM    6  C   UNL     1      18.279  51.163  48.193  1.00  0.00    -0.020 A 
ENDROOT
BRANCH   1   7
HETATM    7  C   UNL     1      18.776  50.045  45.969  1.00  0.00    -0.024 A 
HETATM    8  C   UNL     1      18.489  50.891  44.888  1.00  0.00     0.012 A 
HETATM    9  C   UNL     1      18.117  50.367  43.647  1.00  0.00     0.002 A 
HETATM   10  C   UNL     1      18.041  48.985  43.465  1.00  0.00     0.017 A 
HETATM   11  C   UNL     1      18.338  48.120  44.523  1.00  0.00     0.040 A 
HETATM   12  C   UNL     1      18.697  48.656  45.769  1.00  0.00     0.030 A 
BRANCH  11  13
HETATM   13  C   UNL     1      18.251  46.651  44.297  1.00  0.00     0.293 C 
HETATM   14  O   UNL     1      18.883  46.058  43.438  1.00  0.00    -0.259 OA
BRANCH  13  15
HETATM   15  O   UNL     1      17.383  46.104  45.181  1.00  0.00    -0.317 OA
BRANCH  15  16
HETATM   16  C   UNL     1      17.904  45.111  46.078  1.00  0.00     0.181 C 
BRANCH  16  17
HETATM   17  C   UNL     1      17.614  45.485  47.527  1.00  0.00     0.053 C 
BRANCH  17  18
HETATM   18  C   UNL     1      18.872  45.951  48.248  1.00  0.00     0.169 C 
BRANCH  18  19
HETATM   19  O   UNL     1      18.620  47.193  48.898  1.00  0.00    -0.396 OA
HETATM   20  C   UNL     1      17.233  47.506  48.918  1.00  0.00     0.201 C 
ENDBRANCH  18  19
ENDBRANCH  17  18
ENDBRANCH  16  17
ENDBRANCH  15  16
ENDBRANCH  13  15
ENDBRANCH  11  13
ENDBRANCH   1   7
BRANCH   6  21
HETATM   21  C   UNL     1      16.795  51.295  47.924  1.00  0.00     0.306 C 
BRANCH  21  22
HETATM   22  N   UNL     1      16.445  52.652  47.520  1.00  0.00     0.082 N 
HETATM   23  H   UNL     1      16.057  53.146  48.320  1.00  0.00     0.313 HD
HETATM   24  H   UNL     1      17.295  53.148  47.261  1.00  0.00     0.313 HD
ENDBRANCH  21  22
ENDBRANCH   6  21
BRANCH   3  25
HETATM   25  C   UNL     1      22.399  50.646  49.344  1.00  0.00     0.256 C 
HETATM   26  O   UNL     1      22.759  51.115  50.418  1.00  0.00    -0.267 OA
HETATM   27  N   UNL     1      23.179  49.927  48.456  1.00  0.00    -0.323 N 
HETATM   28  H   UNL     1      22.796  49.768  47.532  1.00  0.00     0.169 HD
BRANCH  27  29
HETATM   29  C   UNL     1      24.485  49.439  48.677  1.00  0.00     0.037 A 
HETATM   30  C   UNL     1      25.634  50.046  48.179  1.00  0.00     0.049 A 
HETATM   31  C   UNL     1      26.864  49.488  48.491  1.00  0.00     0.118 A 
HETATM   32  N   UNL     1      27.022  48.385  49.253  1.00  0.00    -0.273 NA
HETATM   33  C   UNL     1      25.895  47.814  49.722  1.00  0.00     0.118 A 
HETATM   34  C   UNL     1      24.621  48.299  49.470  1.00  0.00     0.049 A 
ENDBRANCH  27  29
ENDBRANCH   3  25
TORSDOF 11
ENDMDL
MODEL 9
REMARK VINA RESULT:      -7.3      2.665      4.451
REMARK  11 active torsions:
REMARK  status: ('A' for Active; 'I' for Inactive)
REMARK    1  A    between atoms: O_2  and  C_3 
REMARK    2  A    between atoms: C_3  and  C_4 
REMARK    3  A    between atoms: C_4  and  C_5 
REMARK    4  A    between atoms: C_5  and  O_6 
REMARK    5  A    between atoms: O_6  and  C_7 
REMARK    6  A    between atoms: C_7  and  C_9 
REMARK    7  A    between atoms: C_13  and  C_15 
REMARK    8  A    between atoms: C_17  and  C_23 
REMARK    9  A    between atoms: C_20  and  C_21 
REMARK   10  A    between atoms: C_21  and  N_22 
REMARK       I    between atoms: C_23  and  N_25 
REMARK   11  A    between atoms: N_25  and  C_26 
ROOT
HETATM    1  C   UNL     1      22.805  47.484  48.876  1.00  0.00    -0.017 A 
HETATM    2  C   UNL     1      23.892  47.322  49.761  1.00  0.00     0.030 A 
HETATM    3  C   UNL     1      24.577  46.105  49.862  1.00  0.00     0.033 A 
HETATM    4  C   UNL     1      24.181  45.026  49.074  1.00  0.00     0.017 A 
HETATM    5  C   UNL     1      23.106  45.166  48.198  1.00  0.00     0.011 A 
HETATM    6  C   UNL     1      22.415  46.389  48.073  1.00  0.00    -0.020 A 
ENDROOT
BRANCH   1   7
HETATM    7  C   UNL     1      22.169  48.810  48.798  1.00  0.00    -0.024 A 
HETATM    8  C   UNL     1      22.705  49.839  48.010  1.00  0.00     0.012 A 
HETATM    9  C   UNL     1      22.079  51.086  47.940  1.00  0.00     0.002 A 
HETATM   10  C   UNL     1      20.897  51.317  48.645  1.00  0.00     0.017 A 
HETATM   11  C   UNL     1      20.333  50.301  49.423  1.00  0.00     0.040 A 
HETATM   12  C   UNL     1      20.977  49.056  49.499  1.00  0.00     0.030 A 
BRANCH  11  13
HETATM   13  C   UNL     1      19.070  50.577  50.160  1.00  0.00     0.293 C 
HETATM   14  O   UNL     1      18.567  49.803  50.958  1.00  0.00    -0.259 OA
BRANCH  13  15
HETATM   15  O   UNL     1      18.592  51.794  49.808  1.00  0.00    -0.317 OA
BRANCH  15  16
HETATM   16  C   UNL     1      17.354  51.824  49.082  1.00  0.00     0.181 C 
BRANCH  16  17
HETATM   17  C   UNL     1      16.257  52.485  49.909  1.00  0.00     0.053 C 
BRANCH  17  18
HETATM   18  C   UNL     1      15.257  53.221  49.026  1.00  0.00     0.169 C 
BRANCH  18  19
HETATM   19  O   UNL     1      14.851  54.427  49.665  1.00  0.00    -0.396 OA
HETATM   20  C   UNL     1      14.911  54.321  51.082  1.00  0.00     0.201 C 
ENDBRANCH  18  19
ENDBRANCH  17  18
ENDBRANCH  16  17
ENDBRANCH  15  16
ENDBRANCH  13  15
ENDBRANCH  11  13
ENDBRANCH   1   7
BRANCH   6  21
HETATM   21  C   UNL     1      21.317  46.471  47.034  1.00  0.00     0.306 C 
BRANCH  21  22
HETATM   22  N   UNL     1      20.032  46.055  47.585  1.00  0.00     0.082 N 
HETATM   23  H   UNL     1      19.289  46.574  47.122  1.00  0.00     0.313 HD
HETATM   24  H   UNL     1      19.878  45.074  47.358  1.00  0.00     0.313 HD
ENDBRANCH  21  22
ENDBRANCH   6  21
BRANCH   3  25
HETATM   25  C   UNL     1      25.777  45.960  50.734  1.00  0.00     0.256 C 
HETATM   26  O   UNL     1      26.872  45.826  50.200  1.00  0.00    -0.267 OA
HETATM   27  N   UNL     1      25.519  45.973  52.094  1.00  0.00    -0.323 N 
HETATM   28  H   UNL     1      24.550  45.903  52.378  1.00  0.00     0.169 HD
BRANCH  27  29
HETATM   29  C   UNL     1      26.470  46.010  53.137  1.00  0.00     0.037 A 
HETATM   30  C   UNL     1      27.226  44.913  53.536  1.00  0.00     0.049 A 
HETATM   31  C   UNL     1      28.151  45.082  54.554  1.00  0.00     0.118 A 
HETATM   32  N   UNL     1      28.369  46.255  55.189  1.00  0.00    -0.273 NA
HETATM   33  C   UNL     1      27.624  47.302  54.786  1.00  0.00     0.118 A 
HETATM   34  C   UNL     1      26.678  47.233  53.775  1.00  0.00     0.049 A 
ENDBRANCH  27  29
ENDBRANCH   3  25
TORSDOF 11
ENDMDL
MODEL 10
REMARK VINA RESULT:      -7.3      4.485      7.836
REMARK  11 active torsions:
REMARK  status: ('A' for Active; 'I' for Inactive)
REMARK    1  A    between atoms: O_2  and  C_3 
REMARK    2  A    between atoms: C_3  and  C_4 
REMARK    3  A    between atoms: C_4  and  C_5 
REMARK    4  A    between atoms: C_5  and  O_6 
REMARK    5  A    between atoms: O_6  and  C_7 
REMARK    6  A    between atoms: C_7  and  C_9 
REMARK    7  A    between atoms: C_13  and  C_15 
REMARK    8  A    between atoms: C_17  and  C_23 
REMARK    9  A    between atoms: C_20  and  C_21 
REMARK   10  A    between atoms: C_21  and  N_22 
REMARK       I    between atoms: C_23  and  N_25 
REMARK   11  A    between atoms: N_25  and  C_26 
ROOT
HETATM    1  C   UNL     1      26.207  44.762  52.113  1.00  0.00    -0.017 A 
HETATM    2  C   UNL     1      27.079  44.835  53.220  1.00  0.00     0.030 A 
HETATM    3  C   UNL     1      27.208  46.010  53.973  1.00  0.00     0.033 A 
HETATM    4  C   UNL     1      26.460  47.134  53.625  1.00  0.00     0.017 A 
HETATM    5  C   UNL     1      25.597  47.081  52.531  1.00  0.00     0.011 A 
HETATM    6  C   UNL     1      25.444  45.901  51.773  1.00  0.00    -0.020 A 
ENDROOT
BRANCH   1   7
HETATM    7  C   UNL     1      26.097  43.476  51.405  1.00  0.00    -0.024 A 
HETATM    8  C   UNL     1      24.945  43.126  50.685  1.00  0.00     0.012 A 
HETATM    9  C   UNL     1      24.866  41.905  50.010  1.00  0.00     0.002 A 
HETATM   10  C   UNL     1      25.947  41.022  50.032  1.00  0.00     0.017 A 
HETATM   11  C   UNL     1      27.113  41.356  50.729  1.00  0.00     0.040 A 
HETATM   12  C   UNL     1      27.177  42.577  51.416  1.00  0.00     0.030 A 
BRANCH  11  13
HETATM   13  C   UNL     1      28.249  40.394  50.731  1.00  0.00     0.293 C 
HETATM   14  O   UNL     1      28.886  40.099  51.727  1.00  0.00    -0.259 OA
BRANCH  13  15
HETATM   15  O   UNL     1      28.443  39.914  49.479  1.00  0.00    -0.317 OA
BRANCH  15  16
HETATM   16  C   UNL     1      28.748  38.516  49.356  1.00  0.00     0.181 C 
BRANCH  16  17
HETATM   17  C   UNL     1      28.563  38.047  47.917  1.00  0.00     0.053 C 
BRANCH  17  18
HETATM   18  C   UNL     1      27.107  38.146  47.480  1.00  0.00     0.169 C 
BRANCH  18  19
HETATM   19  O   UNL     1      27.012  38.947  46.306  1.00  0.00    -0.396 OA
HETATM   20  C   UNL     1      28.005  38.600  45.349  1.00  0.00     0.201 C 
ENDBRANCH  18  19
ENDBRANCH  17  18
ENDBRANCH  16  17
ENDBRANCH  15  16
ENDBRANCH  13  15
ENDBRANCH  11  13
ENDBRANCH   1   7
BRANCH   6  21
HETATM   21  C   UNL     1      24.421  45.913  50.658  1.00  0.00     0.306 C 
BRANCH  21  22
HETATM   22  N   UNL     1      24.734  46.930  49.659  1.00  0.00     0.082 N 
HETATM   23  H   UNL     1      25.483  46.588  49.062  1.00  0.00     0.313 HD
HETATM   24  H   UNL     1      23.924  47.059  49.056  1.00  0.00     0.313 HD
ENDBRANCH  21  22
ENDBRANCH   6  21
BRANCH   3  25
HETATM   25  C   UNL     1      28.065  46.062  55.190  1.00  0.00     0.256 C 
HETATM   26  O   UNL     1      27.745  46.824  56.095  1.00  0.00    -0.267 OA
HETATM   27  N   UNL     1      29.173  45.233  55.163  1.00  0.00    -0.323 N 
HETATM   28  H   UNL     1      29.404  44.804  54.276  1.00  0.00     0.169 HD
BRANCH  27  29
HETATM   29  C   UNL     1      30.059  44.968  56.230  1.00  0.00     0.037 A 
HETATM   30  C   UNL     1      30.107  45.716  57.402  1.00  0.00     0.049 A 
HETATM   31  C   UNL     1      31.001  45.338  58.392  1.00  0.00     0.118 A 
HETATM   32  N   UNL     1      31.835  44.280  58.292  1.00  0.00    -0.273 NA
HETATM   33  C   UNL     1      31.771  43.572  57.147  1.00  0.00     0.118 A 
HETATM   34  C   UNL     1      30.909  43.869  56.103  1.00  0.00     0.049 A 
ENDBRANCH  27  29
ENDBRANCH   3  25
TORSDOF 11
ENDMDL
