MODEL 1
REMARK VINA RESULT:      -9.0      0.000      0.000
REMARK  7 active torsions:
REMARK  status: ('A' for Active; 'I' for Inactive)
REMARK    1  A    between atoms: C_2  and  N_3 
REMARK       I    between atoms: N_3  and  C_4 
REMARK    2  A    between atoms: C_4  and  C_5 
REMARK    3  A    between atoms: C_8  and  C_9 
REMARK       I    between atoms: C_9  and  N_10 
REMARK    4  A    between atoms: N_13  and  C_14 
REMARK    5  A    between atoms: C_15  and  O_16 
REMARK    6  A    between atoms: N_26  and  C_27 
REMARK    7  A    between atoms: C_27  and  C_28 
ROOT
HETATM    1  C   UNL     1      27.540  41.928  51.282  1.00  0.00     0.098 A 
HETATM    2  C   UNL     1      27.120  43.085  50.440  1.00  0.00     0.206 A 
HETATM    3  O   UNL     1      26.855  42.935  49.248  1.00  0.00    -0.286 OA
HETATM    4  C   UNL     1      27.058  44.426  51.087  1.00  0.00     0.098 A 
HETATM    5  C   UNL     1      27.475  44.523  52.360  1.00  0.00     0.111 A 
HETATM    6  N   UNL     1      27.975  43.468  53.114  1.00  0.00    -0.364 N 
HETATM    7  C   UNL     1      27.949  42.202  52.533  1.00  0.00     0.111 A 
ENDROOT
BRANCH   4   8
HETATM    8  C   UNL     1      26.317  45.546  50.469  1.00  0.00     0.259 C 
HETATM    9  N   UNL     1      24.937  45.565  50.506  1.00  0.00    -0.345 N 
HETATM   10  C   UNL     1      24.233  46.572  49.704  1.00  0.00     0.146 C 
HETATM   11  C   UNL     1      24.029  44.545  51.055  1.00  0.00     0.146 C 
HETATM   12  C   UNL     1      23.496  45.896  48.535  1.00  0.00     0.143 C 
HETATM   13  N   UNL     1      22.570  44.853  49.056  1.00  0.00    -0.376 N 
HETATM   14  C   UNL     1      23.234  43.852  49.920  1.00  0.00     0.143 C 
HETATM   15  O   UNL     1      26.971  46.412  49.886  1.00  0.00    -0.267 OA
BRANCH  13  16
HETATM   16  C   UNL     1      21.648  44.409  48.083  1.00  0.00     0.064 A 
HETATM   17  C   UNL     1      20.342  44.967  48.007  1.00  0.00     0.094 A 
HETATM   18  C   UNL     1      19.438  44.537  47.024  1.00  0.00     0.039 A 
HETATM   19  C   UNL     1      19.808  43.559  46.102  1.00  0.00     0.003 A 
HETATM   20  C   UNL     1      21.075  42.994  46.166  1.00  0.00     0.002 A 
HETATM   21  C   UNL     1      21.980  43.411  47.147  1.00  0.00     0.032 A 
BRANCH  17  22
HETATM   22  O   UNL     1      20.008  45.888  48.977  1.00  0.00    -0.354 OA
HETATM   23  C   UNL     1      19.875  47.241  48.568  1.00  0.00     0.210 C 
ENDBRANCH  17  22
ENDBRANCH  13  16
ENDBRANCH   4   8
BRANCH   1  24
HETATM   24  C   UNL     1      27.499  40.501  50.845  1.00  0.00     0.257 C 
HETATM   25  N   UNL     1      28.718  39.877  50.765  1.00  0.00    -0.353 N 
HETATM   26  H   UNL     1      29.544  40.417  51.029  1.00  0.00     0.163 HD
HETATM   27  O   UNL     1      26.437  39.956  50.555  1.00  0.00    -0.267 OA
BRANCH  25  28
HETATM   28  C   UNL     1      28.942  38.543  50.225  1.00  0.00     0.076 C 
HETATM   29  C   UNL     1      29.959  37.758  51.052  1.00  0.00     0.032 C 
HETATM   30  C   UNL     1      29.315  38.560  48.745  1.00  0.00     0.032 C 
ENDBRANCH  25  28
ENDBRANCH   1  24
BRANCH   6  31
HETATM   31  C   UNL     1      28.452  43.646  54.504  1.00  0.00     0.132 C 
BRANCH  31  32
HETATM   32  C   UNL     1      29.799  44.400  54.606  1.00  0.00     0.004 C 
HETATM   33  C   UNL     1      29.743  45.669  55.473  1.00  0.00     0.006 C 
HETATM   34  C   UNL     1      29.622  45.367  56.962  1.00  0.00     0.000 C 
HETATM   35  C   UNL     1      30.748  44.456  57.435  1.00  0.00     0.000 C 
HETATM   36  C   UNL     1      30.821  43.173  56.613  1.00  0.00     0.000 C 
HETATM   37  C   UNL     1      30.910  43.461  55.115  1.00  0.00     0.006 C 
ENDBRANCH  31  32
ENDBRANCH   6  31
TORSDOF 7
ENDMDL
MODEL 2
REMARK VINA RESULT:      -8.8      2.633      4.607
REMARK  7 active torsions:
REMARK  status: ('A' for Active; 'I' for Inactive)
REMARK    1  A    between atoms: C_2  and  N_3 
REMARK       I    between atoms: N_3  and  C_4 
REMARK    2  A    between atoms: C_4  and  C_5 
REMARK    3  A    between atoms: C_8  and  C_9 
REMARK       I    between atoms: C_9  and  N_10 
REMARK    4  A    between atoms: N_13  and  C_14 
REMARK    5  A    between atoms: C_15  and  O_16 
REMARK    6  A    between atoms: N_26  and  C_27 
REMARK    7  A    between atoms: C_27  and  C_28 
ROOT
HETATM    1  C   UNL     1      26.086  43.092  49.471  1.00  0.00     0.098 A 
HETATM    2  C   UNL     1      24.700  43.330  48.974  1.00  0.00     0.206 A 
HETATM    3  O   UNL     1      24.244  42.674  48.038  1.00  0.00    -0.286 OA
HETATM    4  C   UNL     1      23.901  44.401  49.634  1.00  0.00     0.098 A 
HETATM    5  C   UNL     1      24.513  45.147  50.569  1.00  0.00     0.111 A 
HETATM    6  N   UNL     1      25.841  45.004  50.955  1.00  0.00    -0.364 N 
HETATM    7  C   UNL     1      26.556  43.946  50.398  1.00  0.00     0.111 A 
ENDROOT
BRANCH   4   8
HETATM    8  C   UNL     1      22.433  44.471  49.483  1.00  0.00     0.259 C 
HETATM    9  N   UNL     1      21.877  45.271  48.504  1.00  0.00    -0.345 N 
HETATM   10  C   UNL     1      20.425  45.483  48.519  1.00  0.00     0.146 C 
HETATM   11  C   UNL     1      22.568  46.166  47.561  1.00  0.00     0.146 C 
HETATM   12  C   UNL     1      20.106  46.937  48.906  1.00  0.00     0.143 C 
HETATM   13  N   UNL     1      20.795  47.871  47.973  1.00  0.00    -0.376 N 
HETATM   14  C   UNL     1      22.255  47.649  47.885  1.00  0.00     0.143 C 
HETATM   15  O   UNL     1      21.744  43.842  50.287  1.00  0.00    -0.267 OA
BRANCH  13  16
HETATM   16  C   UNL     1      20.311  49.194  48.074  1.00  0.00     0.064 A 
HETATM   17  C   UNL     1      19.351  49.692  47.150  1.00  0.00     0.094 A 
HETATM   18  C   UNL     1      18.859  51.001  47.269  1.00  0.00     0.039 A 
HETATM   19  C   UNL     1      19.300  51.832  48.297  1.00  0.00     0.003 A 
HETATM   20  C   UNL     1      20.245  51.368  49.203  1.00  0.00     0.002 A 
HETATM   21  C   UNL     1      20.747  50.068  49.088  1.00  0.00     0.032 A 
BRANCH  17  22
HETATM   22  O   UNL     1      18.993  48.850  46.121  1.00  0.00    -0.354 OA
HETATM   23  C   UNL     1      17.676  48.318  46.146  1.00  0.00     0.210 C 
ENDBRANCH  17  22
ENDBRANCH  13  16
ENDBRANCH   4   8
BRANCH   1  24
HETATM   24  C   UNL     1      26.960  41.961  49.041  1.00  0.00     0.257 C 
HETATM   25  N   UNL     1      26.943  41.685  47.697  1.00  0.00    -0.353 N 
HETATM   26  H   UNL     1      26.365  42.279  47.100  1.00  0.00     0.163 HD
HETATM   27  O   UNL     1      27.616  41.319  49.858  1.00  0.00    -0.267 OA
BRANCH  25  28
HETATM   28  C   UNL     1      27.594  40.543  47.068  1.00  0.00     0.076 C 
HETATM   29  C   UNL     1      28.135  40.889  45.683  1.00  0.00     0.032 C 
HETATM   30  C   UNL     1      26.704  39.304  47.031  1.00  0.00     0.032 C 
ENDBRANCH  25  28
ENDBRANCH   1  24
BRANCH   6  31
HETATM   31  C   UNL     1      26.468  45.882  51.969  1.00  0.00     0.132 C 
BRANCH  31  32
HETATM   32  C   UNL     1      26.005  45.590  53.416  1.00  0.00     0.004 C 
HETATM   33  C   UNL     1      26.776  44.450  54.101  1.00  0.00     0.006 C 
HETATM   34  C   UNL     1      28.204  44.835  54.471  1.00  0.00     0.000 C 
HETATM   35  C   UNL     1      28.231  46.088  55.340  1.00  0.00     0.000 C 
HETATM   36  C   UNL     1      27.495  47.250  54.681  1.00  0.00     0.000 C 
HETATM   37  C   UNL     1      26.072  46.866  54.276  1.00  0.00     0.006 C 
ENDBRANCH  31  32
ENDBRANCH   6  31
TORSDOF 7
ENDMDL
MODEL 3
REMARK VINA RESULT:      -8.6      2.151      9.924
REMARK  7 active torsions:
REMARK  status: ('A' for Active; 'I' for Inactive)
REMARK    1  A    between atoms: C_2  and  N_3 
REMARK       I    between atoms: N_3  and  C_4 
REMARK    2  A    between atoms: C_4  and  C_5 
REMARK    3  A    between atoms: C_8  and  C_9 
REMARK       I    between atoms: C_9  and  N_10 
REMARK    4  A    between atoms: N_13  and  C_14 
REMARK    5  A    between atoms: C_15  and  O_16 
REMARK    6  A    between atoms: N_26  and  C_27 
REMARK    7  A    between atoms: C_27  and  C_28 
ROOT
HETATM    1  C   UNL     1      24.371  46.160  49.404  1.00  0.00     0.098 A 
HETATM    2  C   UNL     1      25.614  45.346  49.527  1.00  0.00     0.206 A 
HETATM    3  O   UNL     1      26.680  45.867  49.852  1.00  0.00    -0.286 OA
HETATM    4  C   UNL     1      25.522  43.891  49.218  1.00  0.00     0.098 A 
HETATM    5  C   UNL     1      24.350  43.425  48.757  1.00  0.00     0.111 A 
HETATM    6  N   UNL     1      23.220  44.202  48.533  1.00  0.00    -0.364 N 
HETATM    7  C   UNL     1      23.285  45.543  48.905  1.00  0.00     0.111 A 
ENDROOT
BRANCH   4   8
HETATM    8  C   UNL     1      26.570  42.943  49.654  1.00  0.00     0.259 C 
HETATM    9  N   UNL     1      26.700  42.625  50.991  1.00  0.00    -0.345 N 
HETATM   10  C   UNL     1      27.875  41.855  51.413  1.00  0.00     0.146 C 
HETATM   11  C   UNL     1      25.939  43.163  52.131  1.00  0.00     0.146 C 
HETATM   12  C   UNL     1      28.815  42.739  52.251  1.00  0.00     0.143 C 
HETATM   13  N   UNL     1      28.074  43.304  53.412  1.00  0.00    -0.376 N 
HETATM   14  C   UNL     1      26.848  44.039  53.031  1.00  0.00     0.143 C 
HETATM   15  O   UNL     1      27.338  42.505  48.797  1.00  0.00    -0.267 OA
BRANCH  13  16
HETATM   16  C   UNL     1      28.933  43.868  54.382  1.00  0.00     0.064 A 
HETATM   17  C   UNL     1      28.701  45.178  54.886  1.00  0.00     0.094 A 
HETATM   18  C   UNL     1      29.545  45.724  55.865  1.00  0.00     0.039 A 
HETATM   19  C   UNL     1      30.621  44.990  56.362  1.00  0.00     0.003 A 
HETATM   20  C   UNL     1      30.870  43.714  55.874  1.00  0.00     0.002 A 
HETATM   21  C   UNL     1      30.039  43.164  54.893  1.00  0.00     0.032 A 
BRANCH  17  22
HETATM   22  O   UNL     1      27.660  45.881  54.321  1.00  0.00    -0.354 OA
HETATM   23  C   UNL     1      27.529  47.249  54.681  1.00  0.00     0.210 C 
ENDBRANCH  17  22
ENDBRANCH  13  16
ENDBRANCH   4   8
BRANCH   1  24
HETATM   24  C   UNL     1      24.244  47.586  49.829  1.00  0.00     0.257 C 
HETATM   25  N   UNL     1      23.602  48.408  48.939  1.00  0.00    -0.353 N 
HETATM   26  H   UNL     1      23.243  47.987  48.080  1.00  0.00     0.163 HD
HETATM   27  O   UNL     1      24.717  47.975  50.894  1.00  0.00    -0.267 OA
BRANCH  25  28
HETATM   28  C   UNL     1      23.489  49.855  49.066  1.00  0.00     0.076 C 
HETATM   29  C   UNL     1      22.107  50.277  49.562  1.00  0.00     0.032 C 
HETATM   30  C   UNL     1      23.876  50.592  47.787  1.00  0.00     0.032 C 
ENDBRANCH  25  28
ENDBRANCH   1  24
BRANCH   6  31
HETATM   31  C   UNL     1      21.965  43.634  47.991  1.00  0.00     0.132 C 
BRANCH  31  32
HETATM   32  C   UNL     1      22.043  43.279  46.487  1.00  0.00     0.004 C 
HETATM   33  C   UNL     1      20.726  42.743  45.901  1.00  0.00     0.006 C 
HETATM   34  C   UNL     1      19.660  43.822  45.749  1.00  0.00     0.000 C 
HETATM   35  C   UNL     1      20.171  44.991  44.915  1.00  0.00     0.000 C 
HETATM   36  C   UNL     1      21.466  45.566  45.480  1.00  0.00     0.000 C 
HETATM   37  C   UNL     1      22.534  44.488  45.668  1.00  0.00     0.006 C 
ENDBRANCH  31  32
ENDBRANCH   6  31
TORSDOF 7
ENDMDL
MODEL 4
REMARK VINA RESULT:      -8.6      3.785      6.108
REMARK  7 active torsions:
REMARK  status: ('A' for Active; 'I' for Inactive)
REMARK    1  A    between atoms: C_2  and  N_3 
REMARK       I    between atoms: N_3  and  C_4 
REMARK    2  A    between atoms: C_4  and  C_5 
REMARK    3  A    between atoms: C_8  and  C_9 
REMARK       I    between atoms: C_9  and  N_10 
REMARK    4  A    between atoms: N_13  and  C_14 
REMARK    5  A    between atoms: C_15  and  O_16 
REMARK    6  A    between atoms: N_26  and  C_27 
REMARK    7  A    between atoms: C_27  and  C_28 
ROOT
HETATM    1  C   UNL     1      23.596  45.605  49.431  1.00  0.00     0.098 A 
HETATM    2  C   UNL     1      23.258  46.757  48.546  1.00  0.00     0.206 A 
HETATM    3  O   UNL     1      22.530  46.607  47.566  1.00  0.00    -0.286 OA
HETATM    4  C   UNL     1      23.852  48.083  48.877  1.00  0.00     0.098 A 
HETATM    5  C   UNL     1      24.728  48.136  49.894  1.00  0.00     0.111 A 
HETATM    6  N   UNL     1      25.134  47.043  50.651  1.00  0.00    -0.364 N 
HETATM    7  C   UNL     1      24.511  45.824  50.393  1.00  0.00     0.111 A 
ENDROOT
BRANCH   4   8
HETATM    8  C   UNL     1      23.307  49.335  48.310  1.00  0.00     0.259 C 
HETATM    9  N   UNL     1      22.143  49.874  48.821  1.00  0.00    -0.345 N 
HETATM   10  C   UNL     1      21.519  50.990  48.102  1.00  0.00     0.146 C 
HETATM   11  C   UNL     1      21.275  49.328  49.878  1.00  0.00     0.146 C 
HETATM   12  C   UNL     1      20.198  50.533  47.458  1.00  0.00     0.143 C 
HETATM   13  N   UNL     1      19.297  49.969  48.501  1.00  0.00    -0.376 N 
HETATM   14  C   UNL     1      19.914  48.879  49.289  1.00  0.00     0.143 C 
HETATM   15  O   UNL     1      23.895  49.831  47.349  1.00  0.00    -0.267 OA
BRANCH  13  16
HETATM   16  C   UNL     1      17.969  49.813  48.045  1.00  0.00     0.064 A 
HETATM   17  C   UNL     1      16.911  50.581  48.605  1.00  0.00     0.094 A 
HETATM   18  C   UNL     1      15.598  50.437  48.132  1.00  0.00     0.039 A 
HETATM   19  C   UNL     1      15.311  49.543  47.103  1.00  0.00     0.003 A 
HETATM   20  C   UNL     1      16.328  48.775  46.551  1.00  0.00     0.002 A 
HETATM   21  C   UNL     1      17.639  48.906  47.020  1.00  0.00     0.032 A 
BRANCH  17  22
HETATM   22  O   UNL     1      17.240  51.408  49.657  1.00  0.00    -0.354 OA
HETATM   23  C   UNL     1      16.367  52.496  49.924  1.00  0.00     0.210 C 
ENDBRANCH  17  22
ENDBRANCH  13  16
ENDBRANCH   4   8
BRANCH   1  24
HETATM   24  C   UNL     1      22.966  44.255  49.345  1.00  0.00     0.257 C 
HETATM   25  N   UNL     1      23.118  43.612  48.142  1.00  0.00    -0.353 N 
HETATM   26  H   UNL     1      23.662  44.086  47.419  1.00  0.00     0.163 HD
HETATM   27  O   UNL     1      22.336  43.787  50.290  1.00  0.00    -0.267 OA
BRANCH  25  28
HETATM   28  C   UNL     1      22.471  42.360  47.774  1.00  0.00     0.076 C 
HETATM   29  C   UNL     1      23.395  41.161  47.979  1.00  0.00     0.032 C 
HETATM   30  C   UNL     1      21.891  42.388  46.363  1.00  0.00     0.032 C 
ENDBRANCH  25  28
ENDBRANCH   1  24
BRANCH   6  31
HETATM   31  C   UNL     1      26.131  47.161  51.739  1.00  0.00     0.132 C 
BRANCH  31  32
HETATM   32  C   UNL     1      25.612  46.673  53.112  1.00  0.00     0.004 C 
HETATM   33  C   UNL     1      26.045  45.243  53.473  1.00  0.00     0.006 C 
HETATM   34  C   UNL     1      27.526  45.140  53.822  1.00  0.00     0.000 C 
HETATM   35  C   UNL     1      27.897  46.103  54.944  1.00  0.00     0.000 C 
HETATM   36  C   UNL     1      27.503  47.538  54.612  1.00  0.00     0.000 C 
HETATM   37  C   UNL     1      26.028  47.650  54.228  1.00  0.00     0.006 C 
ENDBRANCH  31  32
ENDBRANCH   6  31
TORSDOF 7
ENDMDL
MODEL 5
REMARK VINA RESULT:      -8.3      3.229      6.984
REMARK  7 active torsions:
REMARK  status: ('A' for Active; 'I' for Inactive)
REMARK    1  A    between atoms: C_2  and  N_3 
REMARK       I    between atoms: N_3  and  C_4 
REMARK    2  A    between atoms: C_4  and  C_5 
REMARK    3  A    between atoms: C_8  and  C_9 
REMARK       I    between atoms: C_9  and  N_10 
REMARK    4  A    between atoms: N_13  and  C_14 
REMARK    5  A    between atoms: C_15  and  O_16 
REMARK    6  A    between atoms: N_26  and  C_27 
REMARK    7  A    between atoms: C_27  and  C_28 
ROOT
HETATM    1  C   UNL     1      26.965  44.010  50.410  1.00  0.00     0.098 A 
HETATM    2  C   UNL     1      26.470  42.651  50.045  1.00  0.00     0.206 A 
HETATM    3  O   UNL     1      25.489  42.513  49.315  1.00  0.00    -0.286 OA
HETATM    4  C   UNL     1      27.186  41.475  50.615  1.00  0.00     0.098 A 
HETATM    5  C   UNL     1      28.172  41.715  51.496  1.00  0.00     0.111 A 
HETATM    6  N   UNL     1      28.564  42.977  51.926  1.00  0.00    -0.364 N 
HETATM    7  C   UNL     1      27.949  44.073  51.325  1.00  0.00     0.111 A 
ENDROOT
BRANCH   4   8
HETATM    8  C   UNL     1      27.024  40.122  50.043  1.00  0.00     0.259 C 
HETATM    9  N   UNL     1      27.753  39.751  48.931  1.00  0.00    -0.345 N 
HETATM   10  C   UNL     1      27.414  38.488  48.266  1.00  0.00     0.146 C 
HETATM   11  C   UNL     1      28.689  40.570  48.143  1.00  0.00     0.146 C 
HETATM   12  C   UNL     1      26.779  38.767  46.893  1.00  0.00     0.143 C 
HETATM   13  N   UNL     1      27.699  39.598  46.070  1.00  0.00    -0.376 N 
HETATM   14  C   UNL     1      28.112  40.855  46.733  1.00  0.00     0.143 C 
HETATM   15  O   UNL     1      26.188  39.380  50.559  1.00  0.00    -0.267 OA
BRANCH  13  16
HETATM   16  C   UNL     1      27.326  39.637  44.708  1.00  0.00     0.064 A 
HETATM   17  C   UNL     1      27.774  38.638  43.801  1.00  0.00     0.094 A 
HETATM   18  C   UNL     1      27.382  38.670  42.454  1.00  0.00     0.039 A 
HETATM   19  C   UNL     1      26.543  39.680  41.985  1.00  0.00     0.003 A 
HETATM   20  C   UNL     1      26.104  40.671  42.853  1.00  0.00     0.002 A 
HETATM   21  C   UNL     1      26.495  40.652  44.195  1.00  0.00     0.032 A 
BRANCH  17  22
HETATM   22  O   UNL     1      28.646  37.697  44.302  1.00  0.00    -0.354 OA
HETATM   23  C   UNL     1      29.925  37.605  43.690  1.00  0.00     0.210 C 
ENDBRANCH  17  22
ENDBRANCH  13  16
ENDBRANCH   4   8
BRANCH   1  24
HETATM   24  C   UNL     1      26.475  45.283  49.805  1.00  0.00     0.257 C 
HETATM   25  N   UNL     1      25.121  45.489  49.889  1.00  0.00    -0.353 N 
HETATM   26  H   UNL     1      24.564  44.783  50.373  1.00  0.00     0.163 HD
HETATM   27  O   UNL     1      27.247  46.061  49.250  1.00  0.00    -0.267 OA
BRANCH  25  28
HETATM   28  C   UNL     1      24.398  46.579  49.247  1.00  0.00     0.076 C 
HETATM   29  C   UNL     1      24.324  47.816  50.140  1.00  0.00     0.032 C 
HETATM   30  C   UNL     1      23.017  46.159  48.752  1.00  0.00     0.032 C 
ENDBRANCH  25  28
ENDBRANCH   1  24
BRANCH   6  31
HETATM   31  C   UNL     1      29.637  43.174  52.926  1.00  0.00     0.132 C 
BRANCH  31  32
HETATM   32  C   UNL     1      29.170  42.965  54.387  1.00  0.00     0.004 C 
HETATM   33  C   UNL     1      30.316  42.939  55.412  1.00  0.00     0.006 C 
HETATM   34  C   UNL     1      30.938  44.312  55.644  1.00  0.00     0.000 C 
HETATM   35  C   UNL     1      29.884  45.334  56.055  1.00  0.00     0.000 C 
HETATM   36  C   UNL     1      28.740  45.405  55.048  1.00  0.00     0.000 C 
HETATM   37  C   UNL     1      28.129  44.030  54.782  1.00  0.00     0.006 C 
ENDBRANCH  31  32
ENDBRANCH   6  31
TORSDOF 7
ENDMDL
MODEL 6
REMARK VINA RESULT:      -8.2      2.722      8.550
REMARK  7 active torsions:
REMARK  status: ('A' for Active; 'I' for Inactive)
REMARK    1  A    between atoms: C_2  and  N_3 
REMARK       I    between atoms: N_3  and  C_4 
REMARK    2  A    between atoms: C_4  and  C_5 
REMARK    3  A    between atoms: C_8  and  C_9 
REMARK       I    between atoms: C_9  and  N_10 
REMARK    4  A    between atoms: N_13  and  C_14 
REMARK    5  A    between atoms: C_15  and  O_16 
REMARK    6  A    between atoms: N_26  and  C_27 
REMARK    7  A    between atoms: C_27  and  C_28 
ROOT
HETATM    1  C   UNL     1      23.597  42.118  46.720  1.00  0.00     0.098 A 
HETATM    2  C   UNL     1      23.589  43.027  47.902  1.00  0.00     0.206 A 
HETATM    3  O   UNL     1      22.971  44.090  47.876  1.00  0.00    -0.286 OA
HETATM    4  C   UNL     1      24.373  42.613  49.100  1.00  0.00     0.098 A 
HETATM    5  C   UNL     1      25.113  41.496  49.004  1.00  0.00     0.111 A 
HETATM    6  N   UNL     1      25.214  40.706  47.866  1.00  0.00    -0.364 N 
HETATM    7  C   UNL     1      24.412  41.049  46.779  1.00  0.00     0.111 A 
ENDROOT
BRANCH   4   8
HETATM    8  C   UNL     1      24.143  43.231  50.423  1.00  0.00     0.259 C 
HETATM    9  N   UNL     1      25.052  44.138  50.929  1.00  0.00    -0.345 N 
HETATM   10  C   UNL     1      24.905  44.568  52.324  1.00  0.00     0.146 C 
HETATM   11  C   UNL     1      26.329  44.571  50.338  1.00  0.00     0.146 C 
HETATM   12  C   UNL     1      26.053  44.000  53.177  1.00  0.00     0.143 C 
HETATM   13  N   UNL     1      27.362  44.416  52.603  1.00  0.00    -0.376 N 
HETATM   14  C   UNL     1      27.524  44.053  51.177  1.00  0.00     0.143 C 
HETATM   15  O   UNL     1      23.154  42.866  51.060  1.00  0.00    -0.267 OA
BRANCH  13  16
HETATM   16  C   UNL     1      28.439  44.195  53.489  1.00  0.00     0.064 A 
HETATM   17  C   UNL     1      28.570  44.958  54.682  1.00  0.00     0.094 A 
HETATM   18  C   UNL     1      29.630  44.719  55.569  1.00  0.00     0.039 A 
HETATM   19  C   UNL     1      30.569  43.726  55.297  1.00  0.00     0.003 A 
HETATM   20  C   UNL     1      30.466  42.978  54.132  1.00  0.00     0.002 A 
HETATM   21  C   UNL     1      29.417  43.214  53.238  1.00  0.00     0.032 A 
BRANCH  17  22
HETATM   22  O   UNL     1      27.648  45.964  54.874  1.00  0.00    -0.354 OA
HETATM   23  C   UNL     1      28.140  47.296  54.916  1.00  0.00     0.210 C 
ENDBRANCH  17  22
ENDBRANCH  13  16
ENDBRANCH   4   8
BRANCH   1  24
HETATM   24  C   UNL     1      22.743  42.292  45.508  1.00  0.00     0.257 C 
HETATM   25  N   UNL     1      22.862  43.504  44.877  1.00  0.00    -0.353 N 
HETATM   26  H   UNL     1      23.532  44.174  45.260  1.00  0.00     0.163 HD
HETATM   27  O   UNL     1      21.974  41.408  45.141  1.00  0.00    -0.267 OA
BRANCH  25  28
HETATM   28  C   UNL     1      22.030  43.958  43.770  1.00  0.00     0.076 C 
HETATM   29  C   UNL     1      22.656  43.632  42.416  1.00  0.00     0.032 C 
HETATM   30  C   UNL     1      21.660  45.435  43.878  1.00  0.00     0.032 C 
ENDBRANCH  25  28
ENDBRANCH   1  24
BRANCH   6  31
HETATM   31  C   UNL     1      26.075  39.503  47.812  1.00  0.00     0.132 C 
BRANCH  31  32
HETATM   32  C   UNL     1      27.469  39.764  47.194  1.00  0.00     0.004 C 
HETATM   33  C   UNL     1      28.485  40.372  48.176  1.00  0.00     0.006 C 
HETATM   34  C   UNL     1      28.966  39.376  49.226  1.00  0.00     0.000 C 
HETATM   35  C   UNL     1      29.544  38.124  48.576  1.00  0.00     0.000 C 
HETATM   36  C   UNL     1      28.554  37.479  47.611  1.00  0.00     0.000 C 
HETATM   37  C   UNL     1      28.039  38.475  46.573  1.00  0.00     0.006 C 
ENDBRANCH  31  32
ENDBRANCH   6  31
TORSDOF 7
ENDMDL
MODEL 7
REMARK VINA RESULT:      -8.2      2.526      6.441
REMARK  7 active torsions:
REMARK  status: ('A' for Active; 'I' for Inactive)
REMARK    1  A    between atoms: C_2  and  N_3 
REMARK       I    between atoms: N_3  and  C_4 
REMARK    2  A    between atoms: C_4  and  C_5 
REMARK    3  A    between atoms: C_8  and  C_9 
REMARK       I    between atoms: C_9  and  N_10 
REMARK    4  A    between atoms: N_13  and  C_14 
REMARK    5  A    between atoms: C_15  and  O_16 
REMARK    6  A    between atoms: N_26  and  C_27 
REMARK    7  A    between atoms: C_27  and  C_28 
ROOT
HETATM    1  C   UNL     1      26.557  43.345  52.056  1.00  0.00     0.098 A 
HETATM    2  C   UNL     1      25.154  43.675  51.672  1.00  0.00     0.206 A 
HETATM    3  O   UNL     1      24.586  44.660  52.142  1.00  0.00    -0.286 OA
HETATM    4  C   UNL     1      24.461  42.757  50.724  1.00  0.00     0.098 A 
HETATM    5  C   UNL     1      25.111  41.642  50.350  1.00  0.00     0.111 A 
HETATM    6  N   UNL     1      26.375  41.273  50.794  1.00  0.00    -0.364 N 
HETATM    7  C   UNL     1      27.051  42.176  51.611  1.00  0.00     0.111 A 
ENDROOT
BRANCH   4   8
HETATM    8  C   UNL     1      23.239  43.173  50.003  1.00  0.00     0.259 C 
HETATM    9  N   UNL     1      23.302  44.185  49.066  1.00  0.00    -0.345 N 
HETATM   10  C   UNL     1      22.044  44.715  48.528  1.00  0.00     0.146 C 
HETATM   11  C   UNL     1      24.466  45.004  48.689  1.00  0.00     0.146 C 
HETATM   12  C   UNL     1      21.813  46.149  49.036  1.00  0.00     0.143 C 
HETATM   13  N   UNL     1      22.977  47.005  48.675  1.00  0.00    -0.376 N 
HETATM   14  C   UNL     1      24.273  46.472  49.149  1.00  0.00     0.143 C 
HETATM   15  O   UNL     1      22.179  42.626  50.310  1.00  0.00    -0.267 OA
BRANCH  13  16
HETATM   16  C   UNL     1      22.708  48.383  48.834  1.00  0.00     0.064 A 
HETATM   17  C   UNL     1      23.747  49.346  48.722  1.00  0.00     0.094 A 
HETATM   18  C   UNL     1      23.469  50.714  48.860  1.00  0.00     0.039 A 
HETATM   19  C   UNL     1      22.168  51.151  49.102  1.00  0.00     0.003 A 
HETATM   20  C   UNL     1      21.141  50.225  49.226  1.00  0.00     0.002 A 
HETATM   21  C   UNL     1      21.409  48.859  49.098  1.00  0.00     0.032 A 
BRANCH  17  22
HETATM   22  O   UNL     1      25.023  48.858  48.538  1.00  0.00    -0.354 OA
HETATM   23  C   UNL     1      26.013  49.777  48.101  1.00  0.00     0.210 C 
ENDBRANCH  17  22
ENDBRANCH  13  16
ENDBRANCH   4   8
BRANCH   1  24
HETATM   24  C   UNL     1      27.449  44.234  52.858  1.00  0.00     0.257 C 
HETATM   25  N   UNL     1      26.805  45.127  53.676  1.00  0.00    -0.353 N 
HETATM   26  H   UNL     1      25.784  45.100  53.695  1.00  0.00     0.163 HD
HETATM   27  O   UNL     1      28.671  44.171  52.750  1.00  0.00    -0.267 OA
BRANCH  25  28
HETATM   28  C   UNL     1      27.455  46.186  54.436  1.00  0.00     0.076 C 
HETATM   29  C   UNL     1      28.034  45.670  55.752  1.00  0.00     0.032 C 
HETATM   30  C   UNL     1      26.550  47.395  54.656  1.00  0.00     0.032 C 
ENDBRANCH  25  28
ENDBRANCH   1  24
BRANCH   6  31
HETATM   31  C   UNL     1      27.024  40.012  50.371  1.00  0.00     0.132 C 
BRANCH  31  32
HETATM   32  C   UNL     1      28.328  40.224  49.566  1.00  0.00     0.004 C 
HETATM   33  C   UNL     1      29.221  38.975  49.481  1.00  0.00     0.006 C 
HETATM   34  C   UNL     1      28.650  37.897  48.566  1.00  0.00     0.000 C 
HETATM   35  C   UNL     1      28.373  38.445  47.171  1.00  0.00     0.000 C 
HETATM   36  C   UNL     1      27.469  39.673  47.213  1.00  0.00     0.000 C 
HETATM   37  C   UNL     1      28.015  40.749  48.152  1.00  0.00     0.006 C 
ENDBRANCH  31  32
ENDBRANCH   6  31
TORSDOF 7
ENDMDL
MODEL 8
REMARK VINA RESULT:      -8.0      2.937      7.415
REMARK  7 active torsions:
REMARK  status: ('A' for Active; 'I' for Inactive)
REMARK    1  A    between atoms: C_2  and  N_3 
REMARK       I    between atoms: N_3  and  C_4 
REMARK    2  A    between atoms: C_4  and  C_5 
REMARK    3  A    between atoms: C_8  and  C_9 
REMARK       I    between atoms: C_9  and  N_10 
REMARK    4  A    between atoms: N_13  and  C_14 
REMARK    5  A    between atoms: C_15  and  O_16 
REMARK    6  A    between atoms: N_26  and  C_27 
REMARK    7  A    between atoms: C_27  and  C_28 
ROOT
HETATM    1  C   UNL     1      24.322  46.382  50.267  1.00  0.00     0.098 A 
HETATM    2  C   UNL     1      23.485  45.396  49.524  1.00  0.00     0.206 A 
HETATM    3  O   UNL     1      22.707  45.764  48.645  1.00  0.00    -0.286 OA
HETATM    4  C   UNL     1      23.607  43.959  49.902  1.00  0.00     0.098 A 
HETATM    5  C   UNL     1      24.391  43.656  50.950  1.00  0.00     0.111 A 
HETATM    6  N   UNL     1      25.085  44.583  51.717  1.00  0.00    -0.364 N 
HETATM    7  C   UNL     1      25.036  45.914  51.307  1.00  0.00     0.111 A 
ENDROOT
BRANCH   4   8
HETATM    8  C   UNL     1      23.122  42.884  49.011  1.00  0.00     0.259 C 
HETATM    9  N   UNL     1      23.881  41.746  48.826  1.00  0.00    -0.345 N 
HETATM   10  C   UNL     1      23.476  40.802  47.778  1.00  0.00     0.146 C 
HETATM   11  C   UNL     1      25.214  41.443  49.374  1.00  0.00     0.146 C 
HETATM   12  C   UNL     1      24.494  40.824  46.624  1.00  0.00     0.143 C 
HETATM   13  N   UNL     1      25.856  40.525  47.146  1.00  0.00    -0.376 N 
HETATM   14  C   UNL     1      26.277  41.420  48.247  1.00  0.00     0.143 C 
HETATM   15  O   UNL     1      22.062  43.072  48.413  1.00  0.00    -0.267 OA
BRANCH  13  16
HETATM   16  C   UNL     1      26.778  40.228  46.118  1.00  0.00     0.064 A 
HETATM   17  C   UNL     1      27.475  38.989  46.100  1.00  0.00     0.094 A 
HETATM   18  C   UNL     1      28.374  38.692  45.064  1.00  0.00     0.039 A 
HETATM   19  C   UNL     1      28.594  39.605  44.034  1.00  0.00     0.003 A 
HETATM   20  C   UNL     1      27.932  40.825  44.041  1.00  0.00     0.002 A 
HETATM   21  C   UNL     1      27.040  41.134  45.072  1.00  0.00     0.032 A 
BRANCH  17  22
HETATM   22  O   UNL     1      27.264  38.148  47.170  1.00  0.00    -0.354 OA
HETATM   23  C   UNL     1      28.338  37.979  48.084  1.00  0.00     0.210 C 
ENDBRANCH  17  22
ENDBRANCH  13  16
ENDBRANCH   4   8
BRANCH   1  24
HETATM   24  C   UNL     1      24.448  47.826  49.912  1.00  0.00     0.257 C 
HETATM   25  N   UNL     1      23.263  48.485  49.705  1.00  0.00    -0.353 N 
HETATM   26  H   UNL     1      22.399  47.955  49.831  1.00  0.00     0.163 HD
HETATM   27  O   UNL     1      25.550  48.357  49.792  1.00  0.00    -0.267 OA
BRANCH  25  28
HETATM   28  C   UNL     1      23.138  49.849  49.209  1.00  0.00     0.076 C 
HETATM   29  C   UNL     1      21.919  50.558  49.795  1.00  0.00     0.032 C 
HETATM   30  C   UNL     1      23.154  49.926  47.685  1.00  0.00     0.032 C 
ENDBRANCH  25  28
ENDBRANCH   1  24
BRANCH   6  31
HETATM   31  C   UNL     1      25.907  44.188  52.883  1.00  0.00     0.132 C 
BRANCH  31  32
HETATM   32  C   UNL     1      27.400  44.570  52.749  1.00  0.00     0.004 C 
HETATM   33  C   UNL     1      28.214  44.374  54.038  1.00  0.00     0.006 C 
HETATM   34  C   UNL     1      28.460  42.906  54.370  1.00  0.00     0.000 C 
HETATM   35  C   UNL     1      29.129  42.182  53.208  1.00  0.00     0.000 C 
HETATM   36  C   UNL     1      28.336  42.333  51.914  1.00  0.00     0.000 C 
HETATM   37  C   UNL     1      28.055  43.800  51.587  1.00  0.00     0.006 C 
ENDBRANCH  31  32
ENDBRANCH   6  31
TORSDOF 7
ENDMDL
MODEL 9
REMARK VINA RESULT:      -7.9      2.393      8.858
REMARK  7 active torsions:
REMARK  status: ('A' for Active; 'I' for Inactive)
REMARK    1  A    between atoms: C_2  and  N_3 
REMARK       I    between atoms: N_3  and  C_4 
REMARK    2  A    between atoms: C_4  and  C_5 
REMARK    3  A    between atoms: C_8  and  C_9 
REMARK       I    between atoms: C_9  and  N_10 
REMARK    4  A    between atoms: N_13  and  C_14 
REMARK    5  A    between atoms: C_15  and  O_16 
REMARK    6  A    between atoms: N_26  and  C_27 
REMARK    7  A    between atoms: C_27  and  C_28 
ROOT
HETATM    1  C   UNL     1      25.401  40.724  47.739  1.00  0.00     0.098 A 
HETATM    2  C   UNL     1      25.000  41.302  49.054  1.00  0.00     0.206 A 
HETATM    3  O   UNL     1      25.418  40.823  50.107  1.00  0.00    -0.286 OA
HETATM    4  C   UNL     1      24.059  42.458  49.044  1.00  0.00     0.098 A 
HETATM    5  C   UNL     1      23.559  42.844  47.859  1.00  0.00     0.111 A 
HETATM    6  N   UNL     1      23.842  42.236  46.642  1.00  0.00    -0.364 N 
HETATM    7  C   UNL     1      24.787  41.212  46.646  1.00  0.00     0.111 A 
ENDROOT
BRANCH   4   8
HETATM    8  C   UNL     1      23.891  43.324  50.231  1.00  0.00     0.259 C 
HETATM    9  N   UNL     1      24.910  44.174  50.614  1.00  0.00    -0.345 N 
HETATM   10  C   UNL     1      24.796  44.857  51.907  1.00  0.00     0.146 C 
HETATM   11  C   UNL     1      26.247  44.319  50.015  1.00  0.00     0.146 C 
HETATM   12  C   UNL     1      25.835  44.297  52.895  1.00  0.00     0.143 C 
HETATM   13  N   UNL     1      27.202  44.425  52.316  1.00  0.00    -0.376 N 
HETATM   14  C   UNL     1      27.340  43.799  50.983  1.00  0.00     0.143 C 
HETATM   15  O   UNL     1      22.849  43.214  50.876  1.00  0.00    -0.267 OA
BRANCH  13  16
HETATM   16  C   UNL     1      28.219  44.218  53.275  1.00  0.00     0.064 A 
HETATM   17  C   UNL     1      28.358  45.091  54.389  1.00  0.00     0.094 A 
HETATM   18  C   UNL     1      29.357  44.868  55.348  1.00  0.00     0.039 A 
HETATM   19  C   UNL     1      30.225  43.784  55.227  1.00  0.00     0.003 A 
HETATM   20  C   UNL     1      30.113  42.927  54.141  1.00  0.00     0.002 A 
HETATM   21  C   UNL     1      29.125  43.146  53.175  1.00  0.00     0.032 A 
BRANCH  17  22
HETATM   22  O   UNL     1      27.512  46.177  54.430  1.00  0.00    -0.354 OA
HETATM   23  C   UNL     1      28.024  47.378  54.991  1.00  0.00     0.210 C 
ENDBRANCH  17  22
ENDBRANCH  13  16
ENDBRANCH   4   8
BRANCH   1  24
HETATM   24  C   UNL     1      26.453  39.680  47.555  1.00  0.00     0.257 C 
HETATM   25  N   UNL     1      26.640  38.842  48.624  1.00  0.00    -0.353 N 
HETATM   26  H   UNL     1      26.040  38.975  49.440  1.00  0.00     0.163 HD
HETATM   27  O   UNL     1      27.111  39.618  46.520  1.00  0.00    -0.267 OA
BRANCH  25  28
HETATM   28  C   UNL     1      27.701  37.849  48.735  1.00  0.00     0.076 C 
HETATM   29  C   UNL     1      27.307  36.697  49.657  1.00  0.00     0.032 C 
HETATM   30  C   UNL     1      29.040  38.460  49.139  1.00  0.00     0.032 C 
ENDBRANCH  25  28
ENDBRANCH   1  24
BRANCH   6  31
HETATM   31  C   UNL     1      23.230  42.687  45.372  1.00  0.00     0.132 C 
BRANCH  31  32
HETATM   32  C   UNL     1      22.153  41.722  44.824  1.00  0.00     0.004 C 
HETATM   33  C   UNL     1      20.938  41.550  45.750  1.00  0.00     0.006 C 
HETATM   34  C   UNL     1      20.038  42.780  45.787  1.00  0.00     0.000 C 
HETATM   35  C   UNL     1      19.582  43.174  44.387  1.00  0.00     0.000 C 
HETATM   36  C   UNL     1      20.763  43.378  43.443  1.00  0.00     0.000 C 
HETATM   37  C   UNL     1      21.691  42.163  43.421  1.00  0.00     0.006 C 
ENDBRANCH  31  32
ENDBRANCH   6  31
TORSDOF 7
ENDMDL
MODEL 10
REMARK VINA RESULT:      -7.8      3.312      7.311
REMARK  7 active torsions:
REMARK  status: ('A' for Active; 'I' for Inactive)
REMARK    1  A    between atoms: C_2  and  N_3 
REMARK       I    between atoms: N_3  and  C_4 
REMARK    2  A    between atoms: C_4  and  C_5 
REMARK    3  A    between atoms: C_8  and  C_9 
REMARK       I    between atoms: C_9  and  N_10 
REMARK    4  A    between atoms: N_13  and  C_14 
REMARK    5  A    between atoms: C_15  and  O_16 
REMARK    6  A    between atoms: N_26  and  C_27 
REMARK    7  A    between atoms: C_27  and  C_28 
ROOT
HETATM    1  C   UNL     1      28.066  45.067  53.922  1.00  0.00     0.098 A 
HETATM    2  C   UNL     1      28.519  43.731  53.439  1.00  0.00     0.206 A 
HETATM    3  O   UNL     1      29.573  43.239  53.841  1.00  0.00    -0.286 OA
HETATM    4  C   UNL     1      27.666  43.029  52.438  1.00  0.00     0.098 A 
HETATM    5  C   UNL     1      26.594  43.686  51.965  1.00  0.00     0.111 A 
HETATM    6  N   UNL     1      26.230  44.977  52.328  1.00  0.00    -0.364 N 
HETATM    7  C   UNL     1      26.981  45.594  53.326  1.00  0.00     0.111 A 
ENDROOT
BRANCH   4   8
HETATM    8  C   UNL     1      27.815  41.582  52.178  1.00  0.00     0.259 C 
HETATM    9  N   UNL     1      28.017  41.129  50.889  1.00  0.00    -0.345 N 
HETATM   10  C   UNL     1      27.948  39.685  50.639  1.00  0.00     0.146 C 
HETATM   11  C   UNL     1      28.053  41.916  49.645  1.00  0.00     0.146 C 
HETATM   12  C   UNL     1      26.693  39.350  49.815  1.00  0.00     0.143 C 
HETATM   13  N   UNL     1      26.696  40.134  48.549  1.00  0.00    -0.376 N 
HETATM   14  C   UNL     1      26.824  41.593  48.758  1.00  0.00     0.143 C 
HETATM   15  O   UNL     1      27.699  40.814  53.134  1.00  0.00    -0.267 OA
BRANCH  13  16
HETATM   16  C   UNL     1      25.749  39.660  47.614  1.00  0.00     0.064 A 
HETATM   17  C   UNL     1      26.096  38.654  46.671  1.00  0.00     0.094 A 
HETATM   18  C   UNL     1      25.144  38.172  45.760  1.00  0.00     0.039 A 
HETATM   19  C   UNL     1      23.842  38.669  45.768  1.00  0.00     0.003 A 
HETATM   20  C   UNL     1      23.486  39.660  46.673  1.00  0.00     0.002 A 
HETATM   21  C   UNL     1      24.430  40.152  47.581  1.00  0.00     0.032 A 
BRANCH  17  22
HETATM   22  O   UNL     1      27.409  38.239  46.669  1.00  0.00    -0.354 OA
HETATM   23  C   UNL     1      27.658  36.869  46.947  1.00  0.00     0.210 C 
ENDBRANCH  17  22
ENDBRANCH  13  16
ENDBRANCH   4   8
BRANCH   1  24
HETATM   24  C   UNL     1      28.705  45.830  55.034  1.00  0.00     0.257 C 
HETATM   25  N   UNL     1      29.480  45.085  55.886  1.00  0.00    -0.353 N 
HETATM   26  H   UNL     1      29.581  44.088  55.685  1.00  0.00     0.163 HD
HETATM   27  O   UNL     1      28.510  47.035  55.172  1.00  0.00    -0.267 OA
BRANCH  25  28
HETATM   28  C   UNL     1      30.080  45.577  57.120  1.00  0.00     0.076 C 
HETATM   29  C   UNL     1      31.063  44.570  57.714  1.00  0.00     0.032 C 
HETATM   30  C   UNL     1      29.041  46.020  58.145  1.00  0.00     0.032 C 
ENDBRANCH  25  28
ENDBRANCH   1  24
BRANCH   6  31
HETATM   31  C   UNL     1      25.054  45.661  51.743  1.00  0.00     0.132 C 
BRANCH  31  32
HETATM   32  C   UNL     1      25.082  45.733  50.198  1.00  0.00     0.004 C 
HETATM   33  C   UNL     1      23.882  46.472  49.584  1.00  0.00     0.006 C 
HETATM   34  C   UNL     1      23.933  47.980  49.809  1.00  0.00     0.000 C 
HETATM   35  C   UNL     1      25.239  48.571  49.292  1.00  0.00     0.000 C 
HETATM   36  C   UNL     1      26.455  47.878  49.898  1.00  0.00     0.000 C 
HETATM   37  C   UNL     1      26.399  46.362  49.707  1.00  0.00     0.006 C 
ENDBRANCH  31  32
ENDBRANCH   6  31
TORSDOF 7
ENDMDL
