MODEL 1
REMARK VINA RESULT:      -8.1      0.000      0.000
REMARK  8 active torsions:
REMARK  status: ('A' for Active; 'I' for Inactive)
REMARK    1  A    between atoms: C_2  and  C_3 
REMARK    2  A    between atoms: C_3  and  O_4 
REMARK    3  A    between atoms: O_4  and  C_5 
REMARK    4  A    between atoms: C_6  and  O_7 
REMARK    5  A    between atoms: O_7  and  C_8 
REMARK    6  A    between atoms: C_8  and  C_9 
REMARK    7  A    between atoms: C_12  and  N_13 
REMARK       I    between atoms: N_13  and  C_14 
REMARK    8  A    between atoms: C_14  and  C_15 
ROOT
HETATM    1  N   UNL     1      26.165  46.000  52.399  1.00  0.00    -0.322 N 
HETATM    2  C   UNL     1      25.988  45.323  53.589  1.00  0.00     0.277 C 
HETATM    3  O   UNL     1      25.008  44.712  53.979  1.00  0.00    -0.266 OA
HETATM    4  H   UNL     1      27.027  46.537  52.347  1.00  0.00     0.169 HD
ENDROOT
BRANCH   1   5
HETATM    5  C   UNL     1      25.262  46.124  51.330  1.00  0.00     0.037 A 
HETATM    6  C   UNL     1      24.785  47.347  50.848  1.00  0.00     0.069 A 
HETATM    7  C   UNL     1      23.892  47.391  49.768  1.00  0.00     0.104 A 
HETATM    8  C   UNL     1      23.468  46.194  49.160  1.00  0.00     0.102 A 
HETATM    9  C   UNL     1      23.934  44.973  49.653  1.00  0.00     0.042 A 
HETATM   10  C   UNL     1      24.824  44.941  50.728  1.00  0.00     0.032 A 
BRANCH   7  11
HETATM   11  O   UNL     1      23.386  48.549  49.227  1.00  0.00    -0.348 OA
BRANCH  11  12
HETATM   12  C   UNL     1      24.285  49.419  48.544  1.00  0.00     0.175 C 
BRANCH  12  13
HETATM   13  C   UNL     1      23.476  50.460  47.776  1.00  0.00     0.022 C 
HETATM   14  C   UNL     1      22.303  50.999  48.582  1.00  0.00     0.007 C 
ENDBRANCH  12  13
ENDBRANCH  11  12
ENDBRANCH   7  11
BRANCH   8  15
HETATM   15  O   UNL     1      22.596  46.322  48.108  1.00  0.00    -0.348 OA
BRANCH  15  16
HETATM   16  C   UNL     1      21.282  45.792  48.269  1.00  0.00     0.175 C 
BRANCH  16  17
HETATM   17  C   UNL     1      20.319  46.965  48.430  1.00  0.00     0.022 C 
HETATM   18  C   UNL     1      20.462  47.971  47.301  1.00  0.00     0.007 C 
ENDBRANCH  16  17
ENDBRANCH  15  16
ENDBRANCH   8  15
ENDBRANCH   1   5
BRANCH   2  19
HETATM   19  C   UNL     1      27.225  45.433  54.483  1.00  0.00     0.156 A 
HETATM   20  N   UNL     1      27.235  46.450  55.301  1.00  0.00    -0.166 NA
HETATM   21  N   UNL     1      28.308  46.599  56.125  1.00  0.00    -0.242 N 
HETATM   22  C   UNL     1      29.400  45.766  56.191  1.00  0.00     0.272 A 
HETATM   23  H   UNL     1      28.283  47.377  56.779  1.00  0.00     0.192 HD
HETATM   24  O   UNL     1      30.320  45.955  56.977  1.00  0.00    -0.266 OA
HETATM   25  C   UNL     1      29.410  44.636  55.248  1.00  0.00     0.046 A 
HETATM   26  C   UNL     1      28.332  44.458  54.380  1.00  0.00     0.016 A 
HETATM   27  C   UNL     1      30.505  43.762  55.216  1.00  0.00     0.018 A 
HETATM   28  C   UNL     1      28.361  43.404  53.460  1.00  0.00     0.015 A 
HETATM   29  C   UNL     1      29.454  42.530  53.428  1.00  0.00     0.001 A 
HETATM   30  C   UNL     1      30.522  42.708  54.305  1.00  0.00     0.001 A 
ENDBRANCH   2  19
TORSDOF 8
ENDMDL
MODEL 2
REMARK VINA RESULT:      -8.0      2.188      9.341
REMARK  8 active torsions:
REMARK  status: ('A' for Active; 'I' for Inactive)
REMARK    1  A    between atoms: C_2  and  C_3 
REMARK    2  A    between atoms: C_3  and  O_4 
REMARK    3  A    between atoms: O_4  and  C_5 
REMARK    4  A    between atoms: C_6  and  O_7 
REMARK    5  A    between atoms: O_7  and  C_8 
REMARK    6  A    between atoms: C_8  and  C_9 
REMARK    7  A    between atoms: C_12  and  N_13 
REMARK       I    between atoms: N_13  and  C_14 
REMARK    8  A    between atoms: C_14  and  C_15 
ROOT
HETATM    1  N   UNL     1      24.574  46.275  51.288  1.00  0.00    -0.322 N 
HETATM    2  C   UNL     1      24.811  46.264  49.928  1.00  0.00     0.277 C 
HETATM    3  O   UNL     1      25.845  46.004  49.338  1.00  0.00    -0.266 OA
HETATM    4  H   UNL     1      23.662  46.641  51.551  1.00  0.00     0.169 HD
ENDROOT
BRANCH   1   5
HETATM    5  C   UNL     1      25.466  45.959  52.326  1.00  0.00     0.037 A 
HETATM    6  C   UNL     1      25.930  44.667  52.590  1.00  0.00     0.069 A 
HETATM    7  C   UNL     1      26.830  44.431  53.640  1.00  0.00     0.104 A 
HETATM    8  C   UNL     1      27.273  45.504  54.437  1.00  0.00     0.102 A 
HETATM    9  C   UNL     1      26.796  46.791  54.181  1.00  0.00     0.042 A 
HETATM   10  C   UNL     1      25.901  47.014  53.132  1.00  0.00     0.032 A 
BRANCH   7  11
HETATM   11  O   UNL     1      27.344  43.197  53.959  1.00  0.00    -0.348 OA
BRANCH  11  12
HETATM   12  C   UNL     1      28.006  42.460  52.934  1.00  0.00     0.175 C 
BRANCH  12  13
HETATM   13  C   UNL     1      29.367  43.099  52.668  1.00  0.00     0.022 C 
HETATM   14  C   UNL     1      30.325  42.941  53.840  1.00  0.00     0.007 C 
ENDBRANCH  12  13
ENDBRANCH  11  12
ENDBRANCH   7  11
BRANCH   8  15
HETATM   15  O   UNL     1      28.154  45.191  55.442  1.00  0.00    -0.348 OA
BRANCH  15  16
HETATM   16  C   UNL     1      28.906  46.255  56.020  1.00  0.00     0.175 C 
BRANCH  16  17
HETATM   17  C   UNL     1      30.188  45.665  56.598  1.00  0.00     0.022 C 
HETATM   18  C   UNL     1      30.246  45.812  58.109  1.00  0.00     0.007 C 
ENDBRANCH  16  17
ENDBRANCH  15  16
ENDBRANCH   8  15
ENDBRANCH   1   5
BRANCH   2  19
HETATM   19  C   UNL     1      23.564  46.671  49.140  1.00  0.00     0.156 A 
HETATM   20  N   UNL     1      22.770  45.691  48.803  1.00  0.00    -0.166 NA
HETATM   21  N   UNL     1      21.642  45.992  48.103  1.00  0.00    -0.242 N 
HETATM   22  C   UNL     1      21.242  47.248  47.713  1.00  0.00     0.272 A 
HETATM   23  H   UNL     1      21.018  45.221  47.880  1.00  0.00     0.192 HD
HETATM   24  O   UNL     1      20.198  47.441  47.102  1.00  0.00    -0.266 OA
HETATM   25  C   UNL     1      22.150  48.354  48.060  1.00  0.00     0.046 A 
HETATM   26  C   UNL     1      23.321  48.082  48.768  1.00  0.00     0.016 A 
HETATM   27  C   UNL     1      21.842  49.661  47.663  1.00  0.00     0.018 A 
HETATM   28  C   UNL     1      24.200  49.130  49.065  1.00  0.00     0.015 A 
HETATM   29  C   UNL     1      23.893  50.436  48.669  1.00  0.00     0.001 A 
HETATM   30  C   UNL     1      22.715  50.702  47.972  1.00  0.00     0.001 A 
ENDBRANCH   2  19
TORSDOF 8
ENDMDL
MODEL 3
REMARK VINA RESULT:      -8.0      2.069      9.097
REMARK  8 active torsions:
REMARK  status: ('A' for Active; 'I' for Inactive)
REMARK    1  A    between atoms: C_2  and  C_3 
REMARK    2  A    between atoms: C_3  and  O_4 
REMARK    3  A    between atoms: O_4  and  C_5 
REMARK    4  A    between atoms: C_6  and  O_7 
REMARK    5  A    between atoms: O_7  and  C_8 
REMARK    6  A    between atoms: C_8  and  C_9 
REMARK    7  A    between atoms: C_12  and  N_13 
REMARK       I    between atoms: N_13  and  C_14 
REMARK    8  A    between atoms: C_14  and  C_15 
ROOT
HETATM    1  N   UNL     1      25.124  46.920  51.929  1.00  0.00    -0.322 N 
HETATM    2  C   UNL     1      25.450  47.132  50.605  1.00  0.00     0.277 C 
HETATM    3  O   UNL     1      26.535  47.017  50.060  1.00  0.00    -0.266 OA
HETATM    4  H   UNL     1      24.177  47.197  52.176  1.00  0.00     0.169 HD
ENDROOT
BRANCH   1   5
HETATM    5  C   UNL     1      25.963  46.491  52.971  1.00  0.00     0.037 A 
HETATM    6  C   UNL     1      26.136  45.152  53.333  1.00  0.00     0.069 A 
HETATM    7  C   UNL     1      27.001  44.800  54.379  1.00  0.00     0.104 A 
HETATM    8  C   UNL     1      27.705  45.803  55.074  1.00  0.00     0.102 A 
HETATM    9  C   UNL     1      27.519  47.141  54.720  1.00  0.00     0.042 A 
HETATM   10  C   UNL     1      26.655  47.480  53.676  1.00  0.00     0.032 A 
BRANCH   7  11
HETATM   11  O   UNL     1      27.237  43.510  54.790  1.00  0.00    -0.348 OA
BRANCH  11  12
HETATM   12  C   UNL     1      27.794  42.597  53.848  1.00  0.00     0.175 C 
BRANCH  12  13
HETATM   13  C   UNL     1      29.294  42.476  54.104  1.00  0.00     0.022 C 
HETATM   14  C   UNL     1      30.128  43.010  52.949  1.00  0.00     0.007 C 
ENDBRANCH  12  13
ENDBRANCH  11  12
ENDBRANCH   7  11
BRANCH   8  15
HETATM   15  O   UNL     1      28.532  45.376  56.082  1.00  0.00    -0.348 OA
BRANCH  15  16
HETATM   16  C   UNL     1      29.928  45.635  55.948  1.00  0.00     0.175 C 
BRANCH  16  17
HETATM   17  C   UNL     1      30.636  45.034  57.158  1.00  0.00     0.022 C 
HETATM   18  C   UNL     1      31.394  43.769  56.798  1.00  0.00     0.007 C 
ENDBRANCH  16  17
ENDBRANCH  15  16
ENDBRANCH   8  15
ENDBRANCH   1   5
BRANCH   2  19
HETATM   19  C   UNL     1      24.236  47.595  49.797  1.00  0.00     0.156 A 
HETATM   20  N   UNL     1      24.064  48.887  49.736  1.00  0.00    -0.166 NA
HETATM   21  N   UNL     1      23.002  49.360  49.028  1.00  0.00    -0.242 N 
HETATM   22  C   UNL     1      22.078  48.600  48.351  1.00  0.00     0.272 A 
HETATM   23  H   UNL     1      22.905  50.370  48.961  1.00  0.00     0.192 HD
HETATM   24  O   UNL     1      21.158  49.102  47.716  1.00  0.00    -0.266 OA
HETATM   25  C   UNL     1      22.245  47.141  48.444  1.00  0.00     0.046 A 
HETATM   26  C   UNL     1      23.316  46.620  49.171  1.00  0.00     0.016 A 
HETATM   27  C   UNL     1      21.323  46.291  47.822  1.00  0.00     0.018 A 
HETATM   28  C   UNL     1      23.453  45.232  49.288  1.00  0.00     0.015 A 
HETATM   29  C   UNL     1      22.532  44.381  48.666  1.00  0.00     0.001 A 
HETATM   30  C   UNL     1      21.471  44.910  47.933  1.00  0.00     0.001 A 
ENDBRANCH   2  19
TORSDOF 8
ENDMDL
MODEL 4
REMARK VINA RESULT:      -8.0      1.682      2.337
REMARK  8 active torsions:
REMARK  status: ('A' for Active; 'I' for Inactive)
REMARK    1  A    between atoms: C_2  and  C_3 
REMARK    2  A    between atoms: C_3  and  O_4 
REMARK    3  A    between atoms: O_4  and  C_5 
REMARK    4  A    between atoms: C_6  and  O_7 
REMARK    5  A    between atoms: O_7  and  C_8 
REMARK    6  A    between atoms: C_8  and  C_9 
REMARK    7  A    between atoms: C_12  and  N_13 
REMARK       I    between atoms: N_13  and  C_14 
REMARK    8  A    between atoms: C_14  and  C_15 
ROOT
HETATM    1  N   UNL     1      26.038  45.245  51.481  1.00  0.00    -0.322 N 
HETATM    2  C   UNL     1      25.859  44.495  52.626  1.00  0.00     0.277 C 
HETATM    3  O   UNL     1      24.817  44.195  53.184  1.00  0.00    -0.266 OA
HETATM    4  H   UNL     1      27.009  45.465  51.273  1.00  0.00     0.169 HD
ENDROOT
BRANCH   1   5
HETATM    5  C   UNL     1      25.055  45.823  50.661  1.00  0.00     0.037 A 
HETATM    6  C   UNL     1      24.796  47.195  50.602  1.00  0.00     0.069 A 
HETATM    7  C   UNL     1      23.803  47.700  49.749  1.00  0.00     0.104 A 
HETATM    8  C   UNL     1      23.058  46.818  48.942  1.00  0.00     0.102 A 
HETATM    9  C   UNL     1      23.309  45.446  49.015  1.00  0.00     0.042 A 
HETATM   10  C   UNL     1      24.301  44.955  49.867  1.00  0.00     0.032 A 
BRANCH   7  11
HETATM   11  O   UNL     1      23.494  49.033  49.621  1.00  0.00    -0.348 OA
BRANCH  11  12
HETATM   12  C   UNL     1      24.308  49.831  48.766  1.00  0.00     0.175 C 
BRANCH  12  13
HETATM   13  C   UNL     1      23.405  50.634  47.833  1.00  0.00     0.022 C 
HETATM   14  C   UNL     1      22.142  51.126  48.525  1.00  0.00     0.007 C 
ENDBRANCH  12  13
ENDBRANCH  11  12
ENDBRANCH   7  11
BRANCH   8  15
HETATM   15  O   UNL     1      22.108  47.390  48.134  1.00  0.00    -0.348 OA
BRANCH  15  16
HETATM   16  C   UNL     1      20.748  47.019  48.346  1.00  0.00     0.175 C 
BRANCH  16  17
HETATM   17  C   UNL     1      19.914  48.296  48.380  1.00  0.00     0.022 C 
HETATM   18  C   UNL     1      19.479  48.648  49.792  1.00  0.00     0.007 C 
ENDBRANCH  16  17
ENDBRANCH  15  16
ENDBRANCH   8  15
ENDBRANCH   1   5
BRANCH   2  19
HETATM   19  C   UNL     1      27.198  44.050  53.218  1.00  0.00     0.156 A 
HETATM   20  N   UNL     1      27.674  42.931  52.745  1.00  0.00    -0.166 NA
HETATM   21  N   UNL     1      28.865  42.484  53.231  1.00  0.00    -0.242 N 
HETATM   22  C   UNL     1      29.635  43.109  54.182  1.00  0.00     0.272 A 
HETATM   23  H   UNL     1      29.237  41.630  52.825  1.00  0.00     0.192 HD
HETATM   24  O   UNL     1      30.711  42.654  54.554  1.00  0.00    -0.266 OA
HETATM   25  C   UNL     1      29.088  44.354  54.746  1.00  0.00     0.046 A 
HETATM   26  C   UNL     1      27.864  44.835  54.279  1.00  0.00     0.016 A 
HETATM   27  C   UNL     1      29.786  45.032  55.753  1.00  0.00     0.018 A 
HETATM   28  C   UNL     1      27.328  46.000  54.842  1.00  0.00     0.015 A 
HETATM   29  C   UNL     1      28.025  46.678  55.847  1.00  0.00     0.001 A 
HETATM   30  C   UNL     1      29.253  46.196  56.300  1.00  0.00     0.001 A 
ENDBRANCH   2  19
TORSDOF 8
ENDMDL
MODEL 5
REMARK VINA RESULT:      -7.9      2.396      3.785
REMARK  8 active torsions:
REMARK  status: ('A' for Active; 'I' for Inactive)
REMARK    1  A    between atoms: C_2  and  C_3 
REMARK    2  A    between atoms: C_3  and  O_4 
REMARK    3  A    between atoms: O_4  and  C_5 
REMARK    4  A    between atoms: C_6  and  O_7 
REMARK    5  A    between atoms: O_7  and  C_8 
REMARK    6  A    between atoms: C_8  and  C_9 
REMARK    7  A    between atoms: C_12  and  N_13 
REMARK       I    between atoms: N_13  and  C_14 
REMARK    8  A    between atoms: C_14  and  C_15 
ROOT
HETATM    1  N   UNL     1      25.481  45.126  50.530  1.00  0.00    -0.322 N 
HETATM    2  C   UNL     1      25.177  44.420  51.677  1.00  0.00     0.277 C 
HETATM    3  O   UNL     1      24.216  44.545  52.416  1.00  0.00    -0.266 OA
HETATM    4  H   UNL     1      26.401  44.925  50.146  1.00  0.00     0.169 HD
ENDROOT
BRANCH   1   5
HETATM    5  C   UNL     1      24.734  46.147  49.918  1.00  0.00     0.037 A 
HETATM    6  C   UNL     1      23.558  45.928  49.195  1.00  0.00     0.069 A 
HETATM    7  C   UNL     1      22.862  47.001  48.620  1.00  0.00     0.104 A 
HETATM    8  C   UNL     1      23.349  48.314  48.771  1.00  0.00     0.102 A 
HETATM    9  C   UNL     1      24.532  48.528  49.481  1.00  0.00     0.042 A 
HETATM   10  C   UNL     1      25.217  47.452  50.050  1.00  0.00     0.032 A 
BRANCH   7  11
HETATM   11  O   UNL     1      21.694  46.875  47.906  1.00  0.00    -0.348 OA
BRANCH  11  12
HETATM   12  C   UNL     1      20.518  46.483  48.608  1.00  0.00     0.175 C 
BRANCH  12  13
HETATM   13  C   UNL     1      19.486  47.604  48.507  1.00  0.00     0.022 C 
HETATM   14  C   UNL     1      19.027  48.098  49.871  1.00  0.00     0.007 C 
ENDBRANCH  12  13
ENDBRANCH  11  12
ENDBRANCH   7  11
BRANCH   8  15
HETATM   15  O   UNL     1      22.609  49.307  48.181  1.00  0.00    -0.348 OA
BRANCH  15  16
HETATM   16  C   UNL     1      22.041  50.303  49.030  1.00  0.00     0.175 C 
BRANCH  16  17
HETATM   17  C   UNL     1      21.005  51.075  48.218  1.00  0.00     0.022 C 
HETATM   18  C   UNL     1      19.896  51.626  49.098  1.00  0.00     0.007 C 
ENDBRANCH  16  17
ENDBRANCH  15  16
ENDBRANCH   8  15
ENDBRANCH   1   5
BRANCH   2  19
HETATM   19  C   UNL     1      26.259  43.387  52.000  1.00  0.00     0.156 A 
HETATM   20  N   UNL     1      26.141  42.242  51.384  1.00  0.00    -0.166 NA
HETATM   21  N   UNL     1      27.076  41.283  51.628  1.00  0.00    -0.242 N 
HETATM   22  C   UNL     1      28.157  41.403  52.469  1.00  0.00     0.272 A 
HETATM   23  H   UNL     1      26.988  40.412  51.114  1.00  0.00     0.192 HD
HETATM   24  O   UNL     1      28.971  40.500  52.621  1.00  0.00    -0.266 OA
HETATM   25  C   UNL     1      28.277  42.680  53.193  1.00  0.00     0.046 A 
HETATM   26  C   UNL     1      27.331  43.681  52.976  1.00  0.00     0.016 A 
HETATM   27  C   UNL     1      29.325  42.871  54.103  1.00  0.00     0.018 A 
HETATM   28  C   UNL     1      27.427  44.880  53.692  1.00  0.00     0.015 A 
HETATM   29  C   UNL     1      28.473  45.072  54.601  1.00  0.00     0.001 A 
HETATM   30  C   UNL     1      29.421  44.071  54.804  1.00  0.00     0.001 A 
ENDBRANCH   2  19
TORSDOF 8
ENDMDL
MODEL 6
REMARK VINA RESULT:      -7.6      2.765      3.549
REMARK  8 active torsions:
REMARK  status: ('A' for Active; 'I' for Inactive)
REMARK    1  A    between atoms: C_2  and  C_3 
REMARK    2  A    between atoms: C_3  and  O_4 
REMARK    3  A    between atoms: O_4  and  C_5 
REMARK    4  A    between atoms: C_6  and  O_7 
REMARK    5  A    between atoms: O_7  and  C_8 
REMARK    6  A    between atoms: C_8  and  C_9 
REMARK    7  A    between atoms: C_12  and  N_13 
REMARK       I    between atoms: N_13  and  C_14 
REMARK    8  A    between atoms: C_14  and  C_15 
ROOT
HETATM    1  N   UNL     1      25.303  44.500  50.198  1.00  0.00    -0.322 N 
HETATM    2  C   UNL     1      26.671  44.528  50.016  1.00  0.00     0.277 C 
HETATM    3  O   UNL     1      27.339  45.334  49.391  1.00  0.00    -0.266 OA
HETATM    4  H   UNL     1      24.959  43.661  50.658  1.00  0.00     0.169 HD
ENDROOT
BRANCH   1   5
HETATM    5  C   UNL     1      24.346  45.415  49.727  1.00  0.00     0.037 A 
HETATM    6  C   UNL     1      24.429  46.797  49.917  1.00  0.00     0.069 A 
HETATM    7  C   UNL     1      23.439  47.650  49.407  1.00  0.00     0.104 A 
HETATM    8  C   UNL     1      22.349  47.112  48.697  1.00  0.00     0.102 A 
HETATM    9  C   UNL     1      22.261  45.729  48.522  1.00  0.00     0.042 A 
HETATM   10  C   UNL     1      23.253  44.890  49.032  1.00  0.00     0.032 A 
BRANCH   7  11
HETATM   11  O   UNL     1      23.451  49.018  49.538  1.00  0.00    -0.348 OA
BRANCH  11  12
HETATM   12  C   UNL     1      24.339  49.764  48.710  1.00  0.00     0.175 C 
BRANCH  12  13
HETATM   13  C   UNL     1      23.544  50.844  47.981  1.00  0.00     0.022 C 
HETATM   14  C   UNL     1      22.244  51.192  48.692  1.00  0.00     0.007 C 
ENDBRANCH  12  13
ENDBRANCH  11  12
ENDBRANCH   7  11
BRANCH   8  15
HETATM   15  O   UNL     1      21.425  48.012  48.229  1.00  0.00    -0.348 OA
BRANCH  15  16
HETATM   16  C   UNL     1      20.048  47.647  48.301  1.00  0.00     0.175 C 
BRANCH  16  17
HETATM   17  C   UNL     1      19.480  48.214  49.598  1.00  0.00     0.022 C 
HETATM   18  C   UNL     1      18.922  49.614  49.405  1.00  0.00     0.007 C 
ENDBRANCH  16  17
ENDBRANCH  15  16
ENDBRANCH   8  15
ENDBRANCH   1   5
BRANCH   2  19
HETATM   19  C   UNL     1      27.350  43.340  50.699  1.00  0.00     0.156 A 
HETATM   20  N   UNL     1      27.373  42.234  50.006  1.00  0.00    -0.166 NA
HETATM   21  N   UNL     1      27.968  41.142  50.560  1.00  0.00    -0.242 N 
HETATM   22  C   UNL     1      28.566  41.087  51.797  1.00  0.00     0.272 A 
HETATM   23  H   UNL     1      28.008  40.301  49.992  1.00  0.00     0.192 HD
HETATM   24  O   UNL     1      29.101  40.069  52.220  1.00  0.00    -0.266 OA
HETATM   25  C   UNL     1      28.513  42.321  52.598  1.00  0.00     0.046 A 
HETATM   26  C   UNL     1      27.902  43.457  52.066  1.00  0.00     0.016 A 
HETATM   27  C   UNL     1      29.059  42.341  53.888  1.00  0.00     0.018 A 
HETATM   28  C   UNL     1      27.822  44.618  52.844  1.00  0.00     0.015 A 
HETATM   29  C   UNL     1      28.366  44.639  54.132  1.00  0.00     0.001 A 
HETATM   30  C   UNL     1      28.986  43.503  54.653  1.00  0.00     0.001 A 
ENDBRANCH   2  19
TORSDOF 8
ENDMDL
MODEL 7
REMARK VINA RESULT:      -7.4      1.263      3.148
REMARK  8 active torsions:
REMARK  status: ('A' for Active; 'I' for Inactive)
REMARK    1  A    between atoms: C_2  and  C_3 
REMARK    2  A    between atoms: C_3  and  O_4 
REMARK    3  A    between atoms: O_4  and  C_5 
REMARK    4  A    between atoms: C_6  and  O_7 
REMARK    5  A    between atoms: O_7  and  C_8 
REMARK    6  A    between atoms: C_8  and  C_9 
REMARK    7  A    between atoms: C_12  and  N_13 
REMARK       I    between atoms: N_13  and  C_14 
REMARK    8  A    between atoms: C_14  and  C_15 
ROOT
HETATM    1  N   UNL     1      26.029  45.963  52.382  1.00  0.00    -0.322 N 
HETATM    2  C   UNL     1      25.876  45.273  53.567  1.00  0.00     0.277 C 
HETATM    3  O   UNL     1      24.927  44.607  53.944  1.00  0.00    -0.266 OA
HETATM    4  H   UNL     1      26.860  46.548  52.342  1.00  0.00     0.169 HD
ENDROOT
BRANCH   1   5
HETATM    5  C   UNL     1      25.132  46.042  51.303  1.00  0.00     0.037 A 
HETATM    6  C   UNL     1      24.488  44.936  50.742  1.00  0.00     0.069 A 
HETATM    7  C   UNL     1      23.596  45.095  49.670  1.00  0.00     0.104 A 
HETATM    8  C   UNL     1      23.345  46.380  49.152  1.00  0.00     0.102 A 
HETATM    9  C   UNL     1      24.002  47.481  49.705  1.00  0.00     0.042 A 
HETATM   10  C   UNL     1      24.887  47.312  50.773  1.00  0.00     0.032 A 
BRANCH   7  11
HETATM   11  O   UNL     1      22.913  44.064  49.070  1.00  0.00    -0.348 OA
BRANCH  11  12
HETATM   12  C   UNL     1      23.251  42.730  49.439  1.00  0.00     0.175 C 
BRANCH  12  13
HETATM   13  C   UNL     1      24.141  42.129  48.353  1.00  0.00     0.022 C 
HETATM   14  C   UNL     1      25.032  41.013  48.881  1.00  0.00     0.007 C 
ENDBRANCH  12  13
ENDBRANCH  11  12
ENDBRANCH   7  11
BRANCH   8  15
HETATM   15  O   UNL     1      22.459  46.451  48.107  1.00  0.00    -0.348 OA
BRANCH  15  16
HETATM   16  C   UNL     1      21.193  47.059  48.352  1.00  0.00     0.175 C 
BRANCH  16  17
HETATM   17  C   UNL     1      21.129  48.352  47.544  1.00  0.00     0.022 C 
HETATM   18  C   UNL     1      21.116  49.577  48.441  1.00  0.00     0.007 C 
ENDBRANCH  16  17
ENDBRANCH  15  16
ENDBRANCH   8  15
ENDBRANCH   1   5
BRANCH   2  19
HETATM   19  C   UNL     1      27.095  45.448  54.476  1.00  0.00     0.156 A 
HETATM   20  N   UNL     1      27.054  46.480  55.274  1.00  0.00    -0.166 NA
HETATM   21  N   UNL     1      28.109  46.686  56.110  1.00  0.00    -0.242 N 
HETATM   22  C   UNL     1      29.231  45.898  56.206  1.00  0.00     0.272 A 
HETATM   23  H   UNL     1      28.044  47.474  56.748  1.00  0.00     0.192 HD
HETATM   24  O   UNL     1      30.131  46.137  57.002  1.00  0.00    -0.266 OA
HETATM   25  C   UNL     1      29.298  44.751  55.286  1.00  0.00     0.046 A 
HETATM   26  C   UNL     1      28.240  44.515  54.407  1.00  0.00     0.016 A 
HETATM   27  C   UNL     1      30.426  43.920  55.286  1.00  0.00     0.018 A 
HETATM   28  C   UNL     1      28.323  43.445  53.509  1.00  0.00     0.015 A 
HETATM   29  C   UNL     1      29.449  42.615  53.508  1.00  0.00     0.001 A 
HETATM   30  C   UNL     1      30.497  42.850  54.397  1.00  0.00     0.001 A 
ENDBRANCH   2  19
TORSDOF 8
ENDMDL
MODEL 8
REMARK VINA RESULT:      -7.4      2.193      3.851
REMARK  8 active torsions:
REMARK  status: ('A' for Active; 'I' for Inactive)
REMARK    1  A    between atoms: C_2  and  C_3 
REMARK    2  A    between atoms: C_3  and  O_4 
REMARK    3  A    between atoms: O_4  and  C_5 
REMARK    4  A    between atoms: C_6  and  O_7 
REMARK    5  A    between atoms: O_7  and  C_8 
REMARK    6  A    between atoms: C_8  and  C_9 
REMARK    7  A    between atoms: C_12  and  N_13 
REMARK       I    between atoms: N_13  and  C_14 
REMARK    8  A    between atoms: C_14  and  C_15 
ROOT
HETATM    1  N   UNL     1      25.656  45.679  50.591  1.00  0.00    -0.322 N 
HETATM    2  C   UNL     1      25.424  44.802  51.631  1.00  0.00     0.277 C 
HETATM    3  O   UNL     1      24.368  44.531  52.177  1.00  0.00    -0.266 OA
HETATM    4  H   UNL     1      26.640  45.831  50.383  1.00  0.00     0.169 HD
ENDROOT
BRANCH   1   5
HETATM    5  C   UNL     1      24.720  46.455  49.886  1.00  0.00     0.037 A 
HETATM    6  C   UNL     1      23.579  45.933  49.271  1.00  0.00     0.069 A 
HETATM    7  C   UNL     1      22.684  46.773  48.593  1.00  0.00     0.104 A 
HETATM    8  C   UNL     1      22.934  48.158  48.529  1.00  0.00     0.102 A 
HETATM    9  C   UNL     1      24.083  48.674  49.131  1.00  0.00     0.042 A 
HETATM   10  C   UNL     1      24.967  47.828  49.805  1.00  0.00     0.032 A 
BRANCH   7  11
HETATM   11  O   UNL     1      21.534  46.344  47.973  1.00  0.00    -0.348 OA
BRANCH  11  12
HETATM   12  C   UNL     1      20.909  45.162  48.464  1.00  0.00     0.175 C 
BRANCH  12  13
HETATM   13  C   UNL     1      19.410  45.243  48.181  1.00  0.00     0.022 C 
HETATM   14  C   UNL     1      19.015  44.499  46.914  1.00  0.00     0.007 C 
ENDBRANCH  12  13
ENDBRANCH  11  12
ENDBRANCH   7  11
BRANCH   8  15
HETATM   15  O   UNL     1      22.010  48.911  47.850  1.00  0.00    -0.348 OA
BRANCH  15  16
HETATM   16  C   UNL     1      22.207  50.323  47.810  1.00  0.00     0.175 C 
BRANCH  16  17
HETATM   17  C   UNL     1      20.952  50.987  48.368  1.00  0.00     0.022 C 
HETATM   18  C   UNL     1      20.956  51.014  49.887  1.00  0.00     0.007 C 
ENDBRANCH  16  17
ENDBRANCH  15  16
ENDBRANCH   8  15
ENDBRANCH   1   5
BRANCH   2  19
HETATM   19  C   UNL     1      26.722  44.154  52.117  1.00  0.00     0.156 A 
HETATM   20  N   UNL     1      27.117  43.113  51.435  1.00  0.00    -0.166 NA
HETATM   21  N   UNL     1      28.268  42.495  51.817  1.00  0.00    -0.242 N 
HETATM   22  C   UNL     1      29.078  42.869  52.864  1.00  0.00     0.272 A 
HETATM   23  H   UNL     1      28.578  41.709  51.254  1.00  0.00     0.192 HD
HETATM   24  O   UNL     1      30.114  42.273  53.133  1.00  0.00    -0.266 OA
HETATM   25  C   UNL     1      28.621  44.021  53.658  1.00  0.00     0.046 A 
HETATM   26  C   UNL     1      27.439  44.672  53.302  1.00  0.00     0.016 A 
HETATM   27  C   UNL     1      29.363  44.442  54.769  1.00  0.00     0.018 A 
HETATM   28  C   UNL     1      26.989  45.745  54.080  1.00  0.00     0.015 A 
HETATM   29  C   UNL     1      27.729  46.167  55.190  1.00  0.00     0.001 A 
HETATM   30  C   UNL     1      28.914  45.518  55.532  1.00  0.00     0.001 A 
ENDBRANCH   2  19
TORSDOF 8
ENDMDL
MODEL 9
REMARK VINA RESULT:      -7.2      1.958      2.987
REMARK  8 active torsions:
REMARK  status: ('A' for Active; 'I' for Inactive)
REMARK    1  A    between atoms: C_2  and  C_3 
REMARK    2  A    between atoms: C_3  and  O_4 
REMARK    3  A    between atoms: O_4  and  C_5 
REMARK    4  A    between atoms: C_6  and  O_7 
REMARK    5  A    between atoms: O_7  and  C_8 
REMARK    6  A    between atoms: C_8  and  C_9 
REMARK    7  A    between atoms: C_12  and  N_13 
REMARK       I    between atoms: N_13  and  C_14 
REMARK    8  A    between atoms: C_14  and  C_15 
ROOT
HETATM    1  N   UNL     1      25.145  45.590  50.580  1.00  0.00    -0.322 N 
HETATM    2  C   UNL     1      24.952  44.813  51.705  1.00  0.00     0.277 C 
HETATM    3  O   UNL     1      23.925  44.290  52.102  1.00  0.00    -0.266 OA
HETATM    4  H   UNL     1      26.066  46.017  50.520  1.00  0.00     0.169 HD
ENDROOT
BRANCH   1   5
HETATM    5  C   UNL     1      24.204  45.943  49.598  1.00  0.00     0.037 A 
HETATM    6  C   UNL     1      23.705  47.237  49.426  1.00  0.00     0.069 A 
HETATM    7  C   UNL     1      22.773  47.515  48.415  1.00  0.00     0.104 A 
HETATM    8  C   UNL     1      22.334  46.483  47.563  1.00  0.00     0.102 A 
HETATM    9  C   UNL     1      22.823  45.188  47.748  1.00  0.00     0.042 A 
HETATM   10  C   UNL     1      23.751  44.923  48.757  1.00  0.00     0.032 A 
BRANCH   7  11
HETATM   11  O   UNL     1      22.242  48.759  48.170  1.00  0.00    -0.348 OA
BRANCH  11  12
HETATM   12  C   UNL     1      21.415  49.346  49.171  1.00  0.00     0.175 C 
BRANCH  12  13
HETATM   13  C   UNL     1      21.961  50.729  49.514  1.00  0.00     0.022 C 
HETATM   14  C   UNL     1      23.071  51.169  48.570  1.00  0.00     0.007 C 
ENDBRANCH  12  13
ENDBRANCH  11  12
ENDBRANCH   7  11
BRANCH   8  15
HETATM   15  O   UNL     1      21.424  46.837  46.599  1.00  0.00    -0.348 OA
BRANCH  15  16
HETATM   16  C   UNL     1      20.231  46.063  46.498  1.00  0.00     0.175 C 
BRANCH  16  17
HETATM   17  C   UNL     1      19.332  46.428  47.675  1.00  0.00     0.022 C 
HETATM   18  C   UNL     1      17.989  45.724  47.600  1.00  0.00     0.007 C 
ENDBRANCH  16  17
ENDBRANCH  15  16
ENDBRANCH   8  15
ENDBRANCH   1   5
BRANCH   2  19
HETATM   19  C   UNL     1      26.244  44.668  52.512  1.00  0.00     0.156 A 
HETATM   20  N   UNL     1      26.921  43.575  52.293  1.00  0.00    -0.166 NA
HETATM   21  N   UNL     1      28.082  43.390  52.979  1.00  0.00    -0.242 N 
HETATM   22  C   UNL     1      28.628  44.260  53.893  1.00  0.00     0.272 A 
HETATM   23  H   UNL     1      28.614  42.550  52.769  1.00  0.00     0.192 HD
HETATM   24  O   UNL     1      29.692  44.033  54.457  1.00  0.00    -0.266 OA
HETATM   25  C   UNL     1      27.852  45.480  54.172  1.00  0.00     0.046 A 
HETATM   26  C   UNL     1      26.652  45.696  53.494  1.00  0.00     0.016 A 
HETATM   27  C   UNL     1      28.313  46.399  55.122  1.00  0.00     0.018 A 
HETATM   28  C   UNL     1      25.898  46.839  53.787  1.00  0.00     0.015 A 
HETATM   29  C   UNL     1      26.357  47.759  54.736  1.00  0.00     0.001 A 
HETATM   30  C   UNL     1      27.563  47.540  55.400  1.00  0.00     0.001 A 
ENDBRANCH   2  19
TORSDOF 8
ENDMDL
MODEL 10
REMARK VINA RESULT:      -7.2      8.881     13.982
REMARK  8 active torsions:
REMARK  status: ('A' for Active; 'I' for Inactive)
REMARK    1  A    between atoms: C_2  and  C_3 
REMARK    2  A    between atoms: C_3  and  O_4 
REMARK    3  A    between atoms: O_4  and  C_5 
REMARK    4  A    between atoms: C_6  and  O_7 
REMARK    5  A    between atoms: O_7  and  C_8 
REMARK    6  A    between atoms: C_8  and  C_9 
REMARK    7  A    between atoms: C_12  and  N_13 
REMARK       I    between atoms: N_13  and  C_14 
REMARK    8  A    between atoms: C_14  and  C_15 
ROOT
HETATM    1  N   UNL     1      16.080  53.964  49.725  1.00  0.00    -0.322 N 
HETATM    2  C   UNL     1      15.027  54.341  50.533  1.00  0.00     0.277 C 
HETATM    3  O   UNL     1      14.282  53.635  51.191  1.00  0.00    -0.266 OA
HETATM    4  H   UNL     1      16.481  54.722  49.179  1.00  0.00     0.169 HD
ENDROOT
BRANCH   1   5
HETATM    5  C   UNL     1      16.569  52.668  49.486  1.00  0.00     0.037 A 
HETATM    6  C   UNL     1      17.771  52.179  50.006  1.00  0.00     0.069 A 
HETATM    7  C   UNL     1      18.188  50.869  49.731  1.00  0.00     0.104 A 
HETATM    8  C   UNL     1      17.391  50.034  48.924  1.00  0.00     0.102 A 
HETATM    9  C   UNL     1      16.198  50.530  48.394  1.00  0.00     0.042 A 
HETATM   10  C   UNL     1      15.792  51.836  48.675  1.00  0.00     0.032 A 
BRANCH   7  11
HETATM   11  O   UNL     1      19.347  50.307  50.212  1.00  0.00    -0.348 OA
BRANCH  11  12
HETATM   12  C   UNL     1      20.550  51.065  50.118  1.00  0.00     0.175 C 
BRANCH  12  13
HETATM   13  C   UNL     1      20.953  51.171  48.649  1.00  0.00     0.022 C 
HETATM   14  C   UNL     1      22.434  50.900  48.430  1.00  0.00     0.007 C 
ENDBRANCH  12  13
ENDBRANCH  11  12
ENDBRANCH   7  11
BRANCH   8  15
HETATM   15  O   UNL     1      17.868  48.766  48.705  1.00  0.00    -0.348 OA
BRANCH  15  16
HETATM   16  C   UNL     1      18.424  48.480  47.424  1.00  0.00     0.175 C 
BRANCH  16  17
HETATM   17  C   UNL     1      19.290  47.231  47.557  1.00  0.00     0.022 C 
HETATM   18  C   UNL     1      20.498  47.474  48.446  1.00  0.00     0.007 C 
ENDBRANCH  16  17
ENDBRANCH  15  16
ENDBRANCH   8  15
ENDBRANCH   1   5
BRANCH   2  19
HETATM   19  C   UNL     1      14.826  55.858  50.518  1.00  0.00     0.156 A 
HETATM   20  N   UNL     1      14.477  56.364  49.366  1.00  0.00    -0.166 NA
HETATM   21  N   UNL     1      14.279  57.709  49.290  1.00  0.00    -0.242 N 
HETATM   22  C   UNL     1      14.405  58.604  50.325  1.00  0.00     0.272 A 
HETATM   23  H   UNL     1      13.973  58.080  48.395  1.00  0.00     0.192 HD
HETATM   24  O   UNL     1      14.188  59.802  50.183  1.00  0.00    -0.266 OA
HETATM   25  C   UNL     1      14.832  58.045  51.619  1.00  0.00     0.046 A 
HETATM   26  C   UNL     1      15.054  56.672  51.731  1.00  0.00     0.016 A 
HETATM   27  C   UNL     1      15.028  58.893  52.716  1.00  0.00     0.018 A 
HETATM   28  C   UNL     1      15.495  56.148  52.952  1.00  0.00     0.015 A 
HETATM   29  C   UNL     1      15.690  56.994  54.048  1.00  0.00     0.001 A 
HETATM   30  C   UNL     1      15.455  58.363  53.932  1.00  0.00     0.001 A 
ENDBRANCH   2  19
TORSDOF 8
ENDMDL
