MODEL 1
REMARK VINA RESULT:     -10.9      0.000      0.000
REMARK  7 active torsions:
REMARK  status: ('A' for Active; 'I' for Inactive)
REMARK    1  A    between atoms: N_1  and  C_2 
REMARK    2  A    between atoms: C_2  and  C_3 
REMARK    3  A    between atoms: C_6  and  C_24 
REMARK    4  A    between atoms: C_8  and  C_9 
REMARK    5  A    between atoms: C_13  and  C_15 
REMARK       I    between atoms: C_15  and  N_17 
REMARK    6  A    between atoms: N_17  and  C_18 
REMARK       I    between atoms: C_24  and  N_26 
REMARK    7  A    between atoms: N_26  and  C_27 
ROOT
HETATM    1  C   UNL     1      24.816  44.881  50.247  1.00  0.00    -0.020 A 
HETATM    2  C   UNL     1      24.761  43.698  51.008  1.00  0.00     0.011 A 
HETATM    3  C   UNL     1      25.448  43.588  52.216  1.00  0.00     0.017 A 
HETATM    4  C   UNL     1      26.199  44.662  52.702  1.00  0.00     0.033 A 
HETATM    5  C   UNL     1      26.252  45.851  51.961  1.00  0.00     0.030 A 
HETATM    6  C   UNL     1      25.557  45.987  50.740  1.00  0.00    -0.017 A 
ENDROOT
BRANCH   6   7
HETATM    7  C   UNL     1      25.633  47.268  50.014  1.00  0.00    -0.024 A 
HETATM    8  C   UNL     1      26.856  47.771  49.543  1.00  0.00     0.012 A 
HETATM    9  C   UNL     1      26.908  48.963  48.815  1.00  0.00     0.002 A 
HETATM   10  C   UNL     1      25.732  49.650  48.516  1.00  0.00     0.017 A 
HETATM   11  C   UNL     1      24.502  49.157  48.963  1.00  0.00     0.033 A 
HETATM   12  C   UNL     1      24.468  48.004  49.755  1.00  0.00     0.029 A 
BRANCH  11  13
HETATM   13  C   UNL     1      23.251  49.854  48.541  1.00  0.00     0.256 C 
HETATM   14  O   UNL     1      23.116  50.130  47.356  1.00  0.00    -0.267 OA
HETATM   15  N   UNL     1      22.336  50.068  49.558  1.00  0.00    -0.323 N 
HETATM   16  H   UNL     1      22.581  49.733  50.484  1.00  0.00     0.169 HD
BRANCH  15  17
HETATM   17  C   UNL     1      21.049  50.637  49.450  1.00  0.00     0.035 A 
HETATM   18  C   UNL     1      20.726  51.690  48.592  1.00  0.00     0.029 A 
HETATM   19  C   UNL     1      19.417  52.180  48.533  1.00  0.00     0.002 A 
HETATM   20  C   UNL     1      18.422  51.626  49.334  1.00  0.00     0.000 A 
HETATM   21  C   UNL     1      18.734  50.581  50.198  1.00  0.00     0.002 A 
HETATM   22  C   UNL     1      20.041  50.088  50.255  1.00  0.00     0.029 A 
ENDBRANCH  15  17
ENDBRANCH  11  13
ENDBRANCH   6   7
BRANCH   1  23
HETATM   23  C   UNL     1      24.097  44.896  48.913  1.00  0.00     0.306 C 
BRANCH  23  24
HETATM   24  N   UNL     1      24.502  43.782  48.053  1.00  0.00     0.082 N 
HETATM   25  H   UNL     1      23.660  43.270  47.787  1.00  0.00     0.313 HD
HETATM   26  H   UNL     1      24.870  44.169  47.183  1.00  0.00     0.313 HD
ENDBRANCH  23  24
ENDBRANCH   1  23
BRANCH   4  27
HETATM   27  C   UNL     1      26.957  44.467  53.973  1.00  0.00     0.256 C 
HETATM   28  O   UNL     1      26.347  44.051  54.953  1.00  0.00    -0.267 OA
HETATM   29  N   UNL     1      28.298  44.797  53.937  1.00  0.00    -0.320 N 
HETATM   30  H   UNL     1      28.665  45.239  53.101  1.00  0.00     0.169 HD
BRANCH  29  31
HETATM   31  C   UNL     1      29.242  44.649  54.983  1.00  0.00     0.076 A 
HETATM   32  C   UNL     1      30.125  43.579  55.102  1.00  0.00     0.052 A 
HETATM   33  C   UNL     1      31.006  43.562  56.177  1.00  0.00     0.118 A 
HETATM   34  N   UNL     1      31.067  44.526  57.122  1.00  0.00    -0.270 NA
HETATM   35  C   UNL     1      30.204  45.558  56.985  1.00  0.00     0.160 A 
HETATM   36  C   UNL     1      29.292  45.654  55.949  1.00  0.00     0.160 A 
HETATM   37  F   UNL     1      28.467  46.709  55.871  1.00  0.00    -0.202 F 
ENDBRANCH  29  31
ENDBRANCH   4  27
TORSDOF 7
ENDMDL
MODEL 2
REMARK VINA RESULT:     -10.9      2.619     10.345
REMARK  7 active torsions:
REMARK  status: ('A' for Active; 'I' for Inactive)
REMARK    1  A    between atoms: N_1  and  C_2 
REMARK    2  A    between atoms: C_2  and  C_3 
REMARK    3  A    between atoms: C_6  and  C_24 
REMARK    4  A    between atoms: C_8  and  C_9 
REMARK    5  A    between atoms: C_13  and  C_15 
REMARK       I    between atoms: C_15  and  N_17 
REMARK    6  A    between atoms: N_17  and  C_18 
REMARK       I    between atoms: C_24  and  N_26 
REMARK    7  A    between atoms: N_26  and  C_27 
ROOT
HETATM    1  C   UNL     1      26.129  48.742  49.164  1.00  0.00    -0.020 A 
HETATM    2  C   UNL     1      25.680  49.826  48.387  1.00  0.00     0.011 A 
HETATM    3  C   UNL     1      24.318  50.082  48.229  1.00  0.00     0.017 A 
HETATM    4  C   UNL     1      23.370  49.266  48.853  1.00  0.00     0.033 A 
HETATM    5  C   UNL     1      23.803  48.190  49.640  1.00  0.00     0.030 A 
HETATM    6  C   UNL     1      25.177  47.919  49.820  1.00  0.00    -0.017 A 
ENDROOT
BRANCH   6   7
HETATM    7  C   UNL     1      25.575  46.786  50.676  1.00  0.00    -0.024 A 
HETATM    8  C   UNL     1      25.565  45.467  50.195  1.00  0.00     0.012 A 
HETATM    9  C   UNL     1      25.990  44.408  51.002  1.00  0.00     0.002 A 
HETATM   10  C   UNL     1      26.464  44.657  52.289  1.00  0.00     0.017 A 
HETATM   11  C   UNL     1      26.497  45.966  52.781  1.00  0.00     0.033 A 
HETATM   12  C   UNL     1      26.000  47.010  51.994  1.00  0.00     0.029 A 
BRANCH  11  13
HETATM   13  C   UNL     1      27.106  46.216  54.120  1.00  0.00     0.256 C 
HETATM   14  O   UNL     1      26.562  47.028  54.859  1.00  0.00    -0.267 OA
HETATM   15  N   UNL     1      28.219  45.443  54.404  1.00  0.00    -0.323 N 
HETATM   16  H   UNL     1      28.517  44.778  53.699  1.00  0.00     0.169 HD
BRANCH  15  17
HETATM   17  C   UNL     1      28.959  45.411  55.605  1.00  0.00     0.035 A 
HETATM   18  C   UNL     1      28.622  46.131  56.753  1.00  0.00     0.029 A 
HETATM   19  C   UNL     1      29.401  46.024  57.911  1.00  0.00     0.002 A 
HETATM   20  C   UNL     1      30.525  45.201  57.929  1.00  0.00     0.000 A 
HETATM   21  C   UNL     1      30.873  44.485  56.788  1.00  0.00     0.002 A 
HETATM   22  C   UNL     1      30.093  44.588  55.633  1.00  0.00     0.029 A 
ENDBRANCH  15  17
ENDBRANCH  11  13
ENDBRANCH   6   7
BRANCH   1  23
HETATM   23  C   UNL     1      27.623  48.493  49.230  1.00  0.00     0.306 C 
BRANCH  23  24
HETATM   24  N   UNL     1      28.394  49.737  49.187  1.00  0.00     0.082 N 
HETATM   25  H   UNL     1      28.924  49.747  48.314  1.00  0.00     0.313 HD
HETATM   26  H   UNL     1      27.739  50.516  49.115  1.00  0.00     0.313 HD
ENDBRANCH  23  24
ENDBRANCH   1  23
BRANCH   4  27
HETATM   27  C   UNL     1      21.926  49.555  48.603  1.00  0.00     0.256 C 
HETATM   28  O   UNL     1      21.319  48.830  47.821  1.00  0.00    -0.267 OA
HETATM   29  N   UNL     1      21.399  50.643  49.271  1.00  0.00    -0.320 N 
HETATM   30  H   UNL     1      22.028  51.234  49.803  1.00  0.00     0.169 HD
BRANCH  29  31
HETATM   31  C   UNL     1      20.054  51.086  49.252  1.00  0.00     0.076 A 
HETATM   32  C   UNL     1      19.596  52.183  48.527  1.00  0.00     0.052 A 
HETATM   33  C   UNL     1      18.245  52.504  48.592  1.00  0.00     0.118 A 
HETATM   34  N   UNL     1      17.336  51.814  49.316  1.00  0.00    -0.270 NA
HETATM   35  C   UNL     1      17.802  50.750  50.008  1.00  0.00     0.160 A 
HETATM   36  C   UNL     1      19.130  50.361  50.003  1.00  0.00     0.160 A 
HETATM   37  F   UNL     1      19.523  49.291  50.711  1.00  0.00    -0.202 F 
ENDBRANCH  29  31
ENDBRANCH   4  27
TORSDOF 7
ENDMDL
MODEL 3
REMARK VINA RESULT:     -10.4      3.165     10.220
REMARK  7 active torsions:
REMARK  status: ('A' for Active; 'I' for Inactive)
REMARK    1  A    between atoms: N_1  and  C_2 
REMARK    2  A    between atoms: C_2  and  C_3 
REMARK    3  A    between atoms: C_6  and  C_24 
REMARK    4  A    between atoms: C_8  and  C_9 
REMARK    5  A    between atoms: C_13  and  C_15 
REMARK       I    between atoms: C_15  and  N_17 
REMARK    6  A    between atoms: N_17  and  C_18 
REMARK       I    between atoms: C_24  and  N_26 
REMARK    7  A    between atoms: N_26  and  C_27 
ROOT
HETATM    1  C   UNL     1      25.983  48.517  49.306  1.00  0.00    -0.020 A 
HETATM    2  C   UNL     1      25.327  49.599  48.689  1.00  0.00     0.011 A 
HETATM    3  C   UNL     1      23.955  49.563  48.445  1.00  0.00     0.017 A 
HETATM    4  C   UNL     1      23.200  48.449  48.821  1.00  0.00     0.033 A 
HETATM    5  C   UNL     1      23.838  47.369  49.448  1.00  0.00     0.030 A 
HETATM    6  C   UNL     1      25.224  47.389  49.713  1.00  0.00    -0.017 A 
ENDROOT
BRANCH   6   7
HETATM    7  C   UNL     1      25.837  46.233  50.393  1.00  0.00    -0.024 A 
HETATM    8  C   UNL     1      26.158  45.058  49.695  1.00  0.00     0.012 A 
HETATM    9  C   UNL     1      26.782  43.989  50.342  1.00  0.00     0.002 A 
HETATM   10  C   UNL     1      27.127  44.093  51.689  1.00  0.00     0.017 A 
HETATM   11  C   UNL     1      26.830  45.261  52.398  1.00  0.00     0.033 A 
HETATM   12  C   UNL     1      26.138  46.297  51.762  1.00  0.00     0.029 A 
BRANCH  11  13
HETATM   13  C   UNL     1      27.304  45.387  53.808  1.00  0.00     0.256 C 
HETATM   14  O   UNL     1      26.493  45.727  54.661  1.00  0.00    -0.267 OA
HETATM   15  N   UNL     1      28.631  45.045  54.007  1.00  0.00    -0.323 N 
HETATM   16  H   UNL     1      29.158  44.734  53.198  1.00  0.00     0.169 HD
BRANCH  15  17
HETATM   17  C   UNL     1      29.333  45.000  55.230  1.00  0.00     0.035 A 
HETATM   18  C   UNL     1      29.184  45.936  56.255  1.00  0.00     0.029 A 
HETATM   19  C   UNL     1      29.905  45.805  57.446  1.00  0.00     0.002 A 
HETATM   20  C   UNL     1      30.786  44.740  57.621  1.00  0.00     0.000 A 
HETATM   21  C   UNL     1      30.947  43.805  56.603  1.00  0.00     0.002 A 
HETATM   22  C   UNL     1      30.224  43.934  55.414  1.00  0.00     0.029 A 
ENDBRANCH  15  17
ENDBRANCH  11  13
ENDBRANCH   6   7
BRANCH   1  23
HETATM   23  C   UNL     1      27.487  48.607  49.474  1.00  0.00     0.306 C 
BRANCH  23  24
HETATM   24  N   UNL     1      28.026  49.873  48.975  1.00  0.00     0.082 N 
HETATM   25  H   UNL     1      28.829  49.660  48.383  1.00  0.00     0.313 HD
HETATM   26  H   UNL     1      27.333  50.292  48.353  1.00  0.00     0.313 HD
ENDBRANCH  23  24
ENDBRANCH   1  23
BRANCH   4  27
HETATM   27  C   UNL     1      21.745  48.444  48.484  1.00  0.00     0.256 C 
HETATM   28  O   UNL     1      21.338  49.261  47.666  1.00  0.00    -0.267 OA
HETATM   29  N   UNL     1      20.970  47.514  49.152  1.00  0.00    -0.320 N 
HETATM   30  H   UNL     1      21.400  46.968  49.890  1.00  0.00     0.169 HD
BRANCH  29  31
HETATM   31  C   UNL     1      19.588  47.268  48.969  1.00  0.00     0.076 A 
HETATM   32  C   UNL     1      18.570  48.025  49.543  1.00  0.00     0.052 A 
HETATM   33  C   UNL     1      17.251  47.676  49.274  1.00  0.00     0.118 A 
HETATM   34  N   UNL     1      16.887  46.643  48.481  1.00  0.00    -0.270 NA
HETATM   35  C   UNL     1      17.892  45.925  47.931  1.00  0.00     0.160 A 
HETATM   36  C   UNL     1      19.230  46.199  48.147  1.00  0.00     0.160 A 
HETATM   37  F   UNL     1      20.177  45.447  47.565  1.00  0.00    -0.202 F 
ENDBRANCH  29  31
ENDBRANCH   4  27
TORSDOF 7
ENDMDL
MODEL 4
REMARK VINA RESULT:     -10.1      3.546      4.884
REMARK  7 active torsions:
REMARK  status: ('A' for Active; 'I' for Inactive)
REMARK    1  A    between atoms: N_1  and  C_2 
REMARK    2  A    between atoms: C_2  and  C_3 
REMARK    3  A    between atoms: C_6  and  C_24 
REMARK    4  A    between atoms: C_8  and  C_9 
REMARK    5  A    between atoms: C_13  and  C_15 
REMARK       I    between atoms: C_15  and  N_17 
REMARK    6  A    between atoms: N_17  and  C_18 
REMARK       I    between atoms: C_24  and  N_26 
REMARK    7  A    between atoms: N_26  and  C_27 
ROOT
HETATM    1  C   UNL     1      26.169  46.094  52.116  1.00  0.00    -0.020 A 
HETATM    2  C   UNL     1      26.476  44.880  52.758  1.00  0.00     0.011 A 
HETATM    3  C   UNL     1      26.802  43.741  52.022  1.00  0.00     0.017 A 
HETATM    4  C   UNL     1      26.841  43.789  50.626  1.00  0.00     0.033 A 
HETATM    5  C   UNL     1      26.550  44.995  49.974  1.00  0.00     0.030 A 
HETATM    6  C   UNL     1      26.226  46.162  50.699  1.00  0.00    -0.017 A 
ENDROOT
BRANCH   6   7
HETATM    7  C   UNL     1      25.950  47.408  49.961  1.00  0.00    -0.024 A 
HETATM    8  C   UNL     1      26.987  48.190  49.429  1.00  0.00     0.012 A 
HETATM    9  C   UNL     1      26.708  49.343  48.691  1.00  0.00     0.002 A 
HETATM   10  C   UNL     1      25.386  49.711  48.443  1.00  0.00     0.017 A 
HETATM   11  C   UNL     1      24.338  48.937  48.951  1.00  0.00     0.033 A 
HETATM   12  C   UNL     1      24.627  47.827  49.752  1.00  0.00     0.029 A 
BRANCH  11  13
HETATM   13  C   UNL     1      22.937  49.294  48.583  1.00  0.00     0.256 C 
HETATM   14  O   UNL     1      22.427  48.723  47.626  1.00  0.00    -0.267 OA
HETATM   15  N   UNL     1      22.334  50.217  49.421  1.00  0.00    -0.323 N 
HETATM   16  H   UNL     1      22.880  50.561  50.205  1.00  0.00     0.169 HD
BRANCH  15  17
HETATM   17  C   UNL     1      21.006  50.691  49.366  1.00  0.00     0.035 A 
HETATM   18  C   UNL     1      20.577  51.725  48.532  1.00  0.00     0.029 A 
HETATM   19  C   UNL     1      19.235  52.119  48.525  1.00  0.00     0.002 A 
HETATM   20  C   UNL     1      18.312  51.487  49.355  1.00  0.00     0.000 A 
HETATM   21  C   UNL     1      18.731  50.459  50.194  1.00  0.00     0.002 A 
HETATM   22  C   UNL     1      20.071  50.063  50.199  1.00  0.00     0.029 A 
ENDBRANCH  15  17
ENDBRANCH  11  13
ENDBRANCH   6   7
BRANCH   1  23
HETATM   23  C   UNL     1      25.759  47.267  52.984  1.00  0.00     0.306 C 
BRANCH  23  24
HETATM   24  N   UNL     1      26.240  47.132  54.361  1.00  0.00     0.082 N 
HETATM   25  H   UNL     1      25.462  46.801  54.933  1.00  0.00     0.313 HD
HETATM   26  H   UNL     1      26.932  46.382  54.385  1.00  0.00     0.313 HD
ENDBRANCH  23  24
ENDBRANCH   1  23
BRANCH   4  27
HETATM   27  C   UNL     1      27.142  42.525  49.891  1.00  0.00     0.256 C 
HETATM   28  O   UNL     1      27.211  42.570  48.667  1.00  0.00    -0.267 OA
HETATM   29  N   UNL     1      27.300  41.393  50.667  1.00  0.00    -0.320 N 
HETATM   30  H   UNL     1      27.107  41.458  51.661  1.00  0.00     0.169 HD
BRANCH  29  31
HETATM   31  C   UNL     1      27.646  40.094  50.222  1.00  0.00     0.076 A 
HETATM   32  C   UNL     1      28.883  39.491  50.436  1.00  0.00     0.052 A 
HETATM   33  C   UNL     1      29.087  38.205  49.949  1.00  0.00     0.118 A 
HETATM   34  N   UNL     1      28.156  37.491  49.278  1.00  0.00    -0.270 NA
HETATM   35  C   UNL     1      26.961  38.095  49.085  1.00  0.00     0.160 A 
HETATM   36  C   UNL     1      26.672  39.372  49.532  1.00  0.00     0.160 A 
HETATM   37  F   UNL     1      25.463  39.908  49.310  1.00  0.00    -0.202 F 
ENDBRANCH  29  31
ENDBRANCH   4  27
TORSDOF 7
ENDMDL
MODEL 5
REMARK VINA RESULT:      -9.6      3.300      5.534
REMARK  7 active torsions:
REMARK  status: ('A' for Active; 'I' for Inactive)
REMARK    1  A    between atoms: N_1  and  C_2 
REMARK    2  A    between atoms: C_2  and  C_3 
REMARK    3  A    between atoms: C_6  and  C_24 
REMARK    4  A    between atoms: C_8  and  C_9 
REMARK    5  A    between atoms: C_13  and  C_15 
REMARK       I    between atoms: C_15  and  N_17 
REMARK    6  A    between atoms: N_17  and  C_18 
REMARK       I    between atoms: C_24  and  N_26 
REMARK    7  A    between atoms: N_26  and  C_27 
ROOT
HETATM    1  C   UNL     1      26.103  45.958  52.313  1.00  0.00    -0.020 A 
HETATM    2  C   UNL     1      26.362  44.737  52.964  1.00  0.00     0.011 A 
HETATM    3  C   UNL     1      26.601  43.572  52.236  1.00  0.00     0.017 A 
HETATM    4  C   UNL     1      26.599  43.599  50.839  1.00  0.00     0.033 A 
HETATM    5  C   UNL     1      26.355  44.811  50.178  1.00  0.00     0.030 A 
HETATM    6  C   UNL     1      26.120  46.004  50.895  1.00  0.00    -0.017 A 
ENDROOT
BRANCH   6   7
HETATM    7  C   UNL     1      25.889  47.254  50.147  1.00  0.00    -0.024 A 
HETATM    8  C   UNL     1      26.957  48.012  49.641  1.00  0.00     0.012 A 
HETATM    9  C   UNL     1      26.723  49.169  48.893  1.00  0.00     0.002 A 
HETATM   10  C   UNL     1      25.417  49.564  48.609  1.00  0.00     0.017 A 
HETATM   11  C   UNL     1      24.339  48.814  49.091  1.00  0.00     0.033 A 
HETATM   12  C   UNL     1      24.582  47.700  49.901  1.00  0.00     0.029 A 
BRANCH  11  13
HETATM   13  C   UNL     1      22.956  49.199  48.685  1.00  0.00     0.256 C 
HETATM   14  O   UNL     1      22.484  48.684  47.679  1.00  0.00    -0.267 OA
HETATM   15  N   UNL     1      22.323  50.082  49.545  1.00  0.00    -0.323 N 
HETATM   16  H   UNL     1      22.838  50.379  50.368  1.00  0.00     0.169 HD
BRANCH  15  17
HETATM   17  C   UNL     1      21.001  50.567  49.460  1.00  0.00     0.035 A 
HETATM   18  C   UNL     1      20.606  51.624  48.638  1.00  0.00     0.029 A 
HETATM   19  C   UNL     1      19.267  52.029  48.599  1.00  0.00     0.002 A 
HETATM   20  C   UNL     1      18.314  51.384  49.384  1.00  0.00     0.000 A 
HETATM   21  C   UNL     1      18.699  50.334  50.212  1.00  0.00     0.002 A 
HETATM   22  C   UNL     1      20.036  49.927  50.249  1.00  0.00     0.029 A 
ENDBRANCH  15  17
ENDBRANCH  11  13
ENDBRANCH   6   7
BRANCH   1  23
HETATM   23  C   UNL     1      25.786  47.163  53.176  1.00  0.00     0.306 C 
BRANCH  23  24
HETATM   24  N   UNL     1      26.871  47.479  54.108  1.00  0.00     0.082 N 
HETATM   25  H   UNL     1      27.706  47.685  53.558  1.00  0.00     0.313 HD
HETATM   26  H   UNL     1      26.638  48.351  54.585  1.00  0.00     0.313 HD
ENDBRANCH  23  24
ENDBRANCH   1  23
BRANCH   4  27
HETATM   27  C   UNL     1      26.806  42.311  50.113  1.00  0.00     0.256 C 
HETATM   28  O   UNL     1      27.148  41.329  50.764  1.00  0.00    -0.267 OA
HETATM   29  N   UNL     1      26.609  42.345  48.746  1.00  0.00    -0.320 N 
HETATM   30  H   UNL     1      26.438  43.241  48.305  1.00  0.00     0.169 HD
BRANCH  29  31
HETATM   31  C   UNL     1      26.683  41.253  47.846  1.00  0.00     0.076 A 
HETATM   32  C   UNL     1      27.819  40.905  47.120  1.00  0.00     0.052 A 
HETATM   33  C   UNL     1      27.755  39.803  46.276  1.00  0.00     0.118 A 
HETATM   34  N   UNL     1      26.654  39.035  46.114  1.00  0.00    -0.270 NA
HETATM   35  C   UNL     1      25.564  39.389  46.832  1.00  0.00     0.160 A 
HETATM   36  C   UNL     1      25.538  40.472  47.692  1.00  0.00     0.160 A 
HETATM   37  F   UNL     1      24.422  40.763  48.378  1.00  0.00    -0.202 F 
ENDBRANCH  29  31
ENDBRANCH   4  27
TORSDOF 7
ENDMDL
MODEL 6
REMARK VINA RESULT:      -9.5      3.749     10.342
REMARK  7 active torsions:
REMARK  status: ('A' for Active; 'I' for Inactive)
REMARK    1  A    between atoms: N_1  and  C_2 
REMARK    2  A    between atoms: C_2  and  C_3 
REMARK    3  A    between atoms: C_6  and  C_24 
REMARK    4  A    between atoms: C_8  and  C_9 
REMARK    5  A    between atoms: C_13  and  C_15 
REMARK       I    between atoms: C_15  and  N_17 
REMARK    6  A    between atoms: N_17  and  C_18 
REMARK       I    between atoms: C_24  and  N_26 
REMARK    7  A    between atoms: N_26  and  C_27 
ROOT
HETATM    1  C   UNL     1      26.198  48.619  49.219  1.00  0.00    -0.020 A 
HETATM    2  C   UNL     1      25.668  49.648  48.419  1.00  0.00     0.011 A 
HETATM    3  C   UNL     1      24.290  49.819  48.288  1.00  0.00     0.017 A 
HETATM    4  C   UNL     1      23.407  48.972  48.962  1.00  0.00     0.033 A 
HETATM    5  C   UNL     1      23.921  47.951  49.773  1.00  0.00     0.030 A 
HETATM    6  C   UNL     1      25.312  47.766  49.927  1.00  0.00    -0.017 A 
ENDROOT
BRANCH   6   7
HETATM    7  C   UNL     1      25.795  46.687  50.808  1.00  0.00    -0.024 A 
HETATM    8  C   UNL     1      26.082  46.921  52.162  1.00  0.00     0.012 A 
HETATM    9  C   UNL     1      26.494  45.880  52.998  1.00  0.00     0.002 A 
HETATM   10  C   UNL     1      26.591  44.582  52.499  1.00  0.00     0.017 A 
HETATM   11  C   UNL     1      26.295  44.325  51.157  1.00  0.00     0.033 A 
HETATM   12  C   UNL     1      25.956  45.386  50.310  1.00  0.00     0.029 A 
BRANCH  11  13
HETATM   13  C   UNL     1      26.305  42.912  50.675  1.00  0.00     0.256 C 
HETATM   14  O   UNL     1      25.245  42.300  50.659  1.00  0.00    -0.267 OA
HETATM   15  N   UNL     1      27.539  42.457  50.240  1.00  0.00    -0.323 N 
HETATM   16  H   UNL     1      28.315  43.109  50.273  1.00  0.00     0.169 HD
BRANCH  15  17
HETATM   17  C   UNL     1      27.840  41.200  49.672  1.00  0.00     0.035 A 
HETATM   18  C   UNL     1      27.716  40.904  48.314  1.00  0.00     0.029 A 
HETATM   19  C   UNL     1      28.056  39.636  47.831  1.00  0.00     0.002 A 
HETATM   20  C   UNL     1      28.518  38.652  48.702  1.00  0.00     0.000 A 
HETATM   21  C   UNL     1      28.639  38.935  50.059  1.00  0.00     0.002 A 
HETATM   22  C   UNL     1      28.302  40.203  50.541  1.00  0.00     0.029 A 
ENDBRANCH  15  17
ENDBRANCH  11  13
ENDBRANCH   6   7
BRANCH   1  23
HETATM   23  C   UNL     1      27.705  48.459  49.255  1.00  0.00     0.306 C 
BRANCH  23  24
HETATM   24  N   UNL     1      28.401  49.746  49.213  1.00  0.00     0.082 N 
HETATM   25  H   UNL     1      28.374  50.147  50.151  1.00  0.00     0.313 HD
HETATM   26  H   UNL     1      29.388  49.569  49.022  1.00  0.00     0.313 HD
ENDBRANCH  23  24
ENDBRANCH   1  23
BRANCH   4  27
HETATM   27  C   UNL     1      21.943  49.168  48.740  1.00  0.00     0.256 C 
HETATM   28  O   UNL     1      21.399  48.512  47.858  1.00  0.00    -0.267 OA
HETATM   29  N   UNL     1      21.325  50.103  49.549  1.00  0.00    -0.320 N 
HETATM   30  H   UNL     1      21.902  50.665  50.165  1.00  0.00     0.169 HD
BRANCH  29  31
HETATM   31  C   UNL     1      19.947  50.428  49.578  1.00  0.00     0.076 A 
HETATM   32  C   UNL     1      18.961  49.629  50.152  1.00  0.00     0.052 A 
HETATM   33  C   UNL     1      17.644  50.074  50.117  1.00  0.00     0.118 A 
HETATM   34  N   UNL     1      17.253  51.243  49.562  1.00  0.00    -0.270 NA
HETATM   35  C   UNL     1      18.228  52.004  49.015  1.00  0.00     0.160 A 
HETATM   36  C   UNL     1      19.562  51.639  49.002  1.00  0.00     0.160 A 
HETATM   37  F   UNL     1      20.478  52.446  48.446  1.00  0.00    -0.202 F 
ENDBRANCH  29  31
ENDBRANCH   4  27
TORSDOF 7
ENDMDL
MODEL 7
REMARK VINA RESULT:      -9.4      3.434     10.786
REMARK  7 active torsions:
REMARK  status: ('A' for Active; 'I' for Inactive)
REMARK    1  A    between atoms: N_1  and  C_2 
REMARK    2  A    between atoms: C_2  and  C_3 
REMARK    3  A    between atoms: C_6  and  C_24 
REMARK    4  A    between atoms: C_8  and  C_9 
REMARK    5  A    between atoms: C_13  and  C_15 
REMARK       I    between atoms: C_15  and  N_17 
REMARK    6  A    between atoms: N_17  and  C_18 
REMARK       I    between atoms: C_24  and  N_26 
REMARK    7  A    between atoms: N_26  and  C_27 
ROOT
HETATM    1  C   UNL     1      24.642  49.047  48.976  1.00  0.00    -0.020 A 
HETATM    2  C   UNL     1      24.347  50.389  48.673  1.00  0.00     0.011 A 
HETATM    3  C   UNL     1      23.028  50.830  48.571  1.00  0.00     0.017 A 
HETATM    4  C   UNL     1      21.969  49.942  48.782  1.00  0.00     0.033 A 
HETATM    5  C   UNL     1      22.248  48.605  49.097  1.00  0.00     0.030 A 
HETATM    6  C   UNL     1      23.576  48.140  49.214  1.00  0.00    -0.017 A 
ENDROOT
BRANCH   6   7
HETATM    7  C   UNL     1      23.810  46.728  49.568  1.00  0.00    -0.024 A 
HETATM    8  C   UNL     1      23.479  45.688  48.686  1.00  0.00     0.012 A 
HETATM    9  C   UNL     1      23.749  44.357  49.014  1.00  0.00     0.002 A 
HETATM   10  C   UNL     1      24.388  44.050  50.215  1.00  0.00     0.017 A 
HETATM   11  C   UNL     1      24.740  45.074  51.101  1.00  0.00     0.033 A 
HETATM   12  C   UNL     1      24.398  46.396  50.797  1.00  0.00     0.029 A 
BRANCH  11  13
HETATM   13  C   UNL     1      25.514  44.728  52.329  1.00  0.00     0.256 C 
HETATM   14  O   UNL     1      24.894  44.370  53.322  1.00  0.00    -0.267 OA
HETATM   15  N   UNL     1      26.890  44.803  52.186  1.00  0.00    -0.323 N 
HETATM   16  H   UNL     1      27.251  45.071  51.277  1.00  0.00     0.169 HD
BRANCH  15  17
HETATM   17  C   UNL     1      27.873  44.472  53.144  1.00  0.00     0.035 A 
HETATM   18  C   UNL     1      28.092  45.190  54.321  1.00  0.00     0.029 A 
HETATM   19  C   UNL     1      29.076  44.780  55.228  1.00  0.00     0.002 A 
HETATM   20  C   UNL     1      29.851  43.653  54.963  1.00  0.00     0.000 A 
HETATM   21  C   UNL     1      29.644  42.935  53.789  1.00  0.00     0.002 A 
HETATM   22  C   UNL     1      28.660  43.342  52.885  1.00  0.00     0.029 A 
ENDBRANCH  15  17
ENDBRANCH  11  13
ENDBRANCH   6   7
BRANCH   1  23
HETATM   23  C   UNL     1      26.100  48.634  49.002  1.00  0.00     0.306 C 
BRANCH  23  24
HETATM   24  N   UNL     1      26.947  49.543  48.227  1.00  0.00     0.082 N 
HETATM   25  H   UNL     1      27.091  50.387  48.782  1.00  0.00     0.313 HD
HETATM   26  H   UNL     1      27.871  49.118  48.136  1.00  0.00     0.313 HD
ENDBRANCH  23  24
ENDBRANCH   1  23
BRANCH   4  27
HETATM   27  C   UNL     1      20.578  50.458  48.605  1.00  0.00     0.256 C 
HETATM   28  O   UNL     1      20.335  51.603  48.972  1.00  0.00    -0.267 OA
HETATM   29  N   UNL     1      19.669  49.576  48.053  1.00  0.00    -0.320 N 
HETATM   30  H   UNL     1      19.961  48.618  47.896  1.00  0.00     0.169 HD
BRANCH  29  31
HETATM   31  C   UNL     1      18.316  49.837  47.730  1.00  0.00     0.076 A 
HETATM   32  C   UNL     1      17.234  49.526  48.550  1.00  0.00     0.052 A 
HETATM   33  C   UNL     1      15.955  49.847  48.111  1.00  0.00     0.118 A 
HETATM   34  N   UNL     1      15.687  50.450  46.931  1.00  0.00    -0.270 NA
HETATM   35  C   UNL     1      16.752  50.747  46.153  1.00  0.00     0.160 A 
HETATM   36  C   UNL     1      18.058  50.462  46.509  1.00  0.00     0.160 A 
HETATM   37  F   UNL     1      19.069  50.789  45.689  1.00  0.00    -0.202 F 
ENDBRANCH  29  31
ENDBRANCH   4  27
TORSDOF 7
ENDMDL
MODEL 8
REMARK VINA RESULT:      -9.1      4.230      7.943
REMARK  7 active torsions:
REMARK  status: ('A' for Active; 'I' for Inactive)
REMARK    1  A    between atoms: N_1  and  C_2 
REMARK    2  A    between atoms: C_2  and  C_3 
REMARK    3  A    between atoms: C_6  and  C_24 
REMARK    4  A    between atoms: C_8  and  C_9 
REMARK    5  A    between atoms: C_13  and  C_15 
REMARK       I    between atoms: C_15  and  N_17 
REMARK    6  A    between atoms: N_17  and  C_18 
REMARK       I    between atoms: C_24  and  N_26 
REMARK    7  A    between atoms: N_26  and  C_27 
ROOT
HETATM    1  C   UNL     1      25.537  45.820  51.099  1.00  0.00    -0.020 A 
HETATM    2  C   UNL     1      25.912  46.773  52.064  1.00  0.00     0.011 A 
HETATM    3  C   UNL     1      26.598  46.396  53.218  1.00  0.00     0.017 A 
HETATM    4  C   UNL     1      26.938  45.057  53.431  1.00  0.00     0.033 A 
HETATM    5  C   UNL     1      26.582  44.099  52.471  1.00  0.00     0.030 A 
HETATM    6  C   UNL     1      25.896  44.461  51.292  1.00  0.00    -0.017 A 
ENDROOT
BRANCH   6   7
HETATM    7  C   UNL     1      25.565  43.413  50.308  1.00  0.00    -0.024 A 
HETATM    8  C   UNL     1      24.235  43.054  50.039  1.00  0.00     0.012 A 
HETATM    9  C   UNL     1      23.935  42.093  49.070  1.00  0.00     0.002 A 
HETATM   10  C   UNL     1      24.959  41.504  48.330  1.00  0.00     0.017 A 
HETATM   11  C   UNL     1      26.289  41.860  48.572  1.00  0.00     0.033 A 
HETATM   12  C   UNL     1      26.586  42.767  49.595  1.00  0.00     0.029 A 
BRANCH  11  13
HETATM   13  C   UNL     1      27.356  41.293  47.696  1.00  0.00     0.256 C 
HETATM   14  O   UNL     1      28.454  41.072  48.191  1.00  0.00    -0.267 OA
HETATM   15  N   UNL     1      26.958  41.024  46.397  1.00  0.00    -0.323 N 
HETATM   16  H   UNL     1      25.992  41.220  46.155  1.00  0.00     0.169 HD
BRANCH  15  17
HETATM   17  C   UNL     1      27.720  40.427  45.370  1.00  0.00     0.035 A 
HETATM   18  C   UNL     1      28.435  41.143  44.408  1.00  0.00     0.029 A 
HETATM   19  C   UNL     1      29.183  40.471  43.435  1.00  0.00     0.002 A 
HETATM   20  C   UNL     1      29.219  39.079  43.413  1.00  0.00     0.000 A 
HETATM   21  C   UNL     1      28.504  38.356  44.363  1.00  0.00     0.002 A 
HETATM   22  C   UNL     1      27.759  39.027  45.337  1.00  0.00     0.029 A 
ENDBRANCH  15  17
ENDBRANCH  11  13
ENDBRANCH   6   7
BRANCH   1  23
HETATM   23  C   UNL     1      24.734  46.302  49.907  1.00  0.00     0.306 C 
BRANCH  23  24
HETATM   24  N   UNL     1      23.913  47.471  50.227  1.00  0.00     0.082 N 
HETATM   25  H   UNL     1      23.085  47.144  50.727  1.00  0.00     0.313 HD
HETATM   26  H   UNL     1      24.424  48.046  50.898  1.00  0.00     0.313 HD
ENDBRANCH  23  24
ENDBRANCH   1  23
BRANCH   4  27
HETATM   27  C   UNL     1      27.624  44.704  54.710  1.00  0.00     0.256 C 
HETATM   28  O   UNL     1      27.026  43.990  55.508  1.00  0.00    -0.267 OA
HETATM   29  N   UNL     1      28.885  45.239  54.891  1.00  0.00    -0.320 N 
HETATM   30  H   UNL     1      29.228  45.908  54.210  1.00  0.00     0.169 HD
BRANCH  29  31
HETATM   31  C   UNL     1      29.760  45.010  55.980  1.00  0.00     0.076 A 
HETATM   32  C   UNL     1      29.768  45.756  57.156  1.00  0.00     0.052 A 
HETATM   33  C   UNL     1      30.678  45.417  58.150  1.00  0.00     0.118 A 
HETATM   34  N   UNL     1      31.562  44.399  58.054  1.00  0.00    -0.270 NA
HETATM   35  C   UNL     1      31.534  43.685  56.906  1.00  0.00     0.160 A 
HETATM   36  C   UNL     1      30.665  43.954  55.864  1.00  0.00     0.160 A 
HETATM   37  F   UNL     1      30.688  43.201  54.753  1.00  0.00    -0.202 F 
ENDBRANCH  29  31
ENDBRANCH   4  27
TORSDOF 7
ENDMDL
MODEL 9
REMARK VINA RESULT:      -9.1      2.105      3.387
REMARK  7 active torsions:
REMARK  status: ('A' for Active; 'I' for Inactive)
REMARK    1  A    between atoms: N_1  and  C_2 
REMARK    2  A    between atoms: C_2  and  C_3 
REMARK    3  A    between atoms: C_6  and  C_24 
REMARK    4  A    between atoms: C_8  and  C_9 
REMARK    5  A    between atoms: C_13  and  C_15 
REMARK       I    between atoms: C_15  and  N_17 
REMARK    6  A    between atoms: N_17  and  C_18 
REMARK       I    between atoms: C_24  and  N_26 
REMARK    7  A    between atoms: N_26  and  C_27 
ROOT
HETATM    1  C   UNL     1      26.961  41.667  49.912  1.00  0.00    -0.020 A 
HETATM    2  C   UNL     1      28.022  41.088  50.633  1.00  0.00     0.011 A 
HETATM    3  C   UNL     1      28.328  41.512  51.926  1.00  0.00     0.017 A 
HETATM    4  C   UNL     1      27.573  42.518  52.536  1.00  0.00     0.033 A 
HETATM    5  C   UNL     1      26.505  43.094  51.834  1.00  0.00     0.030 A 
HETATM    6  C   UNL     1      26.173  42.674  50.527  1.00  0.00    -0.017 A 
ENDROOT
BRANCH   6   7
HETATM    7  C   UNL     1      25.026  43.301  49.845  1.00  0.00    -0.024 A 
HETATM    8  C   UNL     1      24.019  42.530  49.244  1.00  0.00     0.012 A 
HETATM    9  C   UNL     1      22.915  43.137  48.642  1.00  0.00     0.002 A 
HETATM   10  C   UNL     1      22.783  44.525  48.664  1.00  0.00     0.017 A 
HETATM   11  C   UNL     1      23.767  45.311  49.271  1.00  0.00     0.033 A 
HETATM   12  C   UNL     1      24.907  44.698  49.804  1.00  0.00     0.029 A 
BRANCH  11  13
HETATM   13  C   UNL     1      23.551  46.784  49.372  1.00  0.00     0.256 C 
HETATM   14  O   UNL     1      24.455  47.470  49.832  1.00  0.00    -0.267 OA
HETATM   15  N   UNL     1      22.338  47.228  48.872  1.00  0.00    -0.323 N 
HETATM   16  H   UNL     1      21.714  46.532  48.477  1.00  0.00     0.169 HD
BRANCH  15  17
HETATM   17  C   UNL     1      21.886  48.561  48.770  1.00  0.00     0.035 A 
HETATM   18  C   UNL     1      20.738  49.049  49.396  1.00  0.00     0.029 A 
HETATM   19  C   UNL     1      20.372  50.392  49.259  1.00  0.00     0.002 A 
HETATM   20  C   UNL     1      21.148  51.257  48.492  1.00  0.00     0.000 A 
HETATM   21  C   UNL     1      22.291  50.779  47.858  1.00  0.00     0.002 A 
HETATM   22  C   UNL     1      22.658  49.438  47.998  1.00  0.00     0.029 A 
ENDBRANCH  15  17
ENDBRANCH  11  13
ENDBRANCH   6   7
BRANCH   1  23
HETATM   23  C   UNL     1      26.737  41.197  48.488  1.00  0.00     0.306 C 
BRANCH  23  24
HETATM   24  N   UNL     1      27.992  41.065  47.744  1.00  0.00     0.082 N 
HETATM   25  H   UNL     1      28.760  41.264  48.387  1.00  0.00     0.313 HD
HETATM   26  H   UNL     1      28.105  40.085  47.482  1.00  0.00     0.313 HD
ENDBRANCH  23  24
ENDBRANCH   1  23
BRANCH   4  27
HETATM   27  C   UNL     1      27.980  42.969  53.900  1.00  0.00     0.256 C 
HETATM   28  O   UNL     1      27.147  42.919  54.799  1.00  0.00    -0.267 OA
HETATM   29  N   UNL     1      29.277  43.430  54.025  1.00  0.00    -0.320 N 
HETATM   30  H   UNL     1      29.837  43.530  53.185  1.00  0.00     0.169 HD
BRANCH  29  31
HETATM   31  C   UNL     1      29.921  43.854  55.213  1.00  0.00     0.076 A 
HETATM   32  C   UNL     1      30.861  43.101  55.912  1.00  0.00     0.052 A 
HETATM   33  C   UNL     1      31.421  43.643  57.062  1.00  0.00     0.118 A 
HETATM   34  N   UNL     1      31.116  44.866  57.552  1.00  0.00    -0.270 NA
HETATM   35  C   UNL     1      30.204  45.581  56.855  1.00  0.00     0.160 A 
HETATM   36  C   UNL     1      29.594  45.119  55.702  1.00  0.00     0.160 A 
HETATM   37  F   UNL     1      28.700  45.884  55.057  1.00  0.00    -0.202 F 
ENDBRANCH  29  31
ENDBRANCH   4  27
TORSDOF 7
ENDMDL
MODEL 10
REMARK VINA RESULT:      -9.1      2.872      4.470
REMARK  7 active torsions:
REMARK  status: ('A' for Active; 'I' for Inactive)
REMARK    1  A    between atoms: N_1  and  C_2 
REMARK    2  A    between atoms: C_2  and  C_3 
REMARK    3  A    between atoms: C_6  and  C_24 
REMARK    4  A    between atoms: C_8  and  C_9 
REMARK    5  A    between atoms: C_13  and  C_15 
REMARK       I    between atoms: C_15  and  N_17 
REMARK    6  A    between atoms: N_17  and  C_18 
REMARK       I    between atoms: C_24  and  N_26 
REMARK    7  A    between atoms: N_26  and  C_27 
ROOT
HETATM    1  C   UNL     1      24.848  48.488  49.074  1.00  0.00    -0.020 A 
HETATM    2  C   UNL     1      26.110  48.247  49.649  1.00  0.00     0.011 A 
HETATM    3  C   UNL     1      26.347  47.102  50.410  1.00  0.00     0.017 A 
HETATM    4  C   UNL     1      25.331  46.163  50.605  1.00  0.00     0.033 A 
HETATM    5  C   UNL     1      24.073  46.383  50.028  1.00  0.00     0.030 A 
HETATM    6  C   UNL     1      23.815  47.531  49.248  1.00  0.00    -0.017 A 
ENDROOT
BRANCH   6   7
HETATM    7  C   UNL     1      22.478  47.701  48.648  1.00  0.00    -0.024 A 
HETATM    8  C   UNL     1      22.091  46.980  47.507  1.00  0.00     0.012 A 
HETATM    9  C   UNL     1      20.805  47.116  46.978  1.00  0.00     0.002 A 
HETATM   10  C   UNL     1      19.876  47.946  47.603  1.00  0.00     0.017 A 
HETATM   11  C   UNL     1      20.238  48.661  48.749  1.00  0.00     0.033 A 
HETATM   12  C   UNL     1      21.549  48.577  49.229  1.00  0.00     0.029 A 
BRANCH  11  13
HETATM   13  C   UNL     1      19.195  49.460  49.458  1.00  0.00     0.256 C 
HETATM   14  O   UNL     1      19.070  49.303  50.666  1.00  0.00    -0.267 OA
HETATM   15  N   UNL     1      18.503  50.352  48.656  1.00  0.00    -0.323 N 
HETATM   16  H   UNL     1      18.763  50.396  47.676  1.00  0.00     0.169 HD
BRANCH  15  17
HETATM   17  C   UNL     1      17.518  51.281  49.054  1.00  0.00     0.035 A 
HETATM   18  C   UNL     1      17.791  52.477  49.718  1.00  0.00     0.029 A 
HETATM   19  C   UNL     1      16.754  53.352  50.059  1.00  0.00     0.002 A 
HETATM   20  C   UNL     1      15.435  53.035  49.743  1.00  0.00     0.000 A 
HETATM   21  C   UNL     1      15.151  51.842  49.087  1.00  0.00     0.002 A 
HETATM   22  C   UNL     1      16.188  50.969  48.743  1.00  0.00     0.029 A 
ENDBRANCH  15  17
ENDBRANCH  11  13
ENDBRANCH   6   7
BRANCH   1  23
HETATM   23  C   UNL     1      24.654  49.788  48.320  1.00  0.00     0.306 C 
BRANCH  23  24
HETATM   24  N   UNL     1      25.898  50.270  47.716  1.00  0.00     0.082 N 
HETATM   25  H   UNL     1      25.816  50.165  46.704  1.00  0.00     0.313 HD
HETATM   26  H   UNL     1      25.963  51.275  47.880  1.00  0.00     0.313 HD
ENDBRANCH  23  24
ENDBRANCH   1  23
BRANCH   4  27
HETATM   27  C   UNL     1      25.626  44.984  51.474  1.00  0.00     0.256 C 
HETATM   28  O   UNL     1      24.691  44.449  52.060  1.00  0.00    -0.267 OA
HETATM   29  N   UNL     1      26.953  44.608  51.557  1.00  0.00    -0.320 N 
HETATM   30  H   UNL     1      27.651  45.197  51.117  1.00  0.00     0.169 HD
BRANCH  29  31
HETATM   31  C   UNL     1      27.482  43.497  52.259  1.00  0.00     0.076 A 
HETATM   32  C   UNL     1      27.984  43.551  53.557  1.00  0.00     0.052 A 
HETATM   33  C   UNL     1      28.467  42.381  54.130  1.00  0.00     0.118 A 
HETATM   34  N   UNL     1      28.480  41.180  53.508  1.00  0.00    -0.270 NA
HETATM   35  C   UNL     1      27.984  41.151  52.250  1.00  0.00     0.160 A 
HETATM   36  C   UNL     1      27.486  42.267  51.602  1.00  0.00     0.160 A 
HETATM   37  F   UNL     1      27.005  42.164  50.353  1.00  0.00    -0.202 F 
ENDBRANCH  29  31
ENDBRANCH   4  27
TORSDOF 7
ENDMDL
