MODEL 1
REMARK VINA RESULT:      -9.9      0.000      0.000
REMARK  4 active torsions:
REMARK  status: ('A' for Active; 'I' for Inactive)
REMARK    1  A    between atoms: C_7  and  C_8 
REMARK    2  A    between atoms: C_8  and  C_9 
REMARK       I    between atoms: C_9  and  N_10 
REMARK    3  A    between atoms: N_10  and  C_11 
REMARK    4  A    between atoms: C_13  and  C_14 
ROOT
HETATM    1  C   UNL     1      25.807  46.880  52.416  1.00  0.00     0.226 C 
HETATM    2  N   UNL     1      26.243  46.845  51.098  1.00  0.00    -0.327 N 
HETATM    3  O   UNL     1      25.192  47.803  52.947  1.00  0.00    -0.273 OA
HETATM    4  H   UNL     1      26.696  45.993  50.792  1.00  0.00     0.169 HD
ENDROOT
BRANCH   1   5
HETATM    5  C   UNL     1      26.129  45.613  53.189  1.00  0.00     0.144 C 
BRANCH   5   6
HETATM    6  C   UNL     1      27.274  45.707  54.157  1.00  0.00    -0.015 A 
HETATM    7  C   UNL     1      27.519  46.629  55.168  1.00  0.00     0.013 A 
HETATM    8  C   UNL     1      26.767  47.826  55.637  1.00  0.00     0.068 C 
HETATM    9  N   UNL     1      28.678  46.254  55.806  1.00  0.00    -0.359 N 
HETATM   10  H   UNL     1      29.086  46.739  56.595  1.00  0.00     0.166 HD
HETATM   11  C   UNL     1      29.193  45.108  55.256  1.00  0.00     0.043 A 
HETATM   12  C   UNL     1      28.341  44.742  54.216  1.00  0.00     0.002 A 
HETATM   13  C   UNL     1      30.331  44.371  55.610  1.00  0.00     0.033 A 
HETATM   14  C   UNL     1      28.644  43.575  53.483  1.00  0.00     0.056 A 
HETATM   15  C   UNL     1      29.777  42.837  53.827  1.00  0.00     0.117 A 
HETATM   16  C   UNL     1      30.609  43.220  54.870  1.00  0.00     0.044 A 
HETATM   17  F   UNL     1      30.066  41.727  53.134  1.00  0.00    -0.206 F 
ENDBRANCH   5   6
ENDBRANCH   1   5
BRANCH   2  18
HETATM   18  C   UNL     1      26.076  47.848  50.118  1.00  0.00     0.035 A 
HETATM   19  C   UNL     1      24.766  48.137  49.704  1.00  0.00     0.042 A 
HETATM   20  C   UNL     1      24.503  49.143  48.756  1.00  0.00    -0.021 A 
HETATM   21  C   UNL     1      25.585  49.837  48.199  1.00  0.00     0.012 A 
HETATM   22  C   UNL     1      26.891  49.542  48.589  1.00  0.00     0.003 A 
HETATM   23  C   UNL     1      27.134  48.557  49.547  1.00  0.00     0.029 A 
BRANCH  20  24
HETATM   24  C   UNL     1      23.144  49.480  48.358  1.00  0.00     0.010 A 
HETATM   25  C   UNL     1      22.471  50.726  48.325  1.00  0.00     0.152 A 
HETATM   26  N   UNL     1      21.201  50.623  47.928  1.00  0.00    -0.187 NA
HETATM   27  N   UNL     1      21.046  49.309  47.714  1.00  0.00    -0.289 N 
HETATM   28  H   UNL     1      20.137  48.976  47.409  1.00  0.00     0.188 HD
HETATM   29  C   UNL     1      22.176  48.581  47.955  1.00  0.00     0.123 A 
ENDBRANCH  20  24
ENDBRANCH   2  18
TORSDOF 4
ENDMDL
MODEL 2
REMARK VINA RESULT:      -9.9      2.180      3.024
REMARK  4 active torsions:
REMARK  status: ('A' for Active; 'I' for Inactive)
REMARK    1  A    between atoms: C_7  and  C_8 
REMARK    2  A    between atoms: C_8  and  C_9 
REMARK       I    between atoms: C_9  and  N_10 
REMARK    3  A    between atoms: N_10  and  C_11 
REMARK    4  A    between atoms: C_13  and  C_14 
ROOT
HETATM    1  C   UNL     1      26.593  44.958  50.580  1.00  0.00     0.226 C 
HETATM    2  N   UNL     1      26.002  46.182  50.860  1.00  0.00    -0.327 N 
HETATM    3  O   UNL     1      27.255  44.689  49.579  1.00  0.00    -0.273 OA
HETATM    4  H   UNL     1      25.526  46.265  51.750  1.00  0.00     0.169 HD
ENDROOT
BRANCH   1   5
HETATM    5  C   UNL     1      26.382  43.925  51.673  1.00  0.00     0.144 C 
BRANCH   5   6
HETATM    6  C   UNL     1      27.623  43.258  52.195  1.00  0.00    -0.015 A 
HETATM    7  C   UNL     1      28.320  42.157  51.711  1.00  0.00     0.013 A 
HETATM    8  C   UNL     1      28.091  41.261  50.543  1.00  0.00     0.068 C 
HETATM    9  N   UNL     1      29.419  41.968  52.515  1.00  0.00    -0.359 N 
HETATM   10  H   UNL     1      30.113  41.244  52.383  1.00  0.00     0.166 HD
HETATM   11  C   UNL     1      29.474  42.919  53.502  1.00  0.00     0.043 A 
HETATM   12  C   UNL     1      28.360  43.739  53.335  1.00  0.00     0.002 A 
HETATM   13  C   UNL     1      30.426  43.115  54.511  1.00  0.00     0.033 A 
HETATM   14  C   UNL     1      28.184  44.817  54.228  1.00  0.00     0.056 A 
HETATM   15  C   UNL     1      29.125  45.018  55.237  1.00  0.00     0.117 A 
HETATM   16  C   UNL     1      30.230  44.189  55.382  1.00  0.00     0.044 A 
HETATM   17  F   UNL     1      28.961  46.043  56.086  1.00  0.00    -0.206 F 
ENDBRANCH   5   6
ENDBRANCH   1   5
BRANCH   2  18
HETATM   18  C   UNL     1      26.037  47.348  50.064  1.00  0.00     0.035 A 
HETATM   19  C   UNL     1      24.807  47.916  49.692  1.00  0.00     0.042 A 
HETATM   20  C   UNL     1      24.747  49.096  48.927  1.00  0.00    -0.021 A 
HETATM   21  C   UNL     1      25.947  49.683  48.508  1.00  0.00     0.012 A 
HETATM   22  C   UNL     1      27.172  49.115  48.855  1.00  0.00     0.003 A 
HETATM   23  C   UNL     1      27.216  47.958  49.633  1.00  0.00     0.029 A 
BRANCH  20  24
HETATM   24  C   UNL     1      23.476  49.714  48.579  1.00  0.00     0.010 A 
HETATM   25  C   UNL     1      22.977  51.014  48.842  1.00  0.00     0.152 A 
HETATM   26  N   UNL     1      21.736  51.199  48.386  1.00  0.00    -0.187 NA
HETATM   27  N   UNL     1      21.426  50.016  47.837  1.00  0.00    -0.289 N 
HETATM   28  H   UNL     1      20.506  49.905  47.423  1.00  0.00     0.188 HD
HETATM   29  C   UNL     1      22.430  49.094  47.924  1.00  0.00     0.123 A 
ENDBRANCH  20  24
ENDBRANCH   2  18
TORSDOF 4
ENDMDL
MODEL 3
REMARK VINA RESULT:      -9.7      2.674      3.595
REMARK  4 active torsions:
REMARK  status: ('A' for Active; 'I' for Inactive)
REMARK    1  A    between atoms: C_7  and  C_8 
REMARK    2  A    between atoms: C_8  and  C_9 
REMARK       I    between atoms: C_9  and  N_10 
REMARK    3  A    between atoms: N_10  and  C_11 
REMARK    4  A    between atoms: C_13  and  C_14 
ROOT
HETATM    1  C   UNL     1      27.540  43.798  52.703  1.00  0.00     0.226 C 
HETATM    2  N   UNL     1      27.534  44.182  51.369  1.00  0.00    -0.327 N 
HETATM    3  O   UNL     1      26.578  43.360  53.331  1.00  0.00    -0.273 OA
HETATM    4  H   UNL     1      28.420  44.479  50.977  1.00  0.00     0.169 HD
ENDROOT
BRANCH   1   5
HETATM    5  C   UNL     1      28.903  43.928  53.359  1.00  0.00     0.144 C 
BRANCH   5   6
HETATM    6  C   UNL     1      28.968  44.824  54.564  1.00  0.00    -0.015 A 
HETATM    7  C   UNL     1      28.220  45.949  54.886  1.00  0.00     0.013 A 
HETATM    8  C   UNL     1      27.123  46.661  54.172  1.00  0.00     0.068 C 
HETATM    9  N   UNL     1      28.629  46.388  56.123  1.00  0.00    -0.359 N 
HETATM   10  H   UNL     1      28.242  47.184  56.612  1.00  0.00     0.166 HD
HETATM   11  C   UNL     1      29.613  45.577  56.630  1.00  0.00     0.043 A 
HETATM   12  C   UNL     1      29.854  44.590  55.676  1.00  0.00     0.002 A 
HETATM   13  C   UNL     1      30.289  45.638  57.856  1.00  0.00     0.033 A 
HETATM   14  C   UNL     1      30.828  43.610  55.959  1.00  0.00     0.056 A 
HETATM   15  C   UNL     1      31.508  43.666  57.176  1.00  0.00     0.117 A 
HETATM   16  C   UNL     1      31.247  44.656  58.114  1.00  0.00     0.044 A 
HETATM   17  F   UNL     1      32.433  42.735  57.449  1.00  0.00    -0.206 F 
ENDBRANCH   5   6
ENDBRANCH   1   5
BRANCH   2  18
HETATM   18  C   UNL     1      26.438  44.154  50.478  1.00  0.00     0.035 A 
HETATM   19  C   UNL     1      25.642  45.308  50.395  1.00  0.00     0.042 A 
HETATM   20  C   UNL     1      24.549  45.382  49.511  1.00  0.00    -0.021 A 
HETATM   21  C   UNL     1      24.245  44.260  48.730  1.00  0.00     0.012 A 
HETATM   22  C   UNL     1      25.018  43.103  48.820  1.00  0.00     0.003 A 
HETATM   23  C   UNL     1      26.112  43.054  49.686  1.00  0.00     0.029 A 
BRANCH  20  24
HETATM   24  C   UNL     1      23.749  46.591  49.387  1.00  0.00     0.010 A 
HETATM   25  C   UNL     1      22.553  46.839  48.670  1.00  0.00     0.152 A 
HETATM   26  N   UNL     1      22.134  48.103  48.775  1.00  0.00    -0.187 NA
HETATM   27  N   UNL     1      23.064  48.677  49.551  1.00  0.00    -0.289 N 
HETATM   28  H   UNL     1      22.967  49.663  49.768  1.00  0.00     0.188 HD
HETATM   29  C   UNL     1      24.051  47.818  49.945  1.00  0.00     0.123 A 
ENDBRANCH  20  24
ENDBRANCH   2  18
TORSDOF 4
ENDMDL
MODEL 4
REMARK VINA RESULT:      -9.5      5.010      6.540
REMARK  4 active torsions:
REMARK  status: ('A' for Active; 'I' for Inactive)
REMARK    1  A    between atoms: C_7  and  C_8 
REMARK    2  A    between atoms: C_8  and  C_9 
REMARK       I    between atoms: C_9  and  N_10 
REMARK    3  A    between atoms: N_10  and  C_11 
REMARK    4  A    between atoms: C_13  and  C_14 
ROOT
HETATM    1  C   UNL     1      28.764  41.536  52.633  1.00  0.00     0.226 C 
HETATM    2  N   UNL     1      28.816  41.482  51.247  1.00  0.00    -0.327 N 
HETATM    3  O   UNL     1      27.982  40.915  53.349  1.00  0.00    -0.273 OA
HETATM    4  H   UNL     1      29.549  42.017  50.797  1.00  0.00     0.169 HD
ENDROOT
BRANCH   1   5
HETATM    5  C   UNL     1      29.822  42.441  53.238  1.00  0.00     0.144 C 
BRANCH   5   6
HETATM    6  C   UNL     1      29.312  43.643  53.982  1.00  0.00    -0.015 A 
HETATM    7  C   UNL     1      28.241  44.484  53.701  1.00  0.00     0.013 A 
HETATM    8  C   UNL     1      27.250  44.505  52.590  1.00  0.00     0.068 C 
HETATM    9  N   UNL     1      28.157  45.410  54.713  1.00  0.00    -0.359 N 
HETATM   10  H   UNL     1      27.457  46.137  54.774  1.00  0.00     0.166 HD
HETATM   11  C   UNL     1      29.129  45.195  55.657  1.00  0.00     0.043 A 
HETATM   12  C   UNL     1      29.874  44.100  55.227  1.00  0.00     0.002 A 
HETATM   13  C   UNL     1      29.389  45.877  56.854  1.00  0.00     0.033 A 
HETATM   14  C   UNL     1      30.944  43.660  56.035  1.00  0.00     0.056 A 
HETATM   15  C   UNL     1      31.212  44.335  57.226  1.00  0.00     0.117 A 
HETATM   16  C   UNL     1      30.452  45.423  57.636  1.00  0.00     0.044 A 
HETATM   17  F   UNL     1      32.226  43.919  57.997  1.00  0.00    -0.206 F 
ENDBRANCH   5   6
ENDBRANCH   1   5
BRANCH   2  18
HETATM   18  C   UNL     1      27.992  40.717  50.392  1.00  0.00     0.035 A 
HETATM   19  C   UNL     1      26.737  41.249  50.056  1.00  0.00     0.042 A 
HETATM   20  C   UNL     1      25.863  40.572  49.184  1.00  0.00    -0.021 A 
HETATM   21  C   UNL     1      26.256  39.327  48.678  1.00  0.00     0.012 A 
HETATM   22  C   UNL     1      27.492  38.781  49.023  1.00  0.00     0.003 A 
HETATM   23  C   UNL     1      28.357  39.476  49.870  1.00  0.00     0.029 A 
BRANCH  20  24
HETATM   24  C   UNL     1      24.581  41.141  48.795  1.00  0.00     0.010 A 
HETATM   25  C   UNL     1      23.782  42.132  49.418  1.00  0.00     0.152 A 
HETATM   26  N   UNL     1      22.639  42.365  48.767  1.00  0.00    -0.187 NA
HETATM   27  N   UNL     1      22.693  41.519  47.729  1.00  0.00    -0.289 N 
HETATM   28  H   UNL     1      21.913  41.503  47.080  1.00  0.00     0.188 HD
HETATM   29  C   UNL     1      23.832  40.765  47.698  1.00  0.00     0.123 A 
ENDBRANCH  20  24
ENDBRANCH   2  18
TORSDOF 4
ENDMDL
MODEL 5
REMARK VINA RESULT:      -9.2      4.860      8.203
REMARK  4 active torsions:
REMARK  status: ('A' for Active; 'I' for Inactive)
REMARK    1  A    between atoms: C_7  and  C_8 
REMARK    2  A    between atoms: C_8  and  C_9 
REMARK       I    between atoms: C_9  and  N_10 
REMARK    3  A    between atoms: N_10  and  C_11 
REMARK    4  A    between atoms: C_13  and  C_14 
ROOT
HETATM    1  C   UNL     1      27.083  43.579  51.323  1.00  0.00     0.226 C 
HETATM    2  N   UNL     1      26.631  43.830  52.611  1.00  0.00    -0.327 N 
HETATM    3  O   UNL     1      27.810  44.315  50.658  1.00  0.00    -0.273 OA
HETATM    4  H   UNL     1      26.076  43.105  53.048  1.00  0.00     0.169 HD
ENDROOT
BRANCH   1   5
HETATM    5  C   UNL     1      26.620  42.241  50.775  1.00  0.00     0.144 C 
BRANCH   5   6
HETATM    6  C   UNL     1      27.618  41.121  50.847  1.00  0.00    -0.015 A 
HETATM    7  C   UNL     1      28.379  40.665  51.918  1.00  0.00     0.013 A 
HETATM    8  C   UNL     1      28.486  41.115  53.333  1.00  0.00     0.068 C 
HETATM    9  N   UNL     1      29.106  39.581  51.486  1.00  0.00    -0.359 N 
HETATM   10  H   UNL     1      29.736  39.040  52.064  1.00  0.00     0.166 HD
HETATM   11  C   UNL     1      28.835  39.301  50.171  1.00  0.00     0.043 A 
HETATM   12  C   UNL     1      27.912  40.250  49.738  1.00  0.00     0.002 A 
HETATM   13  C   UNL     1      29.327  38.279  49.348  1.00  0.00     0.033 A 
HETATM   14  C   UNL     1      27.455  40.178  48.405  1.00  0.00     0.056 A 
HETATM   15  C   UNL     1      27.942  39.166  47.578  1.00  0.00     0.117 A 
HETATM   16  C   UNL     1      28.859  38.228  48.033  1.00  0.00     0.044 A 
HETATM   17  F   UNL     1      27.507  39.094  46.312  1.00  0.00    -0.206 F 
ENDBRANCH   5   6
ENDBRANCH   1   5
BRANCH   2  18
HETATM   18  C   UNL     1      26.906  44.966  53.405  1.00  0.00     0.035 A 
HETATM   19  C   UNL     1      27.789  44.803  54.485  1.00  0.00     0.042 A 
HETATM   20  C   UNL     1      28.146  45.886  55.310  1.00  0.00    -0.021 A 
HETATM   21  C   UNL     1      27.573  47.138  55.054  1.00  0.00     0.012 A 
HETATM   22  C   UNL     1      26.680  47.305  53.996  1.00  0.00     0.003 A 
HETATM   23  C   UNL     1      26.354  46.226  53.174  1.00  0.00     0.029 A 
BRANCH  20  24
HETATM   24  C   UNL     1      29.097  45.732  56.401  1.00  0.00     0.010 A 
HETATM   25  C   UNL     1      29.040  46.174  57.746  1.00  0.00     0.152 A 
HETATM   26  N   UNL     1      30.137  45.866  58.443  1.00  0.00    -0.187 NA
HETATM   27  N   UNL     1      30.909  45.236  57.547  1.00  0.00    -0.289 N 
HETATM   28  H   UNL     1      31.823  44.908  57.845  1.00  0.00     0.188 HD
HETATM   29  C   UNL     1      30.335  45.128  56.312  1.00  0.00     0.123 A 
ENDBRANCH  20  24
ENDBRANCH   2  18
TORSDOF 4
ENDMDL
MODEL 6
REMARK VINA RESULT:      -9.2      4.190      6.761
REMARK  4 active torsions:
REMARK  status: ('A' for Active; 'I' for Inactive)
REMARK    1  A    between atoms: C_7  and  C_8 
REMARK    2  A    between atoms: C_8  and  C_9 
REMARK       I    between atoms: C_9  and  N_10 
REMARK    3  A    between atoms: N_10  and  C_11 
REMARK    4  A    between atoms: C_13  and  C_14 
ROOT
HETATM    1  C   UNL     1      25.754  44.836  52.685  1.00  0.00     0.226 C 
HETATM    2  N   UNL     1      26.233  44.479  51.433  1.00  0.00    -0.327 N 
HETATM    3  O   UNL     1      25.047  44.141  53.412  1.00  0.00    -0.273 OA
HETATM    4  H   UNL     1      26.845  45.142  50.973  1.00  0.00     0.169 HD
ENDROOT
BRANCH   1   5
HETATM    5  C   UNL     1      26.220  46.210  53.136  1.00  0.00     0.144 C 
BRANCH   5   6
HETATM    6  C   UNL     1      27.234  46.229  54.244  1.00  0.00    -0.015 A 
HETATM    7  C   UNL     1      27.351  47.077  55.338  1.00  0.00     0.013 A 
HETATM    8  C   UNL     1      26.546  48.247  55.789  1.00  0.00     0.068 C 
HETATM    9  N   UNL     1      28.421  46.652  56.090  1.00  0.00    -0.359 N 
HETATM   10  H   UNL     1      28.726  47.078  56.954  1.00  0.00     0.166 HD
HETATM   11  C   UNL     1      29.001  45.541  55.531  1.00  0.00     0.043 A 
HETATM   12  C   UNL     1      28.286  45.252  54.371  1.00  0.00     0.002 A 
HETATM   13  C   UNL     1      30.086  44.772  55.974  1.00  0.00     0.033 A 
HETATM   14  C   UNL     1      28.678  44.135  53.604  1.00  0.00     0.056 A 
HETATM   15  C   UNL     1      29.760  43.366  54.036  1.00  0.00     0.117 A 
HETATM   16  C   UNL     1      30.455  43.671  55.199  1.00  0.00     0.044 A 
HETATM   17  F   UNL     1      30.134  42.303  53.310  1.00  0.00    -0.206 F 
ENDBRANCH   5   6
ENDBRANCH   1   5
BRANCH   2  18
HETATM   18  C   UNL     1      26.006  43.264  50.747  1.00  0.00     0.035 A 
HETATM   19  C   UNL     1      27.002  42.278  50.829  1.00  0.00     0.042 A 
HETATM   20  C   UNL     1      26.846  41.026  50.206  1.00  0.00    -0.021 A 
HETATM   21  C   UNL     1      25.682  40.789  49.464  1.00  0.00     0.012 A 
HETATM   22  C   UNL     1      24.697  41.770  49.360  1.00  0.00     0.003 A 
HETATM   23  C   UNL     1      24.856  42.999  50.003  1.00  0.00     0.029 A 
BRANCH  20  24
HETATM   24  C   UNL     1      27.854  39.983  50.327  1.00  0.00     0.010 A 
HETATM   25  C   UNL     1      28.081  38.821  49.549  1.00  0.00     0.152 A 
HETATM   26  N   UNL     1      29.096  38.081  50.000  1.00  0.00    -0.187 NA
HETATM   27  N   UNL     1      29.520  38.756  51.077  1.00  0.00    -0.289 N 
HETATM   28  H   UNL     1      30.296  38.375  51.609  1.00  0.00     0.188 HD
HETATM   29  C   UNL     1      28.813  39.900  51.317  1.00  0.00     0.123 A 
ENDBRANCH  20  24
ENDBRANCH   2  18
TORSDOF 4
ENDMDL
MODEL 7
REMARK VINA RESULT:      -9.1      4.511      7.848
REMARK  4 active torsions:
REMARK  status: ('A' for Active; 'I' for Inactive)
REMARK    1  A    between atoms: C_7  and  C_8 
REMARK    2  A    between atoms: C_8  and  C_9 
REMARK       I    between atoms: C_9  and  N_10 
REMARK    3  A    between atoms: N_10  and  C_11 
REMARK    4  A    between atoms: C_13  and  C_14 
ROOT
HETATM    1  C   UNL     1      28.551  41.338  52.361  1.00  0.00     0.226 C 
HETATM    2  N   UNL     1      29.186  42.571  52.407  1.00  0.00    -0.327 N 
HETATM    3  O   UNL     1      27.948  40.803  53.290  1.00  0.00    -0.273 OA
HETATM    4  H   UNL     1      29.601  42.901  51.544  1.00  0.00     0.169 HD
ENDROOT
BRANCH   1   5
HETATM    5  C   UNL     1      28.624  40.675  50.997  1.00  0.00     0.144 C 
BRANCH   5   6
HETATM    6  C   UNL     1      27.346  40.653  50.207  1.00  0.00    -0.015 A 
HETATM    7  C   UNL     1      26.606  39.578  49.729  1.00  0.00     0.013 A 
HETATM    8  C   UNL     1      26.811  38.105  49.812  1.00  0.00     0.068 C 
HETATM    9  N   UNL     1      25.488  40.080  49.107  1.00  0.00    -0.359 N 
HETATM   10  H   UNL     1      24.763  39.519  48.679  1.00  0.00     0.166 HD
HETATM   11  C   UNL     1      25.462  41.450  49.175  1.00  0.00     0.043 A 
HETATM   12  C   UNL     1      26.615  41.842  49.853  1.00  0.00     0.002 A 
HETATM   13  C   UNL     1      24.505  42.358  48.702  1.00  0.00     0.033 A 
HETATM   14  C   UNL     1      26.827  43.220  50.068  1.00  0.00     0.056 A 
HETATM   15  C   UNL     1      25.881  44.131  49.598  1.00  0.00     0.117 A 
HETATM   16  C   UNL     1      24.737  43.716  48.928  1.00  0.00     0.044 A 
HETATM   17  F   UNL     1      26.079  45.441  49.803  1.00  0.00    -0.206 F 
ENDBRANCH   5   6
ENDBRANCH   1   5
BRANCH   2  18
HETATM   18  C   UNL     1      29.274  43.445  53.513  1.00  0.00     0.035 A 
HETATM   19  C   UNL     1      28.366  44.516  53.566  1.00  0.00     0.042 A 
HETATM   20  C   UNL     1      28.359  45.417  54.646  1.00  0.00    -0.021 A 
HETATM   21  C   UNL     1      29.305  45.247  55.664  1.00  0.00     0.012 A 
HETATM   22  C   UNL     1      30.223  44.199  55.611  1.00  0.00     0.003 A 
HETATM   23  C   UNL     1      30.203  43.300  54.543  1.00  0.00     0.029 A 
BRANCH  20  24
HETATM   24  C   UNL     1      27.390  46.500  54.729  1.00  0.00     0.010 A 
HETATM   25  C   UNL     1      26.304  46.837  53.883  1.00  0.00     0.152 A 
HETATM   26  N   UNL     1      25.658  47.937  54.277  1.00  0.00    -0.187 NA
HETATM   27  N   UNL     1      26.331  48.319  55.372  1.00  0.00    -0.289 N 
HETATM   28  H   UNL     1      26.026  49.159  55.854  1.00  0.00     0.188 HD
HETATM   29  C   UNL     1      27.374  47.495  55.686  1.00  0.00     0.123 A 
ENDBRANCH  20  24
ENDBRANCH   2  18
TORSDOF 4
ENDMDL
MODEL 8
REMARK VINA RESULT:      -9.1      4.805     10.168
REMARK  4 active torsions:
REMARK  status: ('A' for Active; 'I' for Inactive)
REMARK    1  A    between atoms: C_7  and  C_8 
REMARK    2  A    between atoms: C_8  and  C_9 
REMARK       I    between atoms: C_9  and  N_10 
REMARK    3  A    between atoms: N_10  and  C_11 
REMARK    4  A    between atoms: C_13  and  C_14 
ROOT
HETATM    1  C   UNL     1      22.498  50.639  49.077  1.00  0.00     0.226 C 
HETATM    2  N   UNL     1      23.419  49.887  48.362  1.00  0.00    -0.327 N 
HETATM    3  O   UNL     1      22.515  50.836  50.291  1.00  0.00    -0.273 OA
HETATM    4  H   UNL     1      23.299  49.855  47.357  1.00  0.00     0.169 HD
ENDROOT
BRANCH   1   5
HETATM    5  C   UNL     1      21.426  51.265  48.203  1.00  0.00     0.144 C 
BRANCH   5   6
HETATM    6  C   UNL     1      20.120  50.525  48.131  1.00  0.00    -0.015 A 
HETATM    7  C   UNL     1      19.853  49.213  47.757  1.00  0.00     0.013 A 
HETATM    8  C   UNL     1      20.733  48.105  47.293  1.00  0.00     0.068 C 
HETATM    9  N   UNL     1      18.503  49.000  47.906  1.00  0.00    -0.359 N 
HETATM   10  H   UNL     1      18.032  48.125  47.720  1.00  0.00     0.166 HD
HETATM   11  C   UNL     1      17.878  50.125  48.382  1.00  0.00     0.043 A 
HETATM   12  C   UNL     1      18.861  51.101  48.528  1.00  0.00     0.002 A 
HETATM   13  C   UNL     1      16.531  50.340  48.702  1.00  0.00     0.033 A 
HETATM   14  C   UNL     1      18.478  52.368  49.018  1.00  0.00     0.056 A 
HETATM   15  C   UNL     1      17.138  52.591  49.336  1.00  0.00     0.117 A 
HETATM   16  C   UNL     1      16.177  51.601  49.186  1.00  0.00     0.044 A 
HETATM   17  F   UNL     1      16.772  53.793  49.804  1.00  0.00    -0.206 F 
ENDBRANCH   5   6
ENDBRANCH   1   5
BRANCH   2  18
HETATM   18  C   UNL     1      24.544  49.203  48.875  1.00  0.00     0.035 A 
HETATM   19  C   UNL     1      24.305  48.106  49.718  1.00  0.00     0.042 A 
HETATM   20  C   UNL     1      25.364  47.346  50.249  1.00  0.00    -0.021 A 
HETATM   21  C   UNL     1      26.677  47.726  49.946  1.00  0.00     0.012 A 
HETATM   22  C   UNL     1      26.924  48.827  49.126  1.00  0.00     0.003 A 
HETATM   23  C   UNL     1      25.863  49.557  48.590  1.00  0.00     0.029 A 
BRANCH  20  24
HETATM   24  C   UNL     1      25.121  46.180  51.085  1.00  0.00     0.010 A 
HETATM   25  C   UNL     1      24.361  45.009  50.842  1.00  0.00     0.152 A 
HETATM   26  N   UNL     1      24.349  44.169  51.880  1.00  0.00    -0.187 NA
HETATM   27  N   UNL     1      25.093  44.799  52.799  1.00  0.00    -0.289 N 
HETATM   28  H   UNL     1      25.224  44.351  53.701  1.00  0.00     0.188 HD
HETATM   29  C   UNL     1      25.579  46.004  52.376  1.00  0.00     0.123 A 
ENDBRANCH  20  24
ENDBRANCH   2  18
TORSDOF 4
ENDMDL
MODEL 9
REMARK VINA RESULT:      -9.0      5.937      8.164
REMARK  4 active torsions:
REMARK  status: ('A' for Active; 'I' for Inactive)
REMARK    1  A    between atoms: C_7  and  C_8 
REMARK    2  A    between atoms: C_8  and  C_9 
REMARK       I    between atoms: C_9  and  N_10 
REMARK    3  A    between atoms: N_10  and  C_11 
REMARK    4  A    between atoms: C_13  and  C_14 
ROOT
HETATM    1  C   UNL     1      27.749  41.411  51.954  1.00  0.00     0.226 C 
HETATM    2  N   UNL     1      26.597  40.737  51.573  1.00  0.00    -0.327 N 
HETATM    3  O   UNL     1      28.610  41.853  51.195  1.00  0.00    -0.273 OA
HETATM    4  H   UNL     1      25.958  40.476  52.313  1.00  0.00     0.169 HD
ENDROOT
BRANCH   1   5
HETATM    5  C   UNL     1      27.861  41.608  53.455  1.00  0.00     0.144 C 
BRANCH   5   6
HETATM    6  C   UNL     1      27.914  43.033  53.929  1.00  0.00    -0.015 A 
HETATM    7  C   UNL     1      27.003  44.069  53.760  1.00  0.00     0.013 A 
HETATM    8  C   UNL     1      25.690  44.144  53.059  1.00  0.00     0.068 C 
HETATM    9  N   UNL     1      27.488  45.170  54.425  1.00  0.00    -0.359 N 
HETATM   10  H   UNL     1      27.019  46.064  54.482  1.00  0.00     0.166 HD
HETATM   11  C   UNL     1      28.682  44.885  55.038  1.00  0.00     0.043 A 
HETATM   12  C   UNL     1      28.981  43.557  54.743  1.00  0.00     0.002 A 
HETATM   13  C   UNL     1      29.501  45.697  55.835  1.00  0.00     0.033 A 
HETATM   14  C   UNL     1      30.168  43.006  55.270  1.00  0.00     0.056 A 
HETATM   15  C   UNL     1      30.991  43.808  56.061  1.00  0.00     0.117 A 
HETATM   16  C   UNL     1      30.670  45.128  56.345  1.00  0.00     0.044 A 
HETATM   17  F   UNL     1      32.119  43.287  56.564  1.00  0.00    -0.206 F 
ENDBRANCH   5   6
ENDBRANCH   1   5
BRANCH   2  18
HETATM   18  C   UNL     1      26.188  40.422  50.258  1.00  0.00     0.035 A 
HETATM   19  C   UNL     1      26.713  39.255  49.679  1.00  0.00     0.042 A 
HETATM   20  C   UNL     1      26.337  38.846  48.387  1.00  0.00    -0.021 A 
HETATM   21  C   UNL     1      25.446  39.649  47.664  1.00  0.00     0.012 A 
HETATM   22  C   UNL     1      24.936  40.820  48.223  1.00  0.00     0.003 A 
HETATM   23  C   UNL     1      25.301  41.201  49.515  1.00  0.00     0.029 A 
BRANCH  20  24
HETATM   24  C   UNL     1      26.841  37.613  47.800  1.00  0.00     0.010 A 
HETATM   25  C   UNL     1      27.612  37.391  46.633  1.00  0.00     0.152 A 
HETATM   26  N   UNL     1      27.851  36.098  46.403  1.00  0.00    -0.187 NA
HETATM   27  N   UNL     1      27.226  35.480  47.415  1.00  0.00    -0.289 N 
HETATM   28  H   UNL     1      27.257  34.466  47.452  1.00  0.00     0.188 HD
HETATM   29  C   UNL     1      26.607  36.339  48.279  1.00  0.00     0.123 A 
ENDBRANCH  20  24
ENDBRANCH   2  18
TORSDOF 4
ENDMDL
MODEL 10
REMARK VINA RESULT:      -8.9      4.933      8.784
REMARK  4 active torsions:
REMARK  status: ('A' for Active; 'I' for Inactive)
REMARK    1  A    between atoms: C_7  and  C_8 
REMARK    2  A    between atoms: C_8  and  C_9 
REMARK       I    between atoms: C_9  and  N_10 
REMARK    3  A    between atoms: N_10  and  C_11 
REMARK    4  A    between atoms: C_13  and  C_14 
ROOT
HETATM    1  C   UNL     1      27.720  42.821  52.358  1.00  0.00     0.226 C 
HETATM    2  N   UNL     1      27.019  43.589  53.277  1.00  0.00    -0.327 N 
HETATM    3  O   UNL     1      28.900  42.969  52.046  1.00  0.00    -0.273 OA
HETATM    4  H   UNL     1      26.062  43.314  53.464  1.00  0.00     0.169 HD
ENDROOT
BRANCH   1   5
HETATM    5  C   UNL     1      26.892  41.699  51.757  1.00  0.00     0.144 C 
BRANCH   5   6
HETATM    6  C   UNL     1      26.946  41.572  50.261  1.00  0.00    -0.015 A 
HETATM    7  C   UNL     1      26.468  42.423  49.271  1.00  0.00     0.013 A 
HETATM    8  C   UNL     1      25.742  43.722  49.331  1.00  0.00     0.068 C 
HETATM    9  N   UNL     1      26.807  41.884  48.052  1.00  0.00    -0.359 N 
HETATM   10  H   UNL     1      26.598  42.303  47.157  1.00  0.00     0.166 HD
HETATM   11  C   UNL     1      27.505  40.713  48.211  1.00  0.00     0.043 A 
HETATM   12  C   UNL     1      27.605  40.486  49.582  1.00  0.00     0.002 A 
HETATM   13  C   UNL     1      28.061  39.858  47.250  1.00  0.00     0.033 A 
HETATM   14  C   UNL     1      28.295  39.336  50.020  1.00  0.00     0.056 A 
HETATM   15  C   UNL     1      28.848  38.477  49.070  1.00  0.00     0.117 A 
HETATM   16  C   UNL     1      28.740  38.728  47.708  1.00  0.00     0.044 A 
HETATM   17  F   UNL     1      29.506  37.385  49.483  1.00  0.00    -0.206 F 
ENDBRANCH   5   6
ENDBRANCH   1   5
BRANCH   2  18
HETATM   18  C   UNL     1      27.509  44.682  54.025  1.00  0.00     0.035 A 
HETATM   19  C   UNL     1      28.466  44.412  55.016  1.00  0.00     0.042 A 
HETATM   20  C   UNL     1      29.033  45.443  55.788  1.00  0.00    -0.021 A 
HETATM   21  C   UNL     1      28.597  46.756  55.572  1.00  0.00     0.012 A 
HETATM   22  C   UNL     1      27.632  47.032  54.604  1.00  0.00     0.003 A 
HETATM   23  C   UNL     1      27.096  46.000  53.832  1.00  0.00     0.029 A 
BRANCH  20  24
HETATM   24  C   UNL     1      30.060  45.174  56.784  1.00  0.00     0.010 A 
HETATM   25  C   UNL     1      31.024  44.138  56.862  1.00  0.00     0.152 A 
HETATM   26  N   UNL     1      31.780  44.211  57.960  1.00  0.00    -0.187 NA
HETATM   27  N   UNL     1      31.299  45.286  58.600  1.00  0.00    -0.289 N 
HETATM   28  H   UNL     1      31.716  45.543  59.488  1.00  0.00     0.188 HD
HETATM   29  C   UNL     1      30.271  45.899  57.940  1.00  0.00     0.123 A 
ENDBRANCH  20  24
ENDBRANCH   2  18
TORSDOF 4
ENDMDL
