MODEL 1
REMARK VINA RESULT:      -8.5      0.000      0.000
REMARK  6 active torsions:
REMARK  status: ('A' for Active; 'I' for Inactive)
REMARK    1  A    between atoms: O_2  and  C_3 
REMARK    2  A    between atoms: C_3  and  C_4 
REMARK    3  A    between atoms: C_4  and  N_5 
REMARK       I    between atoms: N_5  and  C_6 
REMARK    4  A    between atoms: C_6  and  C_7 
REMARK    5  A    between atoms: C_12  and  C_13 
REMARK    6  A    between atoms: C_21  and  C_22 
ROOT
HETATM    1  C   UNL     1      24.033  46.380  49.597  1.00  0.00     0.170 A 
HETATM    2  N   UNL     1      23.666  45.121  49.949  1.00  0.00    -0.163 NA
HETATM    3  N   UNL     1      24.755  44.634  50.563  1.00  0.00    -0.238 N 
HETATM    4  C   UNL     1      25.785  45.525  50.676  1.00  0.00     0.145 A 
HETATM    5  N   UNL     1      26.931  45.193  51.325  1.00  0.00    -0.365 N 
HETATM    6  C   UNL     1      27.195  43.810  51.708  1.00  0.00     0.118 C 
HETATM    7  C   UNL     1      25.881  43.143  52.154  1.00  0.00     0.066 C 
HETATM    8  C   UNL     1      24.795  43.273  51.070  1.00  0.00     0.221 C 
HETATM    9  C   UNL     1      25.352  46.670  50.047  1.00  0.00     0.115 A 
HETATM   10 CL   UNL     1      26.225  48.113  49.860  1.00  0.00    -0.077 Cl
HETATM   11  H   UNL     1      27.756  45.787  51.222  1.00  0.00     0.162 HD
ENDROOT
BRANCH   1  12
HETATM   12  C   UNL     1      23.111  47.251  48.848  1.00  0.00     0.273 C 
HETATM   13  N   UNL     1      22.708  48.354  49.567  1.00  0.00    -0.353 N 
HETATM   14  H   UNL     1      23.200  48.518  50.443  1.00  0.00     0.162 HD
HETATM   15  O   UNL     1      22.736  47.024  47.703  1.00  0.00    -0.266 OA
BRANCH  13  16
HETATM   16  C   UNL     1      21.950  49.441  48.985  1.00  0.00     0.149 C 
BRANCH  16  17
HETATM   17  C   UNL     1      22.855  50.612  48.608  1.00  0.00     0.186 C 
BRANCH  17  18
HETATM   18  O   UNL     1      23.581  50.280  47.419  1.00  0.00    -0.394 OA
HETATM   19  C   UNL     1      24.984  50.268  47.653  1.00  0.00     0.201 C 
ENDBRANCH  17  18
ENDBRANCH  16  17
ENDBRANCH  13  16
ENDBRANCH   1  12
BRANCH   8  20
HETATM   20  C   UNL     1      25.015  42.306  49.925  1.00  0.00     0.409 C 
HETATM   21  F   UNL     1      25.656  41.179  50.304  1.00  0.00    -0.169 F 
HETATM   22  F   UNL     1      23.818  41.916  49.414  1.00  0.00    -0.169 F 
HETATM   23  F   UNL     1      25.707  42.851  48.904  1.00  0.00    -0.169 F 
ENDBRANCH   8  20
BRANCH   6  24
HETATM   24  C   UNL     1      28.233  43.756  52.816  1.00  0.00    -0.035 A 
HETATM   25  C   UNL     1      28.089  44.500  53.999  1.00  0.00     0.011 A 
HETATM   26  C   UNL     1      29.045  44.418  55.014  1.00  0.00     0.024 A 
HETATM   27  C   UNL     1      30.151  43.586  54.858  1.00  0.00     0.034 A 
HETATM   28 CL   UNL     1      31.328  43.481  56.109  1.00  0.00    -0.084 Cl
HETATM   29  C   UNL     1      30.308  42.835  53.696  1.00  0.00     0.024 A 
HETATM   30  C   UNL     1      29.353  42.918  52.680  1.00  0.00     0.011 A 
ENDBRANCH   6  24
TORSDOF 6
ENDMDL
MODEL 2
REMARK VINA RESULT:      -8.4      1.259      2.006
REMARK  6 active torsions:
REMARK  status: ('A' for Active; 'I' for Inactive)
REMARK    1  A    between atoms: O_2  and  C_3 
REMARK    2  A    between atoms: C_3  and  C_4 
REMARK    3  A    between atoms: C_4  and  N_5 
REMARK       I    between atoms: N_5  and  C_6 
REMARK    4  A    between atoms: C_6  and  C_7 
REMARK    5  A    between atoms: C_12  and  C_13 
REMARK    6  A    between atoms: C_21  and  C_22 
ROOT
HETATM    1  C   UNL     1      23.894  46.436  49.516  1.00  0.00     0.170 A 
HETATM    2  N   UNL     1      23.515  45.174  49.843  1.00  0.00    -0.163 NA
HETATM    3  N   UNL     1      24.602  44.659  50.436  1.00  0.00    -0.238 N 
HETATM    4  C   UNL     1      25.644  45.535  50.561  1.00  0.00     0.145 A 
HETATM    5  N   UNL     1      26.791  45.174  51.192  1.00  0.00    -0.365 N 
HETATM    6  C   UNL     1      27.041  43.779  51.540  1.00  0.00     0.118 C 
HETATM    7  C   UNL     1      25.722  43.118  51.982  1.00  0.00     0.066 C 
HETATM    8  C   UNL     1      24.629  43.286  50.910  1.00  0.00     0.221 C 
HETATM    9  C   UNL     1      25.221  46.700  49.962  1.00  0.00     0.115 A 
HETATM   10 CL   UNL     1      26.111  48.136  49.802  1.00  0.00    -0.077 Cl
HETATM   11  H   UNL     1      27.623  45.759  51.097  1.00  0.00     0.162 HD
ENDROOT
BRANCH   1  12
HETATM   12  C   UNL     1      22.978  47.336  48.797  1.00  0.00     0.273 C 
HETATM   13  N   UNL     1      22.397  48.281  49.613  1.00  0.00    -0.353 N 
HETATM   14  H   UNL     1      22.776  48.347  50.555  1.00  0.00     0.162 HD
HETATM   15  O   UNL     1      22.749  47.259  47.594  1.00  0.00    -0.266 OA
BRANCH  13  16
HETATM   16  C   UNL     1      21.604  49.381  49.106  1.00  0.00     0.149 C 
BRANCH  16  17
HETATM   17  C   UNL     1      20.111  49.064  49.161  1.00  0.00     0.186 C 
BRANCH  17  18
HETATM   18  O   UNL     1      19.527  49.746  50.276  1.00  0.00    -0.394 OA
HETATM   19  C   UNL     1      18.710  48.875  51.049  1.00  0.00     0.201 C 
ENDBRANCH  17  18
ENDBRANCH  16  17
ENDBRANCH  13  16
ENDBRANCH   1  12
BRANCH   8  20
HETATM   20  C   UNL     1      24.828  42.344  49.742  1.00  0.00     0.409 C 
HETATM   21  F   UNL     1      25.447  41.195  50.091  1.00  0.00    -0.169 F 
HETATM   22  F   UNL     1      23.622  41.991  49.224  1.00  0.00    -0.169 F 
HETATM   23  F   UNL     1      25.529  42.901  48.732  1.00  0.00    -0.169 F 
ENDBRANCH   8  20
BRANCH   6  24
HETATM   24  C   UNL     1      28.087  43.686  52.638  1.00  0.00    -0.035 A 
HETATM   25  C   UNL     1      29.252  42.915  52.485  1.00  0.00     0.011 A 
HETATM   26  C   UNL     1      30.210  42.863  53.500  1.00  0.00     0.024 A 
HETATM   27  C   UNL     1      30.017  43.586  54.675  1.00  0.00     0.034 A 
HETATM   28 CL   UNL     1      31.197  43.524  55.924  1.00  0.00    -0.084 Cl
HETATM   29  C   UNL     1      28.873  44.362  54.842  1.00  0.00     0.024 A 
HETATM   30  C   UNL     1      27.912  44.413  53.828  1.00  0.00     0.011 A 
ENDBRANCH   6  24
TORSDOF 6
ENDMDL
MODEL 3
REMARK VINA RESULT:      -8.2      1.692      2.430
REMARK  6 active torsions:
REMARK  status: ('A' for Active; 'I' for Inactive)
REMARK    1  A    between atoms: O_2  and  C_3 
REMARK    2  A    between atoms: C_3  and  C_4 
REMARK    3  A    between atoms: C_4  and  N_5 
REMARK       I    between atoms: N_5  and  C_6 
REMARK    4  A    between atoms: C_6  and  C_7 
REMARK    5  A    between atoms: C_12  and  C_13 
REMARK    6  A    between atoms: C_21  and  C_22 
ROOT
HETATM    1  C   UNL     1      24.955  45.033  50.603  1.00  0.00     0.170 A 
HETATM    2  N   UNL     1      25.082  43.704  50.849  1.00  0.00    -0.163 NA
HETATM    3  N   UNL     1      26.161  43.630  51.643  1.00  0.00    -0.238 N 
HETATM    4  C   UNL     1      26.705  44.841  51.968  1.00  0.00     0.145 A 
HETATM    5  N   UNL     1      27.767  44.928  52.811  1.00  0.00    -0.365 N 
HETATM    6  C   UNL     1      28.508  43.732  53.201  1.00  0.00     0.118 C 
HETATM    7  C   UNL     1      27.526  42.559  53.377  1.00  0.00     0.066 C 
HETATM    8  C   UNL     1      26.671  42.354  52.114  1.00  0.00     0.221 C 
HETATM    9  C   UNL     1      25.951  45.777  51.299  1.00  0.00     0.115 A 
HETATM   10 CL   UNL     1      26.177  47.459  51.314  1.00  0.00    -0.077 Cl
HETATM   11  H   UNL     1      28.283  45.807  52.878  1.00  0.00     0.162 HD
ENDROOT
BRANCH   1  12
HETATM   12  C   UNL     1      23.891  45.537  49.719  1.00  0.00     0.273 C 
HETATM   13  N   UNL     1      23.706  46.898  49.817  1.00  0.00    -0.353 N 
HETATM   14  H   UNL     1      24.408  47.404  50.353  1.00  0.00     0.162 HD
HETATM   15  O   UNL     1      23.232  44.824  48.968  1.00  0.00    -0.266 OA
BRANCH  13  16
HETATM   16  C   UNL     1      22.847  47.644  48.923  1.00  0.00     0.149 C 
BRANCH  16  17
HETATM   17  C   UNL     1      23.480  48.976  48.524  1.00  0.00     0.186 C 
BRANCH  17  18
HETATM   18  O   UNL     1      23.377  49.891  49.619  1.00  0.00    -0.394 OA
HETATM   19  C   UNL     1      22.095  50.505  49.665  1.00  0.00     0.201 C 
ENDBRANCH  17  18
ENDBRANCH  16  17
ENDBRANCH  13  16
ENDBRANCH   1  12
BRANCH   8  20
HETATM   20  C   UNL     1      27.446  41.671  51.006  1.00  0.00     0.409 C 
HETATM   21  F   UNL     1      28.550  41.033  51.452  1.00  0.00    -0.169 F 
HETATM   22  F   UNL     1      26.668  40.728  50.412  1.00  0.00    -0.169 F 
HETATM   23  F   UNL     1      27.826  42.522  50.031  1.00  0.00    -0.169 F 
ENDBRANCH   8  20
BRANCH   6  24
HETATM   24  C   UNL     1      29.285  43.985  54.481  1.00  0.00    -0.035 A 
HETATM   25  C   UNL     1      30.275  43.097  54.932  1.00  0.00     0.011 A 
HETATM   26  C   UNL     1      30.992  43.361  56.101  1.00  0.00     0.024 A 
HETATM   27  C   UNL     1      30.731  44.521  56.827  1.00  0.00     0.034 A 
HETATM   28 CL   UNL     1      31.616  44.849  58.265  1.00  0.00    -0.084 Cl
HETATM   29  C   UNL     1      29.759  45.418  56.392  1.00  0.00     0.024 A 
HETATM   30  C   UNL     1      29.039  45.153  55.225  1.00  0.00     0.011 A 
ENDBRANCH   6  24
TORSDOF 6
ENDMDL
MODEL 4
REMARK VINA RESULT:      -8.1      2.132      3.134
REMARK  6 active torsions:
REMARK  status: ('A' for Active; 'I' for Inactive)
REMARK    1  A    between atoms: O_2  and  C_3 
REMARK    2  A    between atoms: C_3  and  C_4 
REMARK    3  A    between atoms: C_4  and  N_5 
REMARK       I    between atoms: N_5  and  C_6 
REMARK    4  A    between atoms: C_6  and  C_7 
REMARK    5  A    between atoms: C_12  and  C_13 
REMARK    6  A    between atoms: C_21  and  C_22 
ROOT
HETATM    1  C   UNL     1      25.126  43.696  50.231  1.00  0.00     0.170 A 
HETATM    2  N   UNL     1      25.418  42.447  50.676  1.00  0.00    -0.163 NA
HETATM    3  N   UNL     1      26.442  42.644  51.520  1.00  0.00    -0.238 N 
HETATM    4  C   UNL     1      26.792  43.955  51.687  1.00  0.00     0.145 A 
HETATM    5  N   UNL     1      27.774  44.313  52.554  1.00  0.00    -0.365 N 
HETATM    6  C   UNL     1      28.645  43.304  53.150  1.00  0.00     0.118 C 
HETATM    7  C   UNL     1      27.825  42.037  53.453  1.00  0.00     0.066 C 
HETATM    8  C   UNL     1      27.091  41.534  52.197  1.00  0.00     0.221 C 
HETATM    9  C   UNL     1      25.961  44.668  50.853  1.00  0.00     0.115 A 
HETATM   10 CL   UNL     1      25.952  46.350  50.630  1.00  0.00    -0.077 Cl
HETATM   11  H   UNL     1      28.158  45.258  52.515  1.00  0.00     0.162 HD
ENDROOT
BRANCH   1  12
HETATM   12  C   UNL     1      24.063  43.911  49.234  1.00  0.00     0.273 C 
HETATM   13  N   UNL     1      23.072  44.760  49.675  1.00  0.00    -0.353 N 
HETATM   14  H   UNL     1      23.262  45.249  50.547  1.00  0.00     0.162 HD
HETATM   15  O   UNL     1      24.053  43.390  48.123  1.00  0.00    -0.266 OA
BRANCH  13  16
HETATM   16  C   UNL     1      22.022  45.261  48.814  1.00  0.00     0.149 C 
BRANCH  16  17
HETATM   17  C   UNL     1      22.477  46.497  48.041  1.00  0.00     0.186 C 
BRANCH  17  18
HETATM   18  O   UNL     1      22.684  47.576  48.960  1.00  0.00    -0.394 OA
HETATM   19  C   UNL     1      21.560  48.447  49.000  1.00  0.00     0.201 C 
ENDBRANCH  17  18
ENDBRANCH  16  17
ENDBRANCH  13  16
ENDBRANCH   1  12
BRANCH   8  20
HETATM   20  C   UNL     1      28.024  40.824  51.238  1.00  0.00     0.409 C 
HETATM   21  F   UNL     1      28.565  41.653  50.319  1.00  0.00    -0.169 F 
HETATM   22  F   UNL     1      29.062  40.278  51.925  1.00  0.00    -0.169 F 
HETATM   23  F   UNL     1      27.426  39.810  50.579  1.00  0.00    -0.169 F 
ENDBRANCH   8  20
BRANCH   6  24
HETATM   24  C   UNL     1      29.294  43.844  54.413  1.00  0.00    -0.035 A 
HETATM   25  C   UNL     1      28.816  45.001  55.052  1.00  0.00     0.011 A 
HETATM   26  C   UNL     1      29.415  45.467  56.225  1.00  0.00     0.024 A 
HETATM   27  C   UNL     1      30.494  44.776  56.774  1.00  0.00     0.034 A 
HETATM   28 CL   UNL     1      31.230  45.347  58.219  1.00  0.00    -0.084 Cl
HETATM   29  C   UNL     1      30.976  43.624  56.159  1.00  0.00     0.024 A 
HETATM   30  C   UNL     1      30.379  43.159  54.985  1.00  0.00     0.011 A 
ENDBRANCH   6  24
TORSDOF 6
ENDMDL
MODEL 5
REMARK VINA RESULT:      -7.8     11.950     14.208
REMARK  6 active torsions:
REMARK  status: ('A' for Active; 'I' for Inactive)
REMARK    1  A    between atoms: O_2  and  C_3 
REMARK    2  A    between atoms: C_3  and  C_4 
REMARK    3  A    between atoms: C_4  and  N_5 
REMARK       I    between atoms: N_5  and  C_6 
REMARK    4  A    between atoms: C_6  and  C_7 
REMARK    5  A    between atoms: C_12  and  C_13 
REMARK    6  A    between atoms: C_21  and  C_22 
ROOT
HETATM    1  C   UNL     1      31.516  51.439  43.019  1.00  0.00     0.170 A 
HETATM    2  N   UNL     1      30.787  52.497  42.578  1.00  0.00    -0.163 NA
HETATM    3  N   UNL     1      29.879  51.938  41.763  1.00  0.00    -0.238 N 
HETATM    4  C   UNL     1      29.946  50.574  41.695  1.00  0.00     0.145 A 
HETATM    5  N   UNL     1      29.055  49.866  40.954  1.00  0.00    -0.365 N 
HETATM    6  C   UNL     1      28.157  50.542  40.023  1.00  0.00     0.118 C 
HETATM    7  C   UNL     1      27.702  51.880  40.633  1.00  0.00     0.066 C 
HETATM    8  C   UNL     1      28.910  52.745  41.042  1.00  0.00     0.221 C 
HETATM    9  C   UNL     1      31.008  50.216  42.493  1.00  0.00     0.115 A 
HETATM   10 CL   UNL     1      31.576  48.643  42.775  1.00  0.00    -0.077 Cl
HETATM   11  H   UNL     1      29.241  48.882  40.750  1.00  0.00     0.162 HD
ENDROOT
BRANCH   1  12
HETATM   12  C   UNL     1      32.661  51.638  43.922  1.00  0.00     0.273 C 
HETATM   13  N   UNL     1      33.860  51.762  43.254  1.00  0.00    -0.353 N 
HETATM   14  H   UNL     1      33.797  51.857  42.243  1.00  0.00     0.162 HD
HETATM   15  O   UNL     1      32.568  51.689  45.144  1.00  0.00    -0.266 OA
BRANCH  13  16
HETATM   16  C   UNL     1      35.093  52.141  43.911  1.00  0.00     0.149 C 
BRANCH  16  17
HETATM   17  C   UNL     1      36.264  52.157  42.931  1.00  0.00     0.186 C 
BRANCH  17  18
HETATM   18  O   UNL     1      35.882  52.881  41.756  1.00  0.00    -0.394 OA
HETATM   19  C   UNL     1      36.833  52.716  40.711  1.00  0.00     0.201 C 
ENDBRANCH  17  18
ENDBRANCH  16  17
ENDBRANCH  13  16
ENDBRANCH   1  12
BRANCH   8  20
HETATM   20  C   UNL     1      29.573  53.397  39.847  1.00  0.00     0.409 C 
HETATM   21  F   UNL     1      28.738  53.541  38.795  1.00  0.00    -0.169 F 
HETATM   22  F   UNL     1      29.995  54.646  40.179  1.00  0.00    -0.169 F 
HETATM   23  F   UNL     1      30.663  52.727  39.421  1.00  0.00    -0.169 F 
ENDBRANCH   8  20
BRANCH   6  24
HETATM   24  C   UNL     1      26.962  49.659  39.704  1.00  0.00    -0.035 A 
HETATM   25  C   UNL     1      26.609  48.572  40.521  1.00  0.00     0.011 A 
HETATM   26  C   UNL     1      25.493  47.787  40.220  1.00  0.00     0.024 A 
HETATM   27  C   UNL     1      24.716  48.086  39.104  1.00  0.00     0.034 A 
HETATM   28 CL   UNL     1      23.340  47.123  38.734  1.00  0.00    -0.084 Cl
HETATM   29  C   UNL     1      25.045  49.164  38.287  1.00  0.00     0.024 A 
HETATM   30  C   UNL     1      26.163  49.948  38.585  1.00  0.00     0.011 A 
ENDBRANCH   6  24
TORSDOF 6
ENDMDL
MODEL 6
REMARK VINA RESULT:      -7.6      4.812     10.002
REMARK  6 active torsions:
REMARK  status: ('A' for Active; 'I' for Inactive)
REMARK    1  A    between atoms: O_2  and  C_3 
REMARK    2  A    between atoms: C_3  and  C_4 
REMARK    3  A    between atoms: C_4  and  N_5 
REMARK       I    between atoms: N_5  and  C_6 
REMARK    4  A    between atoms: C_6  and  C_7 
REMARK    5  A    between atoms: C_12  and  C_13 
REMARK    6  A    between atoms: C_21  and  C_22 
ROOT
HETATM    1  C   UNL     1      22.603  46.456  48.902  1.00  0.00     0.170 A 
HETATM    2  N   UNL     1      23.173  47.596  49.371  1.00  0.00    -0.163 NA
HETATM    3  N   UNL     1      22.235  48.531  49.155  1.00  0.00    -0.238 N 
HETATM    4  C   UNL     1      21.071  48.050  48.623  1.00  0.00     0.145 A 
HETATM    5  N   UNL     1      20.011  48.869  48.402  1.00  0.00    -0.365 N 
HETATM    6  C   UNL     1      20.158  50.318  48.497  1.00  0.00     0.118 C 
HETATM    7  C   UNL     1      21.121  50.660  49.648  1.00  0.00     0.066 C 
HETATM    8  C   UNL     1      22.465  49.926  49.487  1.00  0.00     0.221 C 
HETATM    9  C   UNL     1      21.280  46.703  48.435  1.00  0.00     0.115 A 
HETATM   10 CL   UNL     1      20.178  45.589  47.783  1.00  0.00    -0.077 Cl
HETATM   11  H   UNL     1      19.236  48.542  47.823  1.00  0.00     0.162 HD
ENDROOT
BRANCH   1  12
HETATM   12  C   UNL     1      23.342  45.183  48.919  1.00  0.00     0.273 C 
HETATM   13  N   UNL     1      23.532  44.686  50.190  1.00  0.00    -0.353 N 
HETATM   14  H   UNL     1      23.020  45.158  50.932  1.00  0.00     0.162 HD
HETATM   15  O   UNL     1      23.751  44.616  47.911  1.00  0.00    -0.266 OA
BRANCH  13  16
HETATM   16  C   UNL     1      24.070  43.367  50.449  1.00  0.00     0.149 C 
BRANCH  16  17
HETATM   17  C   UNL     1      25.145  43.407  51.533  1.00  0.00     0.186 C 
BRANCH  17  18
HETATM   18  O   UNL     1      24.630  44.091  52.680  1.00  0.00    -0.394 OA
HETATM   19  C   UNL     1      25.598  44.969  53.241  1.00  0.00     0.201 C 
ENDBRANCH  17  18
ENDBRANCH  16  17
ENDBRANCH  13  16
ENDBRANCH   1  12
BRANCH   8  20
HETATM   20  C   UNL     1      23.340  50.567  48.430  1.00  0.00     0.409 C 
HETATM   21  F   UNL     1      24.659  50.411  48.673  1.00  0.00    -0.169 F 
HETATM   22  F   UNL     1      23.099  49.994  47.221  1.00  0.00    -0.169 F 
HETATM   23  F   UNL     1      23.101  51.887  48.281  1.00  0.00    -0.169 F 
ENDBRANCH   8  20
BRANCH   6  24
HETATM   24  C   UNL     1      18.805  50.975  48.709  1.00  0.00    -0.035 A 
HETATM   25  C   UNL     1      17.647  50.508  48.064  1.00  0.00     0.011 A 
HETATM   26  C   UNL     1      16.409  51.114  48.292  1.00  0.00     0.024 A 
HETATM   27  C   UNL     1      16.316  52.188  49.173  1.00  0.00     0.034 A 
HETATM   28 CL   UNL     1      14.792  52.933  49.458  1.00  0.00    -0.084 Cl
HETATM   29  C   UNL     1      17.450  52.661  49.829  1.00  0.00     0.024 A 
HETATM   30  C   UNL     1      18.689  52.057  49.599  1.00  0.00     0.011 A 
ENDBRANCH   6  24
TORSDOF 6
ENDMDL
MODEL 7
REMARK VINA RESULT:      -7.6      4.557      6.108
REMARK  6 active torsions:
REMARK  status: ('A' for Active; 'I' for Inactive)
REMARK    1  A    between atoms: O_2  and  C_3 
REMARK    2  A    between atoms: C_3  and  C_4 
REMARK    3  A    between atoms: C_4  and  N_5 
REMARK       I    between atoms: N_5  and  C_6 
REMARK    4  A    between atoms: C_6  and  C_7 
REMARK    5  A    between atoms: C_12  and  C_13 
REMARK    6  A    between atoms: C_21  and  C_22 
ROOT
HETATM    1  C   UNL     1      27.188  41.164  48.266  1.00  0.00     0.170 A 
HETATM    2  N   UNL     1      26.585  42.368  48.437  1.00  0.00    -0.163 NA
HETATM    3  N   UNL     1      26.888  42.697  49.702  1.00  0.00    -0.238 N 
HETATM    4  C   UNL     1      27.698  41.799  50.339  1.00  0.00     0.145 A 
HETATM    5  N   UNL     1      28.136  42.026  51.605  1.00  0.00    -0.365 N 
HETATM    6  C   UNL     1      27.566  43.104  52.407  1.00  0.00     0.118 C 
HETATM    7  C   UNL     1      27.278  44.316  51.503  1.00  0.00     0.066 C 
HETATM    8  C   UNL     1      26.392  43.921  50.307  1.00  0.00     0.221 C 
HETATM    9  C   UNL     1      27.905  40.782  49.436  1.00  0.00     0.115 A 
HETATM   10 CL   UNL     1      28.825  39.378  49.685  1.00  0.00    -0.077 Cl
HETATM   11  H   UNL     1      28.563  41.263  52.133  1.00  0.00     0.162 HD
ENDROOT
BRANCH   1  12
HETATM   12  C   UNL     1      27.057  40.430  46.996  1.00  0.00     0.273 C 
HETATM   13  N   UNL     1      27.421  41.180  45.899  1.00  0.00    -0.353 N 
HETATM   14  H   UNL     1      27.873  42.069  46.099  1.00  0.00     0.162 HD
HETATM   15  O   UNL     1      26.665  39.271  46.913  1.00  0.00    -0.266 OA
BRANCH  13  16
HETATM   16  C   UNL     1      27.547  40.622  44.569  1.00  0.00     0.149 C 
BRANCH  16  17
HETATM   17  C   UNL     1      28.968  40.780  44.032  1.00  0.00     0.186 C 
BRANCH  17  18
HETATM   18  O   UNL     1      28.929  41.539  42.818  1.00  0.00    -0.394 OA
HETATM   19  C   UNL     1      28.725  40.700  41.687  1.00  0.00     0.201 C 
ENDBRANCH  17  18
ENDBRANCH  16  17
ENDBRANCH  13  16
ENDBRANCH   1  12
BRANCH   8  20
HETATM   20  C   UNL     1      24.942  43.746  50.706  1.00  0.00     0.409 C 
HETATM   21  F   UNL     1      24.081  44.073  49.718  1.00  0.00    -0.169 F 
HETATM   22  F   UNL     1      24.702  42.444  51.013  1.00  0.00    -0.169 F 
HETATM   23  F   UNL     1      24.608  44.464  51.799  1.00  0.00    -0.169 F 
ENDBRANCH   8  20
BRANCH   6  24
HETATM   24  C   UNL     1      28.512  43.481  53.534  1.00  0.00    -0.035 A 
HETATM   25  C   UNL     1      28.266  44.587  54.366  1.00  0.00     0.011 A 
HETATM   26  C   UNL     1      29.138  44.902  55.410  1.00  0.00     0.024 A 
HETATM   27  C   UNL     1      30.262  44.111  55.638  1.00  0.00     0.034 A 
HETATM   28 CL   UNL     1      31.335  44.496  56.925  1.00  0.00    -0.084 Cl
HETATM   29  C   UNL     1      30.519  43.007  54.829  1.00  0.00     0.024 A 
HETATM   30  C   UNL     1      29.648  42.692  53.783  1.00  0.00     0.011 A 
ENDBRANCH   6  24
TORSDOF 6
ENDMDL
MODEL 8
REMARK VINA RESULT:      -7.6      1.857      2.707
REMARK  6 active torsions:
REMARK  status: ('A' for Active; 'I' for Inactive)
REMARK    1  A    between atoms: O_2  and  C_3 
REMARK    2  A    between atoms: C_3  and  C_4 
REMARK    3  A    between atoms: C_4  and  N_5 
REMARK       I    between atoms: N_5  and  C_6 
REMARK    4  A    between atoms: C_6  and  C_7 
REMARK    5  A    between atoms: C_12  and  C_13 
REMARK    6  A    between atoms: C_21  and  C_22 
ROOT
HETATM    1  C   UNL     1      23.339  46.062  49.242  1.00  0.00     0.170 A 
HETATM    2  N   UNL     1      23.229  44.785  49.692  1.00  0.00    -0.163 NA
HETATM    3  N   UNL     1      24.283  44.646  50.510  1.00  0.00    -0.238 N 
HETATM    4  C   UNL     1      25.037  45.777  50.656  1.00  0.00     0.145 A 
HETATM    5  N   UNL     1      26.103  45.805  51.497  1.00  0.00    -0.365 N 
HETATM    6  C   UNL     1      26.622  44.572  52.082  1.00  0.00     0.118 C 
HETATM    7  C   UNL     1      25.449  43.633  52.417  1.00  0.00     0.066 C 
HETATM    8  C   UNL     1      24.561  43.389  51.182  1.00  0.00     0.221 C 
HETATM    9  C   UNL     1      24.456  46.717  49.835  1.00  0.00     0.115 A 
HETATM   10 CL   UNL     1      24.979  48.313  49.596  1.00  0.00    -0.077 Cl
HETATM   11  H   UNL     1      26.768  46.578  51.440  1.00  0.00     0.162 HD
ENDROOT
BRANCH   1  12
HETATM   12  C   UNL     1      22.376  46.602  48.268  1.00  0.00     0.273 C 
HETATM   13  N   UNL     1      21.434  47.427  48.842  1.00  0.00    -0.353 N 
HETATM   14  H   UNL     1      21.601  47.685  49.812  1.00  0.00     0.162 HD
HETATM   15  O   UNL     1      22.402  46.348  47.068  1.00  0.00    -0.266 OA
BRANCH  13  16
HETATM   16  C   UNL     1      20.497  48.213  48.067  1.00  0.00     0.149 C 
BRANCH  16  17
HETATM   17  C   UNL     1      19.055  47.798  48.348  1.00  0.00     0.186 C 
BRANCH  17  18
HETATM   18  O   UNL     1      18.827  46.495  47.802  1.00  0.00    -0.394 OA
HETATM   19  C   UNL     1      17.514  46.031  48.095  1.00  0.00     0.201 C 
ENDBRANCH  17  18
ENDBRANCH  16  17
ENDBRANCH  13  16
ENDBRANCH   1  12
BRANCH   8  20
HETATM   20  C   UNL     1      25.195  42.416  50.210  1.00  0.00     0.409 C 
HETATM   21  F   UNL     1      26.014  41.527  50.812  1.00  0.00    -0.169 F 
HETATM   22  F   UNL     1      24.229  41.691  49.587  1.00  0.00    -0.169 F 
HETATM   23  F   UNL     1      25.898  43.031  49.236  1.00  0.00    -0.169 F 
ENDBRANCH   8  20
BRANCH   6  24
HETATM   24  C   UNL     1      27.441  44.879  53.324  1.00  0.00    -0.035 A 
HETATM   25  C   UNL     1      28.485  44.040  53.746  1.00  0.00     0.011 A 
HETATM   26  C   UNL     1      29.239  44.354  54.880  1.00  0.00     0.024 A 
HETATM   27  C   UNL     1      28.960  45.515  55.598  1.00  0.00     0.034 A 
HETATM   28 CL   UNL     1      29.890  45.904  56.991  1.00  0.00    -0.084 Cl
HETATM   29  C   UNL     1      27.935  46.364  55.190  1.00  0.00     0.024 A 
HETATM   30  C   UNL     1      27.179  46.049  54.058  1.00  0.00     0.011 A 
ENDBRANCH   6  24
TORSDOF 6
ENDMDL
MODEL 9
REMARK VINA RESULT:      -7.3      3.333      4.126
REMARK  6 active torsions:
REMARK  status: ('A' for Active; 'I' for Inactive)
REMARK    1  A    between atoms: O_2  and  C_3 
REMARK    2  A    between atoms: C_3  and  C_4 
REMARK    3  A    between atoms: C_4  and  N_5 
REMARK       I    between atoms: N_5  and  C_6 
REMARK    4  A    between atoms: C_6  and  C_7 
REMARK    5  A    between atoms: C_12  and  C_13 
REMARK    6  A    between atoms: C_21  and  C_22 
ROOT
HETATM    1  C   UNL     1      23.339  46.379  48.822  1.00  0.00     0.170 A 
HETATM    2  N   UNL     1      24.424  46.809  49.517  1.00  0.00    -0.163 NA
HETATM    3  N   UNL     1      25.104  45.681  49.773  1.00  0.00    -0.238 N 
HETATM    4  C   UNL     1      24.549  44.553  49.235  1.00  0.00     0.145 A 
HETATM    5  N   UNL     1      25.156  43.345  49.361  1.00  0.00    -0.365 N 
HETATM    6  C   UNL     1      26.282  43.170  50.273  1.00  0.00     0.118 C 
HETATM    7  C   UNL     1      27.162  44.432  50.245  1.00  0.00     0.066 C 
HETATM    8  C   UNL     1      26.334  45.695  50.546  1.00  0.00     0.221 C 
HETATM    9  C   UNL     1      23.392  44.970  48.617  1.00  0.00     0.115 A 
HETATM   10 CL   UNL     1      22.277  43.993  47.791  1.00  0.00    -0.077 Cl
HETATM   11  H   UNL     1      24.634  42.496  49.138  1.00  0.00     0.162 HD
ENDROOT
BRANCH   1  12
HETATM   12  C   UNL     1      22.302  47.327  48.382  1.00  0.00     0.273 C 
HETATM   13  N   UNL     1      21.781  48.075  49.415  1.00  0.00    -0.353 N 
HETATM   14  H   UNL     1      22.268  48.001  50.306  1.00  0.00     0.162 HD
HETATM   15  O   UNL     1      21.934  47.444  47.218  1.00  0.00    -0.266 OA
BRANCH  13  16
HETATM   16  C   UNL     1      20.883  49.191  49.206  1.00  0.00     0.149 C 
BRANCH  16  17
HETATM   17  C   UNL     1      21.653  50.480  48.926  1.00  0.00     0.186 C 
BRANCH  17  18
HETATM   18  O   UNL     1      22.904  50.440  49.620  1.00  0.00    -0.394 OA
HETATM   19  C   UNL     1      24.001  50.558  48.722  1.00  0.00     0.201 C 
ENDBRANCH  17  18
ENDBRANCH  16  17
ENDBRANCH  13  16
ENDBRANCH   1  12
BRANCH   8  20
HETATM   20  C   UNL     1      26.012  45.828  52.019  1.00  0.00     0.409 C 
HETATM   21  F   UNL     1      25.939  47.114  52.428  1.00  0.00    -0.169 F 
HETATM   22  F   UNL     1      24.801  45.271  52.279  1.00  0.00    -0.169 F 
HETATM   23  F   UNL     1      26.902  45.194  52.810  1.00  0.00    -0.169 F 
ENDBRANCH   8  20
BRANCH   6  24
HETATM   24  C   UNL     1      27.087  41.940  49.889  1.00  0.00    -0.035 A 
HETATM   25  C   UNL     1      27.307  41.590  48.547  1.00  0.00     0.011 A 
HETATM   26  C   UNL     1      28.069  40.467  48.217  1.00  0.00     0.024 A 
HETATM   27  C   UNL     1      28.625  39.686  49.228  1.00  0.00     0.034 A 
HETATM   28 CL   UNL     1      29.567  38.305  48.824  1.00  0.00    -0.084 Cl
HETATM   29  C   UNL     1      28.426  40.021  50.565  1.00  0.00     0.024 A 
HETATM   30  C   UNL     1      27.661  41.143  50.895  1.00  0.00     0.011 A 
ENDBRANCH   6  24
TORSDOF 6
ENDMDL
MODEL 10
REMARK VINA RESULT:      -7.3      4.586      6.102
REMARK  6 active torsions:
REMARK  status: ('A' for Active; 'I' for Inactive)
REMARK    1  A    between atoms: O_2  and  C_3 
REMARK    2  A    between atoms: C_3  and  C_4 
REMARK    3  A    between atoms: C_4  and  N_5 
REMARK       I    between atoms: N_5  and  C_6 
REMARK    4  A    between atoms: C_6  and  C_7 
REMARK    5  A    between atoms: C_12  and  C_13 
REMARK    6  A    between atoms: C_21  and  C_22 
ROOT
HETATM    1  C   UNL     1      27.285  41.460  48.956  1.00  0.00     0.170 A 
HETATM    2  N   UNL     1      26.806  42.723  49.094  1.00  0.00    -0.163 NA
HETATM    3  N   UNL     1      27.123  43.046  50.356  1.00  0.00    -0.238 N 
HETATM    4  C   UNL     1      27.829  42.084  51.024  1.00  0.00     0.145 A 
HETATM    5  N   UNL     1      28.270  42.293  52.292  1.00  0.00    -0.365 N 
HETATM    6  C   UNL     1      27.802  43.440  53.063  1.00  0.00     0.118 C 
HETATM    7  C   UNL     1      27.653  44.656  52.131  1.00  0.00     0.066 C 
HETATM    8  C   UNL     1      26.748  44.327  50.929  1.00  0.00     0.221 C 
HETATM    9  C   UNL     1      27.943  41.032  50.145  1.00  0.00     0.115 A 
HETATM   10 CL   UNL     1      28.711  39.548  50.437  1.00  0.00    -0.077 Cl
HETATM   11  H   UNL     1      28.609  41.501  52.842  1.00  0.00     0.162 HD
ENDROOT
BRANCH   1  12
HETATM   12  C   UNL     1      27.098  40.716  47.699  1.00  0.00     0.273 C 
HETATM   13  N   UNL     1      26.068  41.209  46.928  1.00  0.00    -0.353 N 
HETATM   14  H   UNL     1      25.673  42.097  47.230  1.00  0.00     0.162 HD
HETATM   15  O   UNL     1      27.783  39.755  47.365  1.00  0.00    -0.266 OA
BRANCH  13  16
HETATM   16  C   UNL     1      25.810  40.760  45.576  1.00  0.00     0.149 C 
BRANCH  16  17
HETATM   17  C   UNL     1      24.769  39.643  45.550  1.00  0.00     0.186 C 
BRANCH  17  18
HETATM   18  O   UNL     1      25.425  38.397  45.292  1.00  0.00    -0.394 OA
HETATM   19  C   UNL     1      24.538  37.298  45.461  1.00  0.00     0.201 C 
ENDBRANCH  17  18
ENDBRANCH  16  17
ENDBRANCH  13  16
ENDBRANCH   1  12
BRANCH   8  20
HETATM   20  C   UNL     1      25.282  44.310  51.308  1.00  0.00     0.409 C 
HETATM   21  F   UNL     1      24.831  43.073  51.611  1.00  0.00    -0.169 F 
HETATM   22  F   UNL     1      25.082  45.075  52.413  1.00  0.00    -0.169 F 
HETATM   23  F   UNL     1      24.484  44.814  50.344  1.00  0.00    -0.169 F 
ENDBRANCH   8  20
BRANCH   6  24
HETATM   24  C   UNL     1      28.766  43.744  54.198  1.00  0.00    -0.035 A 
HETATM   25  C   UNL     1      28.697  44.944  54.924  1.00  0.00     0.011 A 
HETATM   26  C   UNL     1      29.580  45.192  55.978  1.00  0.00     0.024 A 
HETATM   27  C   UNL     1      30.536  44.239  56.320  1.00  0.00     0.034 A 
HETATM   28 CL   UNL     1      31.622  44.542  57.619  1.00  0.00    -0.084 Cl
HETATM   29  C   UNL     1      30.616  43.040  55.617  1.00  0.00     0.024 A 
HETATM   30  C   UNL     1      29.734  42.792  54.561  1.00  0.00     0.011 A 
ENDBRANCH   6  24
TORSDOF 6
ENDMDL
