MODEL 1
REMARK VINA RESULT:      -8.3      0.000      0.000
REMARK  4 active torsions:
REMARK  status: ('A' for Active; 'I' for Inactive)
REMARK    1  A    between atoms: S_2  and  N_3 
REMARK    2  A    between atoms: N_3  and  N_4 
REMARK    3  A    between atoms: C_10  and  C_11 
REMARK    4  A    between atoms: C_12  and  O_13 
ROOT
HETATM    1  N   UNL     1      26.595  44.715  52.403  1.00  0.00    -0.224 N 
HETATM    2  C   UNL     1      27.144  45.312  53.536  1.00  0.00     0.276 C 
HETATM    3  O   UNL     1      26.733  46.332  54.078  1.00  0.00    -0.266 OA
HETATM    4  C   UNL     1      28.325  44.610  54.098  1.00  0.00     0.055 A 
HETATM    5  C   UNL     1      28.807  43.465  53.444  1.00  0.00     0.026 A 
HETATM    6  N   UNL     1      28.204  42.985  52.262  1.00  0.00    -0.265 NA
HETATM    7  C   UNL     1      26.771  43.284  52.201  1.00  0.00     0.224 C 
HETATM    8  C   UNL     1      28.968  45.114  55.235  1.00  0.00     0.019 A 
HETATM    9  C   UNL     1      30.121  44.494  55.709  1.00  0.00     0.001 A 
HETATM   10  C   UNL     1      30.639  43.387  55.038  1.00  0.00     0.002 A 
HETATM   11  C   UNL     1      29.995  42.886  53.903  1.00  0.00     0.024 A 
HETATM   12  H   UNL     1      28.380  41.988  52.144  1.00  0.00     0.130 HD
ENDROOT
BRANCH   7  13
HETATM   13  C   UNL     1      26.228  42.758  50.884  1.00  0.00     0.014 A 
HETATM   14  C   UNL     1      24.860  42.532  50.665  1.00  0.00     0.075 A 
HETATM   15  C   UNL     1      24.403  41.986  49.468  1.00  0.00     0.037 A 
HETATM   16  C   UNL     1      25.307  41.660  48.461  1.00  0.00     0.003 A 
HETATM   17  C   UNL     1      26.669  41.876  48.654  1.00  0.00     0.001 A 
HETATM   18  C   UNL     1      27.128  42.418  49.856  1.00  0.00     0.013 A 
BRANCH  14  19
HETATM   19  O   UNL     1      23.910  42.820  51.603  1.00  0.00    -0.360 OA
HETATM   20  H   UNL     1      23.422  43.624  51.327  1.00  0.00     0.217 HD
ENDBRANCH  14  19
ENDBRANCH   7  13
BRANCH   1  21
HETATM   21  N   UNL     1      25.520  45.401  51.635  1.00  0.00    -0.220 N 
HETATM   22  H   UNL     1      24.709  44.836  51.374  1.00  0.00     0.200 HD
BRANCH  21  23
HETATM   23  S   UNL     1      25.962  46.556  50.455  1.00  0.00     0.240 S 
HETATM   24  C   UNL     1      24.382  46.816  49.683  1.00  0.00     0.187 C 
HETATM   25  O   UNL     1      26.807  45.924  49.465  1.00  0.00    -0.205 OA
HETATM   26  O   UNL     1      26.308  47.793  51.120  1.00  0.00    -0.205 OA
ENDBRANCH  21  23
ENDBRANCH   1  21
TORSDOF 4
ENDMDL
MODEL 2
REMARK VINA RESULT:      -7.9      2.777      5.999
REMARK  4 active torsions:
REMARK  status: ('A' for Active; 'I' for Inactive)
REMARK    1  A    between atoms: S_2  and  N_3 
REMARK    2  A    between atoms: N_3  and  N_4 
REMARK    3  A    between atoms: C_10  and  C_11 
REMARK    4  A    between atoms: C_12  and  O_13 
ROOT
HETATM    1  N   UNL     1      24.500  46.303  50.389  1.00  0.00    -0.224 N 
HETATM    2  C   UNL     1      23.890  47.298  49.627  1.00  0.00     0.276 C 
HETATM    3  O   UNL     1      22.702  47.343  49.330  1.00  0.00    -0.266 OA
HETATM    4  C   UNL     1      24.802  48.372  49.164  1.00  0.00     0.055 A 
HETATM    5  C   UNL     1      26.167  48.286  49.479  1.00  0.00     0.026 A 
HETATM    6  N   UNL     1      26.686  47.194  50.208  1.00  0.00    -0.265 NA
HETATM    7  C   UNL     1      25.706  46.625  51.138  1.00  0.00     0.224 C 
HETATM    8  C   UNL     1      24.309  49.427  48.386  1.00  0.00     0.019 A 
HETATM    9  C   UNL     1      25.186  50.389  47.890  1.00  0.00     0.001 A 
HETATM   10  C   UNL     1      26.550  50.286  48.154  1.00  0.00     0.002 A 
HETATM   11  C   UNL     1      27.040  49.232  48.930  1.00  0.00     0.024 A 
HETATM   12  H   UNL     1      27.545  47.455  50.690  1.00  0.00     0.130 HD
ENDROOT
BRANCH   7  13
HETATM   13  C   UNL     1      26.348  45.443  51.844  1.00  0.00     0.014 A 
HETATM   14  C   UNL     1      27.063  44.449  51.160  1.00  0.00     0.075 A 
HETATM   15  C   UNL     1      27.583  43.344  51.830  1.00  0.00     0.037 A 
HETATM   16  C   UNL     1      27.402  43.215  53.204  1.00  0.00     0.003 A 
HETATM   17  C   UNL     1      26.698  44.189  53.906  1.00  0.00     0.001 A 
HETATM   18  C   UNL     1      26.171  45.294  53.233  1.00  0.00     0.013 A 
BRANCH  14  19
HETATM   19  O   UNL     1      27.280  44.499  49.811  1.00  0.00    -0.360 OA
HETATM   20  H   UNL     1      28.216  44.267  49.630  1.00  0.00     0.217 HD
ENDBRANCH  14  19
ENDBRANCH   7  13
BRANCH   1  21
HETATM   21  N   UNL     1      23.747  45.078  50.773  1.00  0.00    -0.220 N 
HETATM   22  H   UNL     1      23.868  44.744  51.731  1.00  0.00     0.200 HD
BRANCH  21  23
HETATM   23  S   UNL     1      23.578  43.823  49.625  1.00  0.00     0.240 S 
HETATM   24  C   UNL     1      24.134  42.445  50.601  1.00  0.00     0.187 C 
HETATM   25  O   UNL     1      24.557  44.006  48.574  1.00  0.00    -0.205 OA
HETATM   26  O   UNL     1      22.171  43.610  49.369  1.00  0.00    -0.205 OA
ENDBRANCH  21  23
ENDBRANCH   1  21
TORSDOF 4
ENDMDL
MODEL 3
REMARK VINA RESULT:      -7.9      2.586      3.689
REMARK  4 active torsions:
REMARK  status: ('A' for Active; 'I' for Inactive)
REMARK    1  A    between atoms: S_2  and  N_3 
REMARK    2  A    between atoms: N_3  and  N_4 
REMARK    3  A    between atoms: C_10  and  C_11 
REMARK    4  A    between atoms: C_12  and  O_13 
ROOT
HETATM    1  N   UNL     1      27.612  42.683  52.605  1.00  0.00    -0.224 N 
HETATM    2  C   UNL     1      28.639  42.200  53.412  1.00  0.00     0.276 C 
HETATM    3  O   UNL     1      29.052  41.046  53.430  1.00  0.00    -0.266 OA
HETATM    4  C   UNL     1      29.254  43.211  54.307  1.00  0.00     0.055 A 
HETATM    5  C   UNL     1      28.745  44.518  54.304  1.00  0.00     0.026 A 
HETATM    6  N   UNL     1      27.655  44.881  53.484  1.00  0.00    -0.265 NA
HETATM    7  C   UNL     1      27.597  44.095  52.248  1.00  0.00     0.224 C 
HETATM    8  C   UNL     1      30.295  42.846  55.170  1.00  0.00     0.019 A 
HETATM    9  C   UNL     1      30.813  43.782  56.062  1.00  0.00     0.001 A 
HETATM   10  C   UNL     1      30.281  45.069  56.104  1.00  0.00     0.002 A 
HETATM   11  C   UNL     1      29.242  45.431  55.241  1.00  0.00     0.024 A 
HETATM   12  H   UNL     1      27.666  45.881  53.286  1.00  0.00     0.130 HD
ENDROOT
BRANCH   7  13
HETATM   13  C   UNL     1      26.378  44.536  51.457  1.00  0.00     0.014 A 
HETATM   14  C   UNL     1      25.066  44.340  51.916  1.00  0.00     0.075 A 
HETATM   15  C   UNL     1      23.968  44.697  51.136  1.00  0.00     0.037 A 
HETATM   16  C   UNL     1      24.163  45.266  49.880  1.00  0.00     0.003 A 
HETATM   17  C   UNL     1      25.454  45.472  49.404  1.00  0.00     0.001 A 
HETATM   18  C   UNL     1      26.555  45.109  50.184  1.00  0.00     0.013 A 
BRANCH  14  19
HETATM   19  O   UNL     1      24.791  43.784  53.133  1.00  0.00    -0.360 OA
HETATM   20  H   UNL     1      23.845  43.522  53.158  1.00  0.00     0.217 HD
ENDBRANCH  14  19
ENDBRANCH   7  13
BRANCH   1  21
HETATM   21  N   UNL     1      26.791  41.749  51.787  1.00  0.00    -0.220 N 
HETATM   22  H   UNL     1      26.199  41.090  52.296  1.00  0.00     0.200 HD
BRANCH  21  23
HETATM   23  S   UNL     1      27.462  41.104  50.353  1.00  0.00     0.240 S 
HETATM   24  C   UNL     1      26.072  40.164  49.767  1.00  0.00     0.187 C 
HETATM   25  O   UNL     1      28.491  40.148  50.699  1.00  0.00    -0.205 OA
HETATM   26  O   UNL     1      27.664  42.180  49.407  1.00  0.00    -0.205 OA
ENDBRANCH  21  23
ENDBRANCH   1  21
TORSDOF 4
ENDMDL
MODEL 4
REMARK VINA RESULT:      -7.6      2.187      2.602
REMARK  4 active torsions:
REMARK  status: ('A' for Active; 'I' for Inactive)
REMARK    1  A    between atoms: S_2  and  N_3 
REMARK    2  A    between atoms: N_3  and  N_4 
REMARK    3  A    between atoms: C_10  and  C_11 
REMARK    4  A    between atoms: C_12  and  O_13 
ROOT
HETATM    1  N   UNL     1      26.549  42.533  51.456  1.00  0.00    -0.224 N 
HETATM    2  C   UNL     1      26.646  43.278  52.629  1.00  0.00     0.276 C 
HETATM    3  O   UNL     1      25.747  43.943  53.130  1.00  0.00    -0.266 OA
HETATM    4  C   UNL     1      27.973  43.224  53.291  1.00  0.00     0.055 A 
HETATM    5  C   UNL     1      29.004  42.489  52.684  1.00  0.00     0.026 A 
HETATM    6  N   UNL     1      28.807  41.821  51.457  1.00  0.00    -0.265 NA
HETATM    7  C   UNL     1      27.421  41.381  51.274  1.00  0.00     0.224 C 
HETATM    8  C   UNL     1      28.197  43.935  54.476  1.00  0.00     0.019 A 
HETATM    9  C   UNL     1      29.467  43.942  55.048  1.00  0.00     0.001 A 
HETATM   10  C   UNL     1      30.511  43.258  54.428  1.00  0.00     0.002 A 
HETATM   11  C   UNL     1      30.285  42.549  53.245  1.00  0.00     0.024 A 
HETATM   12  H   UNL     1      29.458  41.043  51.358  1.00  0.00     0.130 HD
ENDROOT
BRANCH   7  13
HETATM   13  C   UNL     1      27.308  40.708  49.918  1.00  0.00     0.014 A 
HETATM   14  C   UNL     1      26.620  39.499  49.726  1.00  0.00     0.075 A 
HETATM   15  C   UNL     1      26.592  38.875  48.482  1.00  0.00     0.037 A 
HETATM   16  C   UNL     1      27.249  39.451  47.399  1.00  0.00     0.003 A 
HETATM   17  C   UNL     1      27.938  40.650  47.563  1.00  0.00     0.001 A 
HETATM   18  C   UNL     1      27.970  41.274  48.812  1.00  0.00     0.013 A 
BRANCH  14  19
HETATM   19  O   UNL     1      25.955  38.867  50.738  1.00  0.00    -0.360 OA
HETATM   20  H   UNL     1      25.713  37.962  50.446  1.00  0.00     0.217 HD
ENDBRANCH  14  19
ENDBRANCH   7  13
BRANCH   1  21
HETATM   21  N   UNL     1      25.337  42.632  50.596  1.00  0.00    -0.220 N 
HETATM   22  H   UNL     1      24.915  41.753  50.292  1.00  0.00     0.200 HD
BRANCH  21  23
HETATM   23  S   UNL     1      25.261  43.873  49.423  1.00  0.00     0.240 S 
HETATM   24  C   UNL     1      24.207  45.025  50.272  1.00  0.00     0.187 C 
HETATM   25  O   UNL     1      24.516  43.398  48.278  1.00  0.00    -0.205 OA
HETATM   26  O   UNL     1      26.562  44.498  49.319  1.00  0.00    -0.205 OA
ENDBRANCH  21  23
ENDBRANCH   1  21
TORSDOF 4
ENDMDL
MODEL 5
REMARK VINA RESULT:      -7.5      3.098      4.453
REMARK  4 active torsions:
REMARK  status: ('A' for Active; 'I' for Inactive)
REMARK    1  A    between atoms: S_2  and  N_3 
REMARK    2  A    between atoms: N_3  and  N_4 
REMARK    3  A    between atoms: C_10  and  C_11 
REMARK    4  A    between atoms: C_12  and  O_13 
ROOT
HETATM    1  N   UNL     1      27.216  41.300  51.561  1.00  0.00    -0.224 N 
HETATM    2  C   UNL     1      28.318  41.230  52.410  1.00  0.00     0.276 C 
HETATM    3  O   UNL     1      29.055  40.260  52.546  1.00  0.00    -0.266 OA
HETATM    4  C   UNL     1      28.581  42.464  53.191  1.00  0.00     0.055 A 
HETATM    5  C   UNL     1      27.706  43.552  53.053  1.00  0.00     0.026 A 
HETATM    6  N   UNL     1      26.580  43.488  52.205  1.00  0.00    -0.265 NA
HETATM    7  C   UNL     1      26.791  42.599  51.059  1.00  0.00     0.224 C 
HETATM    8  C   UNL     1      29.660  42.516  54.082  1.00  0.00     0.019 A 
HETATM    9  C   UNL     1      29.852  43.649  54.869  1.00  0.00     0.001 A 
HETATM   10  C   UNL     1      28.961  44.716  54.778  1.00  0.00     0.002 A 
HETATM   11  C   UNL     1      27.885  44.662  53.888  1.00  0.00     0.024 A 
HETATM   12  H   UNL     1      26.298  44.420  51.904  1.00  0.00     0.130 HD
ENDROOT
BRANCH   7  13
HETATM   13  C   UNL     1      25.517  42.574  50.232  1.00  0.00     0.014 A 
HETATM   14  C   UNL     1      25.525  42.498  48.831  1.00  0.00     0.075 A 
HETATM   15  C   UNL     1      24.340  42.543  48.100  1.00  0.00     0.037 A 
HETATM   16  C   UNL     1      23.120  42.661  48.759  1.00  0.00     0.003 A 
HETATM   17  C   UNL     1      23.086  42.737  50.149  1.00  0.00     0.001 A 
HETATM   18  C   UNL     1      24.274  42.697  50.881  1.00  0.00     0.013 A 
BRANCH  14  19
HETATM   19  O   UNL     1      26.680  42.386  48.109  1.00  0.00    -0.360 OA
HETATM   20  H   UNL     1      26.559  41.701  47.417  1.00  0.00     0.217 HD
ENDBRANCH  14  19
ENDBRANCH   7  13
BRANCH   1  21
HETATM   21  N   UNL     1      26.731  40.085  50.850  1.00  0.00    -0.220 N 
HETATM   22  H   UNL     1      26.405  39.310  51.431  1.00  0.00     0.200 HD
BRANCH  21  23
HETATM   23  S   UNL     1      27.542  39.586  49.430  1.00  0.00     0.240 S 
HETATM   24  C   UNL     1      28.208  38.037  49.993  1.00  0.00     0.187 C 
HETATM   25  O   UNL     1      28.671  40.460  49.196  1.00  0.00    -0.205 OA
HETATM   26  O   UNL     1      26.559  39.272  48.417  1.00  0.00    -0.205 OA
ENDBRANCH  21  23
ENDBRANCH   1  21
TORSDOF 4
ENDMDL
MODEL 6
REMARK VINA RESULT:      -7.3     12.533     14.554
REMARK  4 active torsions:
REMARK  status: ('A' for Active; 'I' for Inactive)
REMARK    1  A    between atoms: S_2  and  N_3 
REMARK    2  A    between atoms: N_3  and  N_4 
REMARK    3  A    between atoms: C_10  and  C_11 
REMARK    4  A    between atoms: C_12  and  O_13 
ROOT
HETATM    1  N   UNL     1      30.082  50.832  39.610  1.00  0.00    -0.224 N 
HETATM    2  C   UNL     1      29.055  50.397  38.775  1.00  0.00     0.276 C 
HETATM    3  O   UNL     1      28.613  51.008  37.809  1.00  0.00    -0.266 OA
HETATM    4  C   UNL     1      28.486  49.073  39.127  1.00  0.00     0.055 A 
HETATM    5  C   UNL     1      28.977  48.404  40.258  1.00  0.00     0.026 A 
HETATM    6  N   UNL     1      29.982  48.971  41.071  1.00  0.00    -0.265 NA
HETATM    7  C   UNL     1      30.886  49.844  40.316  1.00  0.00     0.224 C 
HETATM    8  C   UNL     1      27.445  48.530  38.364  1.00  0.00     0.019 A 
HETATM    9  C   UNL     1      26.863  47.324  38.748  1.00  0.00     0.001 A 
HETATM   10  C   UNL     1      27.307  46.675  39.899  1.00  0.00     0.002 A 
HETATM   11  C   UNL     1      28.347  47.219  40.658  1.00  0.00     0.024 A 
HETATM   12  H   UNL     1      30.497  48.247  41.570  1.00  0.00     0.130 HD
ENDROOT
BRANCH   7  13
HETATM   13  C   UNL     1      31.903  50.427  41.282  1.00  0.00     0.014 A 
HETATM   14  C   UNL     1      33.180  50.845  40.875  1.00  0.00     0.075 A 
HETATM   15  C   UNL     1      34.113  51.314  41.798  1.00  0.00     0.037 A 
HETATM   16  C   UNL     1      33.783  51.378  43.148  1.00  0.00     0.003 A 
HETATM   17  C   UNL     1      32.523  50.970  43.576  1.00  0.00     0.001 A 
HETATM   18  C   UNL     1      31.590  50.495  42.652  1.00  0.00     0.013 A 
BRANCH  14  19
HETATM   19  O   UNL     1      33.582  50.808  39.570  1.00  0.00    -0.360 OA
HETATM   20  H   UNL     1      34.135  51.597  39.384  1.00  0.00     0.217 HD
ENDBRANCH  14  19
ENDBRANCH   7  13
BRANCH   1  21
HETATM   21  N   UNL     1      30.627  52.211  39.483  1.00  0.00    -0.220 N 
HETATM   22  H   UNL     1      31.622  52.295  39.267  1.00  0.00     0.200 HD
BRANCH  21  23
HETATM   23  S   UNL     1      30.048  53.424  40.539  1.00  0.00     0.240 S 
HETATM   24  C   UNL     1      28.830  52.488  41.434  1.00  0.00     0.187 C 
HETATM   25  O   UNL     1      29.324  54.415  39.772  1.00  0.00    -0.205 OA
HETATM   26  O   UNL     1      31.091  53.759  41.483  1.00  0.00    -0.205 OA
ENDBRANCH  21  23
ENDBRANCH   1  21
TORSDOF 4
ENDMDL
MODEL 7
REMARK VINA RESULT:      -7.2      5.611      8.156
REMARK  4 active torsions:
REMARK  status: ('A' for Active; 'I' for Inactive)
REMARK    1  A    between atoms: S_2  and  N_3 
REMARK    2  A    between atoms: N_3  and  N_4 
REMARK    3  A    between atoms: C_10  and  C_11 
REMARK    4  A    between atoms: C_12  and  O_13 
ROOT
HETATM    1  N   UNL     1      22.807  48.132  49.211  1.00  0.00    -0.224 N 
HETATM    2  C   UNL     1      23.928  47.316  49.353  1.00  0.00     0.276 C 
HETATM    3  O   UNL     1      23.912  46.114  49.594  1.00  0.00    -0.266 OA
HETATM    4  C   UNL     1      25.228  48.011  49.184  1.00  0.00     0.055 A 
HETATM    5  C   UNL     1      25.231  49.394  48.947  1.00  0.00     0.026 A 
HETATM    6  N   UNL     1      24.030  50.133  48.884  1.00  0.00    -0.265 NA
HETATM    7  C   UNL     1      22.905  49.332  48.393  1.00  0.00     0.224 C 
HETATM    8  C   UNL     1      26.427  47.299  49.307  1.00  0.00     0.019 A 
HETATM    9  C   UNL     1      27.643  47.974  49.225  1.00  0.00     0.001 A 
HETATM   10  C   UNL     1      27.659  49.355  49.041  1.00  0.00     0.002 A 
HETATM   11  C   UNL     1      26.460  50.064  48.919  1.00  0.00     0.024 A 
HETATM   12  H   UNL     1      24.152  50.979  48.330  1.00  0.00     0.130 HD
ENDROOT
BRANCH   7  13
HETATM   13  C   UNL     1      21.661  50.204  48.395  1.00  0.00     0.014 A 
HETATM   14  C   UNL     1      21.206  50.871  49.543  1.00  0.00     0.075 A 
HETATM   15  C   UNL     1      20.025  51.610  49.527  1.00  0.00     0.037 A 
HETATM   16  C   UNL     1      19.277  51.700  48.357  1.00  0.00     0.003 A 
HETATM   17  C   UNL     1      19.707  51.048  47.205  1.00  0.00     0.001 A 
HETATM   18  C   UNL     1      20.889  50.303  47.223  1.00  0.00     0.013 A 
BRANCH  14  19
HETATM   19  O   UNL     1      21.880  50.828  50.731  1.00  0.00    -0.360 OA
HETATM   20  H   UNL     1      22.825  50.634  50.555  1.00  0.00     0.217 HD
ENDBRANCH  14  19
ENDBRANCH   7  13
BRANCH   1  21
HETATM   21  N   UNL     1      21.449  47.610  49.524  1.00  0.00    -0.220 N 
HETATM   22  H   UNL     1      21.264  47.363  50.499  1.00  0.00     0.200 HD
BRANCH  21  23
HETATM   23  S   UNL     1      20.684  46.578  48.396  1.00  0.00     0.240 S 
HETATM   24  C   UNL     1      19.057  47.293  48.389  1.00  0.00     0.187 C 
HETATM   25  O   UNL     1      20.553  45.258  48.974  1.00  0.00    -0.205 OA
HETATM   26  O   UNL     1      21.249  46.818  47.086  1.00  0.00    -0.205 OA
ENDBRANCH  21  23
ENDBRANCH   1  21
TORSDOF 4
ENDMDL
MODEL 8
REMARK VINA RESULT:      -7.2     13.675     15.314
REMARK  4 active torsions:
REMARK  status: ('A' for Active; 'I' for Inactive)
REMARK    1  A    between atoms: S_2  and  N_3 
REMARK    2  A    between atoms: N_3  and  N_4 
REMARK    3  A    between atoms: C_10  and  C_11 
REMARK    4  A    between atoms: C_12  and  O_13 
ROOT
HETATM    1  N   UNL     1      33.022  50.560  40.490  1.00  0.00    -0.224 N 
HETATM    2  C   UNL     1      34.281  50.103  40.875  1.00  0.00     0.276 C 
HETATM    3  O   UNL     1      34.527  48.999  41.347  1.00  0.00    -0.266 OA
HETATM    4  C   UNL     1      35.383  51.075  40.671  1.00  0.00     0.055 A 
HETATM    5  C   UNL     1      35.079  52.348  40.166  1.00  0.00     0.026 A 
HETATM    6  N   UNL     1      33.752  52.724  39.868  1.00  0.00    -0.265 NA
HETATM    7  C   UNL     1      32.925  51.584  39.460  1.00  0.00     0.224 C 
HETATM    8  C   UNL     1      36.695  50.734  41.023  1.00  0.00     0.019 A 
HETATM    9  C   UNL     1      37.711  51.679  40.902  1.00  0.00     0.001 A 
HETATM   10  C   UNL     1      37.413  52.964  40.450  1.00  0.00     0.002 A 
HETATM   11  C   UNL     1      36.103  53.301  40.099  1.00  0.00     0.024 A 
HETATM   12  H   UNL     1      33.733  53.464  39.167  1.00  0.00     0.130 HD
ENDROOT
BRANCH   7  13
HETATM   13  C   UNL     1      31.516  52.087  39.196  1.00  0.00     0.014 A 
HETATM   14  C   UNL     1      30.835  52.933  40.084  1.00  0.00     0.075 A 
HETATM   15  C   UNL     1      29.519  53.322  39.843  1.00  0.00     0.037 A 
HETATM   16  C   UNL     1      28.859  52.875  38.702  1.00  0.00     0.003 A 
HETATM   17  C   UNL     1      29.515  52.036  37.804  1.00  0.00     0.001 A 
HETATM   18  C   UNL     1      30.832  51.642  38.049  1.00  0.00     0.013 A 
BRANCH  14  19
HETATM   19  O   UNL     1      31.409  53.410  41.228  1.00  0.00    -0.360 OA
HETATM   20  H   UNL     1      32.065  54.101  40.992  1.00  0.00     0.217 HD
ENDBRANCH  14  19
ENDBRANCH   7  13
BRANCH   1  21
HETATM   21  N   UNL     1      31.803  49.762  40.796  1.00  0.00    -0.220 N 
HETATM   22  H   UNL     1      31.108  49.678  40.052  1.00  0.00     0.200 HD
BRANCH  21  23
HETATM   23  S   UNL     1      31.123  49.867  42.361  1.00  0.00     0.240 S 
HETATM   24  C   UNL     1      29.409  50.064  41.932  1.00  0.00     0.187 C 
HETATM   25  O   UNL     1      31.540  51.108  42.977  1.00  0.00    -0.205 OA
HETATM   26  O   UNL     1      31.244  48.580  43.010  1.00  0.00    -0.205 OA
ENDBRANCH  21  23
ENDBRANCH   1  21
TORSDOF 4
ENDMDL
MODEL 9
REMARK VINA RESULT:      -7.2      1.997      2.605
REMARK  4 active torsions:
REMARK  status: ('A' for Active; 'I' for Inactive)
REMARK    1  A    between atoms: S_2  and  N_3 
REMARK    2  A    between atoms: N_3  and  N_4 
REMARK    3  A    between atoms: C_10  and  C_11 
REMARK    4  A    between atoms: C_12  and  O_13 
ROOT
HETATM    1  N   UNL     1      28.183  45.108  53.956  1.00  0.00    -0.224 N 
HETATM    2  C   UNL     1      28.690  45.797  55.056  1.00  0.00     0.276 C 
HETATM    3  O   UNL     1      28.425  46.955  55.358  1.00  0.00    -0.266 OA
HETATM    4  C   UNL     1      29.624  45.014  55.902  1.00  0.00     0.055 A 
HETATM    5  C   UNL     1      29.947  43.703  55.521  1.00  0.00     0.026 A 
HETATM    6  N   UNL     1      29.418  43.127  54.346  1.00  0.00    -0.265 NA
HETATM    7  C   UNL     1      28.093  43.656  54.010  1.00  0.00     0.224 C 
HETATM    8  C   UNL     1      30.204  45.598  57.035  1.00  0.00     0.019 A 
HETATM    9  C   UNL     1      31.139  44.883  57.779  1.00  0.00     0.001 A 
HETATM   10  C   UNL     1      31.507  43.598  57.381  1.00  0.00     0.002 A 
HETATM   11  C   UNL     1      30.926  43.018  56.250  1.00  0.00     0.024 A 
HETATM   12  H   UNL     1      29.404  42.110  54.415  1.00  0.00     0.130 HD
ENDROOT
BRANCH   7  13
HETATM   13  C   UNL     1      27.630  43.001  52.720  1.00  0.00     0.014 A 
HETATM   14  C   UNL     1      26.274  42.877  52.378  1.00  0.00     0.075 A 
HETATM   15  C   UNL     1      25.881  42.212  51.219  1.00  0.00     0.037 A 
HETATM   16  C   UNL     1      26.840  41.660  50.374  1.00  0.00     0.003 A 
HETATM   17  C   UNL     1      28.191  41.769  50.692  1.00  0.00     0.001 A 
HETATM   18  C   UNL     1      28.585  42.432  51.856  1.00  0.00     0.013 A 
BRANCH  14  19
HETATM   19  O   UNL     1      25.273  43.387  53.155  1.00  0.00    -0.360 OA
HETATM   20  H   UNL     1      24.466  42.843  53.033  1.00  0.00     0.217 HD
ENDBRANCH  14  19
ENDBRANCH   7  13
BRANCH   1  21
HETATM   21  N   UNL     1      27.375  45.819  52.927  1.00  0.00    -0.220 N 
HETATM   22  H   UNL     1      27.891  46.306  52.191  1.00  0.00     0.200 HD
BRANCH  21  23
HETATM   23  S   UNL     1      25.948  46.624  53.414  1.00  0.00     0.240 S 
HETATM   24  C   UNL     1      25.022  46.539  51.899  1.00  0.00     0.187 C 
HETATM   25  O   UNL     1      26.246  48.022  53.638  1.00  0.00    -0.205 OA
HETATM   26  O   UNL     1      25.250  45.798  54.375  1.00  0.00    -0.205 OA
ENDBRANCH  21  23
ENDBRANCH   1  21
TORSDOF 4
ENDMDL
MODEL 10
REMARK VINA RESULT:      -7.2     12.312     13.243
REMARK  4 active torsions:
REMARK  status: ('A' for Active; 'I' for Inactive)
REMARK    1  A    between atoms: S_2  and  N_3 
REMARK    2  A    between atoms: N_3  and  N_4 
REMARK    3  A    between atoms: C_10  and  C_11 
REMARK    4  A    between atoms: C_12  and  O_13 
ROOT
HETATM    1  N   UNL     1      30.788  50.474  41.760  1.00  0.00    -0.224 N 
HETATM    2  C   UNL     1      31.641  51.279  42.511  1.00  0.00     0.276 C 
HETATM    3  O   UNL     1      31.295  52.202  43.241  1.00  0.00    -0.266 OA
HETATM    4  C   UNL     1      33.081  50.947  42.384  1.00  0.00     0.055 A 
HETATM    5  C   UNL     1      33.465  49.913  41.516  1.00  0.00     0.026 A 
HETATM    6  N   UNL     1      32.513  49.202  40.754  1.00  0.00    -0.265 NA
HETATM    7  C   UNL     1      31.209  49.123  41.418  1.00  0.00     0.224 C 
HETATM    8  C   UNL     1      34.039  51.688  43.088  1.00  0.00     0.019 A 
HETATM    9  C   UNL     1      35.393  51.420  42.903  1.00  0.00     0.001 A 
HETATM   10  C   UNL     1      35.788  50.430  42.004  1.00  0.00     0.002 A 
HETATM   11  C   UNL     1      34.830  49.692  41.303  1.00  0.00     0.024 A 
HETATM   12  H   UNL     1      32.862  48.276  40.510  1.00  0.00     0.130 HD
ENDROOT
BRANCH   7  13
HETATM   13  C   UNL     1      30.254  48.372  40.507  1.00  0.00     0.014 A 
HETATM   14  C   UNL     1      30.191  48.599  39.123  1.00  0.00     0.075 A 
HETATM   15  C   UNL     1      29.258  47.940  38.326  1.00  0.00     0.037 A 
HETATM   16  C   UNL     1      28.369  47.035  38.899  1.00  0.00     0.003 A 
HETATM   17  C   UNL     1      28.412  46.791  40.269  1.00  0.00     0.001 A 
HETATM   18  C   UNL     1      29.345  47.455  41.069  1.00  0.00     0.013 A 
BRANCH  14  19
HETATM   19  O   UNL     1      31.023  49.475  38.486  1.00  0.00    -0.360 OA
HETATM   20  H   UNL     1      31.943  49.136  38.536  1.00  0.00     0.217 HD
ENDBRANCH  14  19
ENDBRANCH   7  13
BRANCH   1  21
HETATM   21  N   UNL     1      29.340  50.800  41.654  1.00  0.00    -0.220 N 
HETATM   22  H   UNL     1      28.683  50.029  41.786  1.00  0.00     0.200 HD
BRANCH  21  23
HETATM   23  S   UNL     1      28.837  51.937  40.481  1.00  0.00     0.240 S 
HETATM   24  C   UNL     1      27.559  50.997  39.679  1.00  0.00     0.187 C 
HETATM   25  O   UNL     1      29.893  52.113  39.507  1.00  0.00    -0.205 OA
HETATM   26  O   UNL     1      28.183  53.040  41.150  1.00  0.00    -0.205 OA
ENDBRANCH  21  23
ENDBRANCH   1  21
TORSDOF 4
ENDMDL
