MODEL 1
REMARK VINA RESULT:      -9.7      0.000      0.000
REMARK  8 active torsions:
REMARK  status: ('A' for Active; 'I' for Inactive)
REMARK    1  A    between atoms: O_2  and  C_3 
REMARK    2  A    between atoms: C_3  and  C_4 
REMARK    3  A    between atoms: C_4  and  N_5 
REMARK       I    between atoms: N_5  and  C_6 
REMARK    4  A    between atoms: C_6  and  C_7 
REMARK    5  A    between atoms: C_7  and  N_8 
REMARK       I    between atoms: N_14  and  C_15 
REMARK    6  A    between atoms: C_15  and  C_16 
REMARK    7  A    between atoms: C_19  and  C_20 
REMARK    8  A    between atoms: N_31  and  C_32 
ROOT
HETATM    1  N   UNL     1      21.586  45.660  49.161  1.00  0.00    -0.325 N 
HETATM    2  C   UNL     1      22.488  44.702  49.547  1.00  0.00     0.250 A 
HETATM    3  O   UNL     1      22.202  43.559  49.870  1.00  0.00    -0.270 OA
HETATM    4  C   UNL     1      23.892  45.346  49.556  1.00  0.00     0.118 A 
HETATM    5  C   UNL     1      24.804  44.526  48.626  1.00  0.00     0.061 C 
HETATM    6  C   UNL     1      25.292  43.232  49.277  1.00  0.00     0.129 C 
HETATM    7  N   UNL     1      25.790  43.479  50.625  1.00  0.00    -0.348 N 
HETATM    8  C   UNL     1      27.169  43.473  50.848  1.00  0.00     0.253 C 
HETATM    9  O   UNL     1      28.003  43.312  49.960  1.00  0.00    -0.267 OA
HETATM   10  C   UNL     1      24.797  44.043  51.537  1.00  0.00     0.129 C 
HETATM   11  C   UNL     1      24.331  45.404  51.030  1.00  0.00     0.061 C 
HETATM   12  N   UNL     1      23.610  46.712  49.018  1.00  0.00    -0.346 N 
HETATM   13  C   UNL     1      22.185  46.901  48.788  1.00  0.00     0.254 A 
ENDROOT
BRANCH  12  14
HETATM   14  C   UNL     1      24.485  47.773  48.863  1.00  0.00     0.032 A 
HETATM   15  C   UNL     1      24.127  48.986  48.255  1.00  0.00     0.029 A 
HETATM   16  C   UNL     1      25.030  50.048  48.092  1.00  0.00     0.002 A 
HETATM   17  C   UNL     1      26.336  49.932  48.542  1.00  0.00     0.000 A 
HETATM   18  C   UNL     1      26.732  48.756  49.162  1.00  0.00     0.002 A 
HETATM   19  C   UNL     1      25.818  47.705  49.319  1.00  0.00     0.029 A 
ENDBRANCH  12  14
BRANCH   1  20
HETATM   20  C   UNL     1      20.149  45.455  49.064  1.00  0.00     0.230 C 
BRANCH  20  21
HETATM   21  C   UNL     1      19.353  46.745  48.831  1.00  0.00     0.235 C 
HETATM   22  N   UNL     1      19.029  47.454  49.967  1.00  0.00    -0.358 N 
HETATM   23  H   UNL     1      19.072  46.960  50.852  1.00  0.00     0.162 HD
HETATM   24  O   UNL     1      18.965  47.067  47.711  1.00  0.00    -0.272 OA
BRANCH  22  25
HETATM   25  C   UNL     1      18.135  48.598  49.907  1.00  0.00     0.148 C 
BRANCH  25  26
HETATM   26  C   UNL     1      18.899  49.919  49.893  1.00  0.00     0.186 C 
BRANCH  26  27
HETATM   27  O   UNL     1      18.056  50.954  50.410  1.00  0.00    -0.394 OA
HETATM   28  C   UNL     1      18.223  52.168  49.686  1.00  0.00     0.201 C 
ENDBRANCH  26  27
ENDBRANCH  25  26
ENDBRANCH  22  25
ENDBRANCH  20  21
ENDBRANCH   1  20
BRANCH   8  29
HETATM   29  C   UNL     1      27.661  43.702  52.226  1.00  0.00     0.032 A 
HETATM   30  C   UNL     1      27.452  44.924  52.868  1.00  0.00     0.018 A 
HETATM   31  C   UNL     1      28.059  45.168  54.103  1.00  0.00     0.013 A 
HETATM   32  C   UNL     1      28.848  44.189  54.738  1.00  0.00    -0.026 A 
HETATM   33  C   UNL     1      28.950  42.930  54.112  1.00  0.00     0.013 A 
HETATM   34  C   UNL     1      28.366  42.685  52.867  1.00  0.00     0.018 A 
BRANCH  32  35
HETATM   35  C   UNL     1      29.585  44.491  55.986  1.00  0.00    -0.026 A 
HETATM   36  C   UNL     1      29.235  45.575  56.808  1.00  0.00     0.012 A 
HETATM   37  C   UNL     1      29.972  45.885  57.956  1.00  0.00     0.001 A 
HETATM   38  C   UNL     1      31.070  45.108  58.313  1.00  0.00     0.000 A 
HETATM   39  C   UNL     1      31.432  44.022  57.523  1.00  0.00     0.001 A 
HETATM   40  C   UNL     1      30.699  43.721  56.370  1.00  0.00     0.012 A 
ENDBRANCH  32  35
ENDBRANCH   8  29
TORSDOF 8
ENDMDL
MODEL 2
REMARK VINA RESULT:      -9.3      2.922     10.136
REMARK  8 active torsions:
REMARK  status: ('A' for Active; 'I' for Inactive)
REMARK    1  A    between atoms: O_2  and  C_3 
REMARK    2  A    between atoms: C_3  and  C_4 
REMARK    3  A    between atoms: C_4  and  N_5 
REMARK       I    between atoms: N_5  and  C_6 
REMARK    4  A    between atoms: C_6  and  C_7 
REMARK    5  A    between atoms: C_7  and  N_8 
REMARK       I    between atoms: N_14  and  C_15 
REMARK    6  A    between atoms: C_15  and  C_16 
REMARK    7  A    between atoms: C_19  and  C_20 
REMARK    8  A    between atoms: N_31  and  C_32 
ROOT
HETATM    1  N   UNL     1      26.418  44.140  52.588  1.00  0.00    -0.325 N 
HETATM    2  C   UNL     1      26.443  45.444  52.161  1.00  0.00     0.250 A 
HETATM    3  O   UNL     1      26.801  46.397  52.836  1.00  0.00    -0.270 OA
HETATM    4  C   UNL     1      25.887  45.482  50.720  1.00  0.00     0.118 A 
HETATM    5  C   UNL     1      26.951  46.122  49.810  1.00  0.00     0.061 C 
HETATM    6  C   UNL     1      26.990  47.645  49.936  1.00  0.00     0.129 C 
HETATM    7  N   UNL     1      25.648  48.210  49.864  1.00  0.00    -0.348 N 
HETATM    8  C   UNL     1      25.248  48.860  48.694  1.00  0.00     0.253 C 
HETATM    9  O   UNL     1      25.951  48.948  47.689  1.00  0.00    -0.267 OA
HETATM   10  C   UNL     1      24.742  47.740  50.912  1.00  0.00     0.129 C 
HETATM   11  C   UNL     1      24.545  46.232  50.796  1.00  0.00     0.061 C 
HETATM   12  N   UNL     1      25.684  44.031  50.427  1.00  0.00    -0.346 N 
HETATM   13  C   UNL     1      26.002  43.212  51.587  1.00  0.00     0.254 A 
ENDROOT
BRANCH  12  14
HETATM   14  C   UNL     1      25.135  43.450  49.297  1.00  0.00     0.032 A 
HETATM   15  C   UNL     1      24.143  44.065  48.517  1.00  0.00     0.029 A 
HETATM   16  C   UNL     1      23.586  43.457  47.382  1.00  0.00     0.002 A 
HETATM   17  C   UNL     1      24.011  42.200  46.981  1.00  0.00     0.000 A 
HETATM   18  C   UNL     1      24.999  41.559  47.713  1.00  0.00     0.002 A 
HETATM   19  C   UNL     1      25.548  42.180  48.844  1.00  0.00     0.029 A 
ENDBRANCH  12  14
BRANCH   1  20
HETATM   20  C   UNL     1      26.828  43.694  53.911  1.00  0.00     0.230 C 
BRANCH  20  21
HETATM   21  C   UNL     1      28.218  44.188  54.328  1.00  0.00     0.235 C 
HETATM   22  N   UNL     1      28.232  45.174  55.291  1.00  0.00    -0.358 N 
HETATM   23  H   UNL     1      27.371  45.691  55.439  1.00  0.00     0.162 HD
HETATM   24  O   UNL     1      29.237  43.785  53.773  1.00  0.00    -0.272 OA
BRANCH  22  25
HETATM   25  C   UNL     1      29.465  45.851  55.653  1.00  0.00     0.148 C 
BRANCH  25  26
HETATM   26  C   UNL     1      30.165  45.172  56.828  1.00  0.00     0.186 C 
BRANCH  26  27
HETATM   27  O   UNL     1      31.329  44.489  56.350  1.00  0.00    -0.394 OA
HETATM   28  C   UNL     1      31.489  43.228  56.992  1.00  0.00     0.201 C 
ENDBRANCH  26  27
ENDBRANCH  25  26
ENDBRANCH  22  25
ENDBRANCH  20  21
ENDBRANCH   1  20
BRANCH   8  29
HETATM   29  C   UNL     1      23.891  49.450  48.643  1.00  0.00     0.032 A 
HETATM   30  C   UNL     1      23.702  50.826  48.784  1.00  0.00     0.018 A 
HETATM   31  C   UNL     1      22.406  51.338  48.888  1.00  0.00     0.013 A 
HETATM   32  C   UNL     1      21.278  50.497  48.814  1.00  0.00    -0.026 A 
HETATM   33  C   UNL     1      21.502  49.128  48.565  1.00  0.00     0.013 A 
HETATM   34  C   UNL     1      22.795  48.604  48.482  1.00  0.00     0.018 A 
BRANCH  32  35
HETATM   35  C   UNL     1      19.914  51.024  49.044  1.00  0.00    -0.026 A 
HETATM   36  C   UNL     1      18.958  50.308  49.783  1.00  0.00     0.012 A 
HETATM   37  C   UNL     1      17.655  50.790  49.947  1.00  0.00     0.001 A 
HETATM   38  C   UNL     1      17.283  52.007  49.383  1.00  0.00     0.000 A 
HETATM   39  C   UNL     1      18.213  52.741  48.655  1.00  0.00     0.001 A 
HETATM   40  C   UNL     1      19.512  52.253  48.485  1.00  0.00     0.012 A 
ENDBRANCH  32  35
ENDBRANCH   8  29
TORSDOF 8
ENDMDL
MODEL 3
REMARK VINA RESULT:      -9.0      1.881      2.926
REMARK  8 active torsions:
REMARK  status: ('A' for Active; 'I' for Inactive)
REMARK    1  A    between atoms: O_2  and  C_3 
REMARK    2  A    between atoms: C_3  and  C_4 
REMARK    3  A    between atoms: C_4  and  N_5 
REMARK       I    between atoms: N_5  and  C_6 
REMARK    4  A    between atoms: C_6  and  C_7 
REMARK    5  A    between atoms: C_7  and  N_8 
REMARK       I    between atoms: N_14  and  C_15 
REMARK    6  A    between atoms: C_15  and  C_16 
REMARK    7  A    between atoms: C_19  and  C_20 
REMARK    8  A    between atoms: N_31  and  C_32 
ROOT
HETATM    1  N   UNL     1      21.470  46.248  49.126  1.00  0.00    -0.325 N 
HETATM    2  C   UNL     1      22.289  45.187  49.421  1.00  0.00     0.250 A 
HETATM    3  O   UNL     1      21.905  44.064  49.709  1.00  0.00    -0.270 OA
HETATM    4  C   UNL     1      23.749  45.689  49.380  1.00  0.00     0.118 A 
HETATM    5  C   UNL     1      24.526  44.829  48.367  1.00  0.00     0.061 C 
HETATM    6  C   UNL     1      24.911  43.462  48.934  1.00  0.00     0.129 C 
HETATM    7  N   UNL     1      25.499  43.594  50.262  1.00  0.00    -0.348 N 
HETATM    8  C   UNL     1      26.880  43.440  50.409  1.00  0.00     0.253 C 
HETATM    9  O   UNL     1      27.648  43.241  49.471  1.00  0.00    -0.267 OA
HETATM   10  C   UNL     1      24.615  44.208  51.251  1.00  0.00     0.129 C 
HETATM   11  C   UNL     1      24.265  45.631  50.830  1.00  0.00     0.061 C 
HETATM   12  N   UNL     1      23.580  47.100  48.918  1.00  0.00    -0.346 N 
HETATM   13  C   UNL     1      22.172  47.440  48.775  1.00  0.00     0.254 A 
ENDROOT
BRANCH  12  14
HETATM   14  C   UNL     1      24.550  48.076  48.762  1.00  0.00     0.032 A 
HETATM   15  C   UNL     1      24.316  49.298  48.113  1.00  0.00     0.029 A 
HETATM   16  C   UNL     1      25.313  50.272  47.950  1.00  0.00     0.002 A 
HETATM   17  C   UNL     1      26.592  50.054  48.440  1.00  0.00     0.000 A 
HETATM   18  C   UNL     1      26.865  48.866  49.100  1.00  0.00     0.002 A 
HETATM   19  C   UNL     1      25.859  47.903  49.258  1.00  0.00     0.029 A 
ENDBRANCH  12  14
BRANCH   1  20
HETATM   20  C   UNL     1      20.016  46.191  49.099  1.00  0.00     0.230 C 
BRANCH  20  21
HETATM   21  C   UNL     1      19.451  45.297  47.989  1.00  0.00     0.235 C 
HETATM   22  N   UNL     1      19.905  45.572  46.718  1.00  0.00    -0.358 N 
HETATM   23  H   UNL     1      20.327  46.482  46.562  1.00  0.00     0.162 HD
HETATM   24  O   UNL     1      18.589  44.452  48.221  1.00  0.00    -0.272 OA
BRANCH  22  25
HETATM   25  C   UNL     1      19.326  44.919  45.557  1.00  0.00     0.148 C 
BRANCH  25  26
HETATM   26  C   UNL     1      20.105  43.668  45.159  1.00  0.00     0.186 C 
BRANCH  26  27
HETATM   27  O   UNL     1      21.456  43.791  45.614  1.00  0.00    -0.394 OA
HETATM   28  C   UNL     1      21.874  42.627  46.318  1.00  0.00     0.201 C 
ENDBRANCH  26  27
ENDBRANCH  25  26
ENDBRANCH  22  25
ENDBRANCH  20  21
ENDBRANCH   1  20
BRANCH   8  29
HETATM   29  C   UNL     1      27.461  43.552  51.766  1.00  0.00     0.032 A 
HETATM   30  C   UNL     1      27.265  44.699  52.538  1.00  0.00     0.018 A 
HETATM   31  C   UNL     1      27.950  44.843  53.748  1.00  0.00     0.013 A 
HETATM   32  C   UNL     1      28.808  43.835  54.228  1.00  0.00    -0.026 A 
HETATM   33  C   UNL     1      28.900  42.646  53.477  1.00  0.00     0.013 A 
HETATM   34  C   UNL     1      28.236  42.502  52.256  1.00  0.00     0.018 A 
BRANCH  32  35
HETATM   35  C   UNL     1      29.622  44.040  55.448  1.00  0.00    -0.026 A 
HETATM   36  C   UNL     1      29.483  45.188  56.245  1.00  0.00     0.012 A 
HETATM   37  C   UNL     1      30.296  45.399  57.365  1.00  0.00     0.001 A 
HETATM   38  C   UNL     1      31.258  44.457  57.717  1.00  0.00     0.000 A 
HETATM   39  C   UNL     1      31.410  43.307  56.950  1.00  0.00     0.001 A 
HETATM   40  C   UNL     1      30.603  43.104  55.827  1.00  0.00     0.012 A 
ENDBRANCH  32  35
ENDBRANCH   8  29
TORSDOF 8
ENDMDL
MODEL 4
REMARK VINA RESULT:      -8.7     10.800     14.800
REMARK  8 active torsions:
REMARK  status: ('A' for Active; 'I' for Inactive)
REMARK    1  A    between atoms: O_2  and  C_3 
REMARK    2  A    between atoms: C_3  and  C_4 
REMARK    3  A    between atoms: C_4  and  N_5 
REMARK       I    between atoms: N_5  and  C_6 
REMARK    4  A    between atoms: C_6  and  C_7 
REMARK    5  A    between atoms: C_7  and  N_8 
REMARK       I    between atoms: N_14  and  C_15 
REMARK    6  A    between atoms: C_15  and  C_16 
REMARK    7  A    between atoms: C_19  and  C_20 
REMARK    8  A    between atoms: N_31  and  C_32 
ROOT
HETATM    1  N   UNL     1      29.652  48.410  39.299  1.00  0.00    -0.325 N 
HETATM    2  C   UNL     1      28.512  48.879  38.697  1.00  0.00     0.250 A 
HETATM    3  O   UNL     1      28.445  49.888  38.012  1.00  0.00    -0.270 OA
HETATM    4  C   UNL     1      27.347  47.945  39.092  1.00  0.00     0.118 A 
HETATM    5  C   UNL     1      26.709  47.399  37.802  1.00  0.00     0.061 C 
HETATM    6  C   UNL     1      25.788  48.417  37.129  1.00  0.00     0.129 C 
HETATM    7  N   UNL     1      24.882  49.024  38.098  1.00  0.00    -0.348 N 
HETATM    8  C   UNL     1      23.541  48.630  38.110  1.00  0.00     0.253 C 
HETATM    9  O   UNL     1      23.079  47.761  37.374  1.00  0.00    -0.267 OA
HETATM   10  C   UNL     1      25.554  49.739  39.181  1.00  0.00     0.129 C 
HETATM   11  C   UNL     1      26.414  48.775  39.992  1.00  0.00     0.061 C 
HETATM   12  N   UNL     1      28.052  46.883  39.872  1.00  0.00    -0.346 N 
HETATM   13  C   UNL     1      29.470  47.183  40.005  1.00  0.00     0.254 A 
ENDROOT
BRANCH  12  14
HETATM   14  C   UNL     1      27.506  45.802  40.544  1.00  0.00     0.032 A 
HETATM   15  C   UNL     1      26.620  45.933  41.624  1.00  0.00     0.029 A 
HETATM   16  C   UNL     1      26.085  44.828  42.303  1.00  0.00     0.002 A 
HETATM   17  C   UNL     1      26.420  43.539  41.917  1.00  0.00     0.000 A 
HETATM   18  C   UNL     1      27.282  43.361  40.846  1.00  0.00     0.002 A 
HETATM   19  C   UNL     1      27.807  44.474  40.175  1.00  0.00     0.029 A 
ENDBRANCH  12  14
BRANCH   1  20
HETATM   20  C   UNL     1      30.961  49.040  39.201  1.00  0.00     0.230 C 
BRANCH  20  21
HETATM   21  C   UNL     1      31.110  50.295  40.069  1.00  0.00     0.235 C 
HETATM   22  N   UNL     1      30.750  51.480  39.465  1.00  0.00    -0.358 N 
HETATM   23  H   UNL     1      30.696  51.487  38.451  1.00  0.00     0.162 HD
HETATM   24  O   UNL     1      31.600  50.243  41.195  1.00  0.00    -0.272 OA
BRANCH  22  25
HETATM   25  C   UNL     1      31.002  52.757  40.109  1.00  0.00     0.148 C 
BRANCH  25  26
HETATM   26  C   UNL     1      29.720  53.563  40.301  1.00  0.00     0.186 C 
BRANCH  26  27
HETATM   27  O   UNL     1      28.592  52.725  40.023  1.00  0.00    -0.394 OA
HETATM   28  C   UNL     1      27.876  52.410  41.212  1.00  0.00     0.201 C 
ENDBRANCH  26  27
ENDBRANCH  25  26
ENDBRANCH  22  25
ENDBRANCH  20  21
ENDBRANCH   1  20
BRANCH   8  29
HETATM   29  C   UNL     1      22.628  49.272  39.082  1.00  0.00     0.032 A 
HETATM   30  C   UNL     1      21.967  48.516  40.053  1.00  0.00     0.018 A 
HETATM   31  C   UNL     1      20.995  49.119  40.856  1.00  0.00     0.013 A 
HETATM   32  C   UNL     1      20.693  50.489  40.734  1.00  0.00    -0.026 A 
HETATM   33  C   UNL     1      21.452  51.245  39.819  1.00  0.00     0.013 A 
HETATM   34  C   UNL     1      22.410  50.646  38.997  1.00  0.00     0.018 A 
BRANCH  32  35
HETATM   35  C   UNL     1      19.582  51.098  41.501  1.00  0.00    -0.026 A 
HETATM   36  C   UNL     1      19.111  50.532  42.697  1.00  0.00     0.012 A 
HETATM   37  C   UNL     1      18.025  51.084  43.386  1.00  0.00     0.001 A 
HETATM   38  C   UNL     1      17.393  52.223  42.895  1.00  0.00     0.000 A 
HETATM   39  C   UNL     1      17.845  52.809  41.718  1.00  0.00     0.001 A 
HETATM   40  C   UNL     1      18.925  52.250  41.028  1.00  0.00     0.012 A 
ENDBRANCH  32  35
ENDBRANCH   8  29
TORSDOF 8
ENDMDL
MODEL 5
REMARK VINA RESULT:      -8.5      3.343     10.201
REMARK  8 active torsions:
REMARK  status: ('A' for Active; 'I' for Inactive)
REMARK    1  A    between atoms: O_2  and  C_3 
REMARK    2  A    between atoms: C_3  and  C_4 
REMARK    3  A    between atoms: C_4  and  N_5 
REMARK       I    between atoms: N_5  and  C_6 
REMARK    4  A    between atoms: C_6  and  C_7 
REMARK    5  A    between atoms: C_7  and  N_8 
REMARK       I    between atoms: N_14  and  C_15 
REMARK    6  A    between atoms: C_15  and  C_16 
REMARK    7  A    between atoms: C_19  and  C_20 
REMARK    8  A    between atoms: N_31  and  C_32 
ROOT
HETATM    1  N   UNL     1      26.252  44.837  52.491  1.00  0.00    -0.325 N 
HETATM    2  C   UNL     1      26.206  46.110  51.979  1.00  0.00     0.250 A 
HETATM    3  O   UNL     1      26.520  47.122  52.586  1.00  0.00    -0.270 OA
HETATM    4  C   UNL     1      25.637  46.024  50.545  1.00  0.00     0.118 A 
HETATM    5  C   UNL     1      26.658  46.657  49.583  1.00  0.00     0.061 C 
HETATM    6  C   UNL     1      26.619  48.185  49.609  1.00  0.00     0.129 C 
HETATM    7  N   UNL     1      25.248  48.674  49.517  1.00  0.00    -0.348 N 
HETATM    8  C   UNL     1      24.806  49.224  48.311  1.00  0.00     0.253 C 
HETATM    9  O   UNL     1      25.494  49.283  47.295  1.00  0.00    -0.267 OA
HETATM   10  C   UNL     1      24.377  48.227  50.603  1.00  0.00     0.129 C 
HETATM   11  C   UNL     1      24.258  46.707  50.588  1.00  0.00     0.061 C 
HETATM   12  N   UNL     1      25.507  44.548  50.349  1.00  0.00    -0.346 N 
HETATM   13  C   UNL     1      25.877  43.825  51.557  1.00  0.00     0.254 A 
ENDROOT
BRANCH  12  14
HETATM   14  C   UNL     1      24.979  43.867  49.266  1.00  0.00     0.032 A 
HETATM   15  C   UNL     1      25.343  42.554  48.929  1.00  0.00     0.029 A 
HETATM   16  C   UNL     1      24.808  41.882  47.819  1.00  0.00     0.002 A 
HETATM   17  C   UNL     1      23.879  42.507  47.002  1.00  0.00     0.000 A 
HETATM   18  C   UNL     1      23.480  43.800  47.304  1.00  0.00     0.002 A 
HETATM   19  C   UNL     1      24.020  44.458  48.418  1.00  0.00     0.029 A 
ENDBRANCH  12  14
BRANCH   1  20
HETATM   20  C   UNL     1      26.696  44.500  53.835  1.00  0.00     0.230 C 
BRANCH  20  21
HETATM   21  C   UNL     1      27.592  43.258  53.898  1.00  0.00     0.235 C 
HETATM   22  N   UNL     1      28.699  43.283  53.077  1.00  0.00    -0.358 N 
HETATM   23  H   UNL     1      28.694  43.948  52.310  1.00  0.00     0.162 HD
HETATM   24  O   UNL     1      27.286  42.279  54.575  1.00  0.00    -0.272 OA
BRANCH  22  25
HETATM   25  C   UNL     1      29.535  42.107  52.911  1.00  0.00     0.148 C 
BRANCH  25  26
HETATM   26  C   UNL     1      28.782  40.961  52.241  1.00  0.00     0.186 C 
BRANCH  26  27
HETATM   27  O   UNL     1      28.316  41.392  50.957  1.00  0.00    -0.394 OA
HETATM   28  C   UNL     1      28.270  40.311  50.033  1.00  0.00     0.201 C 
ENDBRANCH  26  27
ENDBRANCH  25  26
ENDBRANCH  22  25
ENDBRANCH  20  21
ENDBRANCH   1  20
BRANCH   8  29
HETATM   29  C   UNL     1      23.420  49.739  48.238  1.00  0.00     0.032 A 
HETATM   30  C   UNL     1      23.120  51.050  48.616  1.00  0.00     0.018 A 
HETATM   31  C   UNL     1      21.786  51.461  48.686  1.00  0.00     0.013 A 
HETATM   32  C   UNL     1      20.733  50.591  48.343  1.00  0.00    -0.026 A 
HETATM   33  C   UNL     1      21.075  49.311  47.864  1.00  0.00     0.013 A 
HETATM   34  C   UNL     1      22.405  48.883  47.812  1.00  0.00     0.018 A 
BRANCH  32  35
HETATM   35  C   UNL     1      19.320  50.990  48.531  1.00  0.00    -0.026 A 
HETATM   36  C   UNL     1      18.968  52.187  49.176  1.00  0.00     0.012 A 
HETATM   37  C   UNL     1      17.629  52.529  49.397  1.00  0.00     0.001 A 
HETATM   38  C   UNL     1      16.612  51.682  48.967  1.00  0.00     0.000 A 
HETATM   39  C   UNL     1      16.931  50.495  48.317  1.00  0.00     0.001 A 
HETATM   40  C   UNL     1      18.270  50.152  48.106  1.00  0.00     0.012 A 
ENDBRANCH  32  35
ENDBRANCH   8  29
TORSDOF 8
ENDMDL
MODEL 6
REMARK VINA RESULT:      -8.3     10.780     14.954
REMARK  8 active torsions:
REMARK  status: ('A' for Active; 'I' for Inactive)
REMARK    1  A    between atoms: O_2  and  C_3 
REMARK    2  A    between atoms: C_3  and  C_4 
REMARK    3  A    between atoms: C_4  and  N_5 
REMARK       I    between atoms: N_5  and  C_6 
REMARK    4  A    between atoms: C_6  and  C_7 
REMARK    5  A    between atoms: C_7  and  N_8 
REMARK       I    between atoms: N_14  and  C_15 
REMARK    6  A    between atoms: C_15  and  C_16 
REMARK    7  A    between atoms: C_19  and  C_20 
REMARK    8  A    between atoms: N_31  and  C_32 
ROOT
HETATM    1  N   UNL     1      29.721  48.312  39.410  1.00  0.00    -0.325 N 
HETATM    2  C   UNL     1      28.604  48.795  38.776  1.00  0.00     0.250 A 
HETATM    3  O   UNL     1      28.565  49.811  38.100  1.00  0.00    -0.270 OA
HETATM    4  C   UNL     1      27.421  47.864  39.124  1.00  0.00     0.118 A 
HETATM    5  C   UNL     1      26.821  47.336  37.808  1.00  0.00     0.061 C 
HETATM    6  C   UNL     1      25.929  48.367  37.117  1.00  0.00     0.129 C 
HETATM    7  N   UNL     1      24.996  48.970  38.062  1.00  0.00    -0.348 N 
HETATM    8  C   UNL     1      23.653  48.586  38.026  1.00  0.00     0.253 C 
HETATM    9  O   UNL     1      23.209  47.727  37.267  1.00  0.00    -0.267 OA
HETATM   10  C   UNL     1      25.638  49.669  39.174  1.00  0.00     0.129 C 
HETATM   11  C   UNL     1      26.465  48.691  40.002  1.00  0.00     0.061 C 
HETATM   12  N   UNL     1      28.094  46.789  39.915  1.00  0.00    -0.346 N 
HETATM   13  C   UNL     1      29.508  47.079  40.096  1.00  0.00     0.254 A 
ENDROOT
BRANCH  12  14
HETATM   14  C   UNL     1      27.519  45.705  40.556  1.00  0.00     0.032 A 
HETATM   15  C   UNL     1      26.634  45.829  41.638  1.00  0.00     0.029 A 
HETATM   16  C   UNL     1      26.070  44.720  42.287  1.00  0.00     0.002 A 
HETATM   17  C   UNL     1      26.374  43.434  41.867  1.00  0.00     0.000 A 
HETATM   18  C   UNL     1      27.234  43.263  40.793  1.00  0.00     0.002 A 
HETATM   19  C   UNL     1      27.787  44.380  40.153  1.00  0.00     0.029 A 
ENDBRANCH  12  14
BRANCH   1  20
HETATM   20  C   UNL     1      31.036  48.934  39.361  1.00  0.00     0.230 C 
BRANCH  20  21
HETATM   21  C   UNL     1      31.768  48.940  40.708  1.00  0.00     0.235 C 
HETATM   22  N   UNL     1      31.339  49.888  41.611  1.00  0.00    -0.358 N 
HETATM   23  H   UNL     1      30.804  50.669  41.247  1.00  0.00     0.162 HD
HETATM   24  O   UNL     1      32.727  48.202  40.920  1.00  0.00    -0.272 OA
BRANCH  22  25
HETATM   25  C   UNL     1      32.056  50.117  42.854  1.00  0.00     0.148 C 
BRANCH  25  26
HETATM   26  C   UNL     1      32.305  51.602  43.105  1.00  0.00     0.186 C 
BRANCH  26  27
HETATM   27  O   UNL     1      33.675  51.793  43.473  1.00  0.00    -0.394 OA
HETATM   28  C   UNL     1      34.555  51.316  42.462  1.00  0.00     0.201 C 
ENDBRANCH  26  27
ENDBRANCH  25  26
ENDBRANCH  22  25
ENDBRANCH  20  21
ENDBRANCH   1  20
BRANCH   8  29
HETATM   29  C   UNL     1      22.713  49.222  38.976  1.00  0.00     0.032 A 
HETATM   30  C   UNL     1      22.185  48.506  40.052  1.00  0.00     0.018 A 
HETATM   31  C   UNL     1      21.183  49.081  40.840  1.00  0.00     0.013 A 
HETATM   32  C   UNL     1      20.720  50.389  40.596  1.00  0.00    -0.026 A 
HETATM   33  C   UNL     1      21.349  51.121  39.570  1.00  0.00     0.013 A 
HETATM   34  C   UNL     1      22.335  50.547  38.763  1.00  0.00     0.018 A 
BRANCH  32  35
HETATM   35  C   UNL     1      19.579  50.950  41.355  1.00  0.00    -0.026 A 
HETATM   36  C   UNL     1      19.024  52.201  41.039  1.00  0.00     0.012 A 
HETATM   37  C   UNL     1      17.982  52.747  41.796  1.00  0.00     0.001 A 
HETATM   38  C   UNL     1      17.466  52.046  42.882  1.00  0.00     0.000 A 
HETATM   39  C   UNL     1      17.990  50.801  43.211  1.00  0.00     0.001 A 
HETATM   40  C   UNL     1      19.038  50.262  42.458  1.00  0.00     0.012 A 
ENDBRANCH  32  35
ENDBRANCH   8  29
TORSDOF 8
ENDMDL
MODEL 7
REMARK VINA RESULT:      -8.1      3.950      9.443
REMARK  8 active torsions:
REMARK  status: ('A' for Active; 'I' for Inactive)
REMARK    1  A    between atoms: O_2  and  C_3 
REMARK    2  A    between atoms: C_3  and  C_4 
REMARK    3  A    between atoms: C_4  and  N_5 
REMARK       I    between atoms: N_5  and  C_6 
REMARK    4  A    between atoms: C_6  and  C_7 
REMARK    5  A    between atoms: C_7  and  N_8 
REMARK       I    between atoms: N_14  and  C_15 
REMARK    6  A    between atoms: C_15  and  C_16 
REMARK    7  A    between atoms: C_19  and  C_20 
REMARK    8  A    between atoms: N_31  and  C_32 
ROOT
HETATM    1  N   UNL     1      25.122  45.145  52.161  1.00  0.00    -0.325 N 
HETATM    2  C   UNL     1      24.407  44.382  51.272  1.00  0.00     0.250 A 
HETATM    3  O   UNL     1      24.080  43.219  51.451  1.00  0.00    -0.270 OA
HETATM    4  C   UNL     1      24.155  45.235  50.010  1.00  0.00     0.118 A 
HETATM    5  C   UNL     1      22.636  45.302  49.769  1.00  0.00     0.061 C 
HETATM    6  C   UNL     1      22.088  44.025  49.131  1.00  0.00     0.129 C 
HETATM    7  N   UNL     1      22.910  43.613  47.998  1.00  0.00    -0.348 N 
HETATM    8  C   UNL     1      22.429  43.819  46.703  1.00  0.00     0.253 C 
HETATM    9  O   UNL     1      21.362  44.374  46.452  1.00  0.00    -0.267 OA
HETATM   10  C   UNL     1      24.303  43.330  48.339  1.00  0.00     0.129 C 
HETATM   11  C   UNL     1      24.976  44.587  48.880  1.00  0.00     0.061 C 
HETATM   12  N   UNL     1      24.727  46.557  50.408  1.00  0.00    -0.346 N 
HETATM   13  C   UNL     1      25.331  46.490  51.731  1.00  0.00     0.254 A 
ENDROOT
BRANCH  12  14
HETATM   14  C   UNL     1      24.850  47.707  49.647  1.00  0.00     0.032 A 
HETATM   15  C   UNL     1      23.760  48.356  49.048  1.00  0.00     0.029 A 
HETATM   16  C   UNL     1      23.903  49.513  48.267  1.00  0.00     0.002 A 
HETATM   17  C   UNL     1      25.156  50.068  48.060  1.00  0.00     0.000 A 
HETATM   18  C   UNL     1      26.261  49.468  48.643  1.00  0.00     0.002 A 
HETATM   19  C   UNL     1      26.103  48.314  49.423  1.00  0.00     0.029 A 
ENDBRANCH  12  14
BRANCH   1  20
HETATM   20  C   UNL     1      25.590  44.685  53.460  1.00  0.00     0.230 C 
BRANCH  20  21
HETATM   21  C   UNL     1      26.924  43.932  53.407  1.00  0.00     0.235 C 
HETATM   22  N   UNL     1      26.836  42.594  53.089  1.00  0.00    -0.358 N 
HETATM   23  H   UNL     1      25.931  42.148  53.197  1.00  0.00     0.162 HD
HETATM   24  O   UNL     1      27.982  44.477  53.713  1.00  0.00    -0.272 OA
BRANCH  22  25
HETATM   25  C   UNL     1      27.999  41.727  53.172  1.00  0.00     0.148 C 
BRANCH  25  26
HETATM   26  C   UNL     1      28.262  40.998  51.857  1.00  0.00     0.186 C 
BRANCH  26  27
HETATM   27  O   UNL     1      27.089  41.067  51.038  1.00  0.00    -0.394 OA
HETATM   28  C   UNL     1      27.390  41.580  49.745  1.00  0.00     0.201 C 
ENDBRANCH  26  27
ENDBRANCH  25  26
ENDBRANCH  22  25
ENDBRANCH  20  21
ENDBRANCH   1  20
BRANCH   8  29
HETATM   29  C   UNL     1      23.262  43.374  45.563  1.00  0.00     0.032 A 
HETATM   30  C   UNL     1      23.737  42.063  45.490  1.00  0.00     0.018 A 
HETATM   31  C   UNL     1      24.646  41.712  44.488  1.00  0.00     0.013 A 
HETATM   32  C   UNL     1      25.066  42.646  43.521  1.00  0.00    -0.026 A 
HETATM   33  C   UNL     1      24.486  43.929  43.560  1.00  0.00     0.013 A 
HETATM   34  C   UNL     1      23.594  44.296  44.571  1.00  0.00     0.018 A 
BRANCH  32  35
HETATM   35  C   UNL     1      26.117  42.305  42.535  1.00  0.00    -0.026 A 
HETATM   36  C   UNL     1      25.902  42.428  41.152  1.00  0.00     0.012 A 
HETATM   37  C   UNL     1      26.883  42.052  40.227  1.00  0.00     0.001 A 
HETATM   38  C   UNL     1      28.105  41.554  40.668  1.00  0.00     0.000 A 
HETATM   39  C   UNL     1      28.348  41.432  42.032  1.00  0.00     0.001 A 
HETATM   40  C   UNL     1      27.363  41.800  42.954  1.00  0.00     0.012 A 
ENDBRANCH  32  35
ENDBRANCH   8  29
TORSDOF 8
ENDMDL
MODEL 8
REMARK VINA RESULT:      -8.0      4.075      9.751
REMARK  8 active torsions:
REMARK  status: ('A' for Active; 'I' for Inactive)
REMARK    1  A    between atoms: O_2  and  C_3 
REMARK    2  A    between atoms: C_3  and  C_4 
REMARK    3  A    between atoms: C_4  and  N_5 
REMARK       I    between atoms: N_5  and  C_6 
REMARK    4  A    between atoms: C_6  and  C_7 
REMARK    5  A    between atoms: C_7  and  N_8 
REMARK       I    between atoms: N_14  and  C_15 
REMARK    6  A    between atoms: C_15  and  C_16 
REMARK    7  A    between atoms: C_19  and  C_20 
REMARK    8  A    between atoms: N_31  and  C_32 
ROOT
HETATM    1  N   UNL     1      25.203  45.076  52.131  1.00  0.00    -0.325 N 
HETATM    2  C   UNL     1      24.485  44.320  51.239  1.00  0.00     0.250 A 
HETATM    3  O   UNL     1      24.174  43.150  51.402  1.00  0.00    -0.270 OA
HETATM    4  C   UNL     1      24.207  45.191  49.994  1.00  0.00     0.118 A 
HETATM    5  C   UNL     1      22.685  45.244  49.774  1.00  0.00     0.061 C 
HETATM    6  C   UNL     1      22.143  43.972  49.121  1.00  0.00     0.129 C 
HETATM    7  N   UNL     1      22.954  43.587  47.972  1.00  0.00    -0.348 N 
HETATM    8  C   UNL     1      22.454  43.810  46.686  1.00  0.00     0.253 C 
HETATM    9  O   UNL     1      21.378  44.357  46.458  1.00  0.00    -0.267 OA
HETATM   10  C   UNL     1      24.355  43.315  48.290  1.00  0.00     0.129 C 
HETATM   11  C   UNL     1      25.021  44.571  48.843  1.00  0.00     0.061 C 
HETATM   12  N   UNL     1      24.769  46.512  50.407  1.00  0.00    -0.346 N 
HETATM   13  C   UNL     1      25.392  46.430  51.720  1.00  0.00     0.254 A 
ENDROOT
BRANCH  12  14
HETATM   14  C   UNL     1      24.870  47.675  49.663  1.00  0.00     0.032 A 
HETATM   15  C   UNL     1      23.763  48.334  49.107  1.00  0.00     0.029 A 
HETATM   16  C   UNL     1      23.883  49.505  48.343  1.00  0.00     0.002 A 
HETATM   17  C   UNL     1      25.129  50.066  48.111  1.00  0.00     0.000 A 
HETATM   18  C   UNL     1      26.251  49.456  48.653  1.00  0.00     0.002 A 
HETATM   19  C   UNL     1      26.116  48.289  49.415  1.00  0.00     0.029 A 
ENDBRANCH  12  14
BRANCH   1  20
HETATM   20  C   UNL     1      25.692  44.600  53.416  1.00  0.00     0.230 C 
BRANCH  20  21
HETATM   21  C   UNL     1      27.151  44.131  53.389  1.00  0.00     0.235 C 
HETATM   22  N   UNL     1      27.831  44.238  54.583  1.00  0.00    -0.358 N 
HETATM   23  H   UNL     1      27.442  44.859  55.285  1.00  0.00     0.162 HD
HETATM   24  O   UNL     1      27.690  43.767  52.345  1.00  0.00    -0.272 OA
BRANCH  22  25
HETATM   25  C   UNL     1      29.261  43.992  54.656  1.00  0.00     0.148 C 
BRANCH  25  26
HETATM   26  C   UNL     1      29.923  44.802  55.767  1.00  0.00     0.186 C 
BRANCH  26  27
HETATM   27  O   UNL     1      31.215  44.250  56.045  1.00  0.00    -0.394 OA
HETATM   28  C   UNL     1      31.370  43.967  57.431  1.00  0.00     0.201 C 
ENDBRANCH  26  27
ENDBRANCH  25  26
ENDBRANCH  22  25
ENDBRANCH  20  21
ENDBRANCH   1  20
BRANCH   8  29
HETATM   29  C   UNL     1      23.278  43.393  45.528  1.00  0.00     0.032 A 
HETATM   30  C   UNL     1      23.755  42.085  45.421  1.00  0.00     0.018 A 
HETATM   31  C   UNL     1      24.656  41.759  44.403  1.00  0.00     0.013 A 
HETATM   32  C   UNL     1      25.064  42.716  43.453  1.00  0.00    -0.026 A 
HETATM   33  C   UNL     1      24.481  43.997  43.527  1.00  0.00     0.013 A 
HETATM   34  C   UNL     1      23.598  44.338  44.555  1.00  0.00     0.018 A 
BRANCH  32  35
HETATM   35  C   UNL     1      26.106  42.401  42.450  1.00  0.00    -0.026 A 
HETATM   36  C   UNL     1      27.301  41.752  42.803  1.00  0.00     0.012 A 
HETATM   37  C   UNL     1      28.304  41.508  41.858  1.00  0.00     0.001 A 
HETATM   38  C   UNL     1      28.126  41.900  40.534  1.00  0.00     0.000 A 
HETATM   39  C   UNL     1      26.949  42.536  40.155  1.00  0.00     0.001 A 
HETATM   40  C   UNL     1      25.953  42.786  41.104  1.00  0.00     0.012 A 
ENDBRANCH  32  35
ENDBRANCH   8  29
TORSDOF 8
ENDMDL
MODEL 9
REMARK VINA RESULT:      -8.0     15.423     19.461
REMARK  8 active torsions:
REMARK  status: ('A' for Active; 'I' for Inactive)
REMARK    1  A    between atoms: O_2  and  C_3 
REMARK    2  A    between atoms: C_3  and  C_4 
REMARK    3  A    between atoms: C_4  and  N_5 
REMARK       I    between atoms: N_5  and  C_6 
REMARK    4  A    between atoms: C_6  and  C_7 
REMARK    5  A    between atoms: C_7  and  N_8 
REMARK       I    between atoms: N_14  and  C_15 
REMARK    6  A    between atoms: C_15  and  C_16 
REMARK    7  A    between atoms: C_19  and  C_20 
REMARK    8  A    between atoms: N_31  and  C_32 
ROOT
HETATM    1  N   UNL     1      40.964  57.048  43.911  1.00  0.00    -0.325 N 
HETATM    2  C   UNL     1      40.603  56.026  43.070  1.00  0.00     0.250 A 
HETATM    3  O   UNL     1      40.682  56.059  41.852  1.00  0.00    -0.270 OA
HETATM    4  C   UNL     1      40.033  54.879  43.934  1.00  0.00     0.118 A 
HETATM    5  C   UNL     1      40.849  53.606  43.643  1.00  0.00     0.061 C 
HETATM    6  C   UNL     1      40.448  52.941  42.327  1.00  0.00     0.129 C 
HETATM    7  N   UNL     1      38.998  52.823  42.222  1.00  0.00    -0.348 N 
HETATM    8  C   UNL     1      38.406  51.571  42.407  1.00  0.00     0.253 C 
HETATM    9  O   UNL     1      39.034  50.556  42.701  1.00  0.00    -0.267 OA
HETATM   10  C   UNL     1      38.287  54.100  42.264  1.00  0.00     0.129 C 
HETATM   11  C   UNL     1      38.533  54.792  43.600  1.00  0.00     0.061 C 
HETATM   12  N   UNL     1      40.254  55.394  45.319  1.00  0.00    -0.346 N 
HETATM   13  C   UNL     1      40.817  56.736  45.297  1.00  0.00     0.254 A 
ENDROOT
BRANCH  12  14
HETATM   14  C   UNL     1      39.876  54.820  46.521  1.00  0.00     0.032 A 
HETATM   15  C   UNL     1      38.548  54.495  46.837  1.00  0.00     0.029 A 
HETATM   16  C   UNL     1      38.179  53.926  48.065  1.00  0.00     0.002 A 
HETATM   17  C   UNL     1      39.138  53.656  49.029  1.00  0.00     0.000 A 
HETATM   18  C   UNL     1      40.466  53.949  48.756  1.00  0.00     0.002 A 
HETATM   19  C   UNL     1      40.820  54.514  47.523  1.00  0.00     0.029 A 
ENDBRANCH  12  14
BRANCH   1  20
HETATM   20  C   UNL     1      41.511  58.325  43.477  1.00  0.00     0.230 C 
BRANCH  20  21
HETATM   21  C   UNL     1      40.752  59.541  44.022  1.00  0.00     0.235 C 
HETATM   22  N   UNL     1      41.455  60.333  44.903  1.00  0.00    -0.358 N 
HETATM   23  H   UNL     1      42.275  59.925  45.341  1.00  0.00     0.162 HD
HETATM   24  O   UNL     1      39.569  59.735  43.748  1.00  0.00    -0.272 OA
BRANCH  22  25
HETATM   25  C   UNL     1      40.804  61.413  45.623  1.00  0.00     0.148 C 
BRANCH  25  26
HETATM   26  C   UNL     1      41.745  62.594  45.852  1.00  0.00     0.186 C 
BRANCH  26  27
HETATM   27  O   UNL     1      41.020  63.655  46.484  1.00  0.00    -0.394 OA
HETATM   28  C   UNL     1      39.688  63.737  45.991  1.00  0.00     0.201 C 
ENDBRANCH  26  27
ENDBRANCH  25  26
ENDBRANCH  22  25
ENDBRANCH  20  21
ENDBRANCH   1  20
BRANCH   8  29
HETATM   29  C   UNL     1      36.936  51.460  42.274  1.00  0.00     0.032 A 
HETATM   30  C   UNL     1      36.089  51.869  43.306  1.00  0.00     0.018 A 
HETATM   31  C   UNL     1      34.718  51.612  43.218  1.00  0.00     0.013 A 
HETATM   32  C   UNL     1      34.162  50.980  42.088  1.00  0.00    -0.026 A 
HETATM   33  C   UNL     1      35.030  50.677  41.020  1.00  0.00     0.013 A 
HETATM   34  C   UNL     1      36.405  50.911  41.108  1.00  0.00     0.018 A 
BRANCH  32  35
HETATM   35  C   UNL     1      32.732  50.602  42.050  1.00  0.00    -0.026 A 
HETATM   36  C   UNL     1      31.735  51.515  41.666  1.00  0.00     0.012 A 
HETATM   37  C   UNL     1      30.380  51.164  41.685  1.00  0.00     0.001 A 
HETATM   38  C   UNL     1      29.995  49.886  42.080  1.00  0.00     0.000 A 
HETATM   39  C   UNL     1      30.962  48.960  42.455  1.00  0.00     0.001 A 
HETATM   40  C   UNL     1      32.314  49.316  42.444  1.00  0.00     0.012 A 
ENDBRANCH  32  35
ENDBRANCH   8  29
TORSDOF 8
ENDMDL
MODEL 10
REMARK VINA RESULT:      -8.0      4.555     11.897
REMARK  8 active torsions:
REMARK  status: ('A' for Active; 'I' for Inactive)
REMARK    1  A    between atoms: O_2  and  C_3 
REMARK    2  A    between atoms: C_3  and  C_4 
REMARK    3  A    between atoms: C_4  and  N_5 
REMARK       I    between atoms: N_5  and  C_6 
REMARK    4  A    between atoms: C_6  and  C_7 
REMARK    5  A    between atoms: C_7  and  N_8 
REMARK       I    between atoms: N_14  and  C_15 
REMARK    6  A    between atoms: C_15  and  C_16 
REMARK    7  A    between atoms: C_19  and  C_20 
REMARK    8  A    between atoms: N_31  and  C_32 
ROOT
HETATM    1  N   UNL     1      23.282  48.416  49.048  1.00  0.00    -0.325 N 
HETATM    2  C   UNL     1      22.515  47.365  48.610  1.00  0.00     0.250 A 
HETATM    3  O   UNL     1      22.942  46.257  48.324  1.00  0.00    -0.270 OA
HETATM    4  C   UNL     1      21.055  47.858  48.493  1.00  0.00     0.118 A 
HETATM    5  C   UNL     1      20.170  46.952  49.367  1.00  0.00     0.061 C 
HETATM    6  C   UNL     1      19.869  45.609  48.701  1.00  0.00     0.129 C 
HETATM    7  N   UNL     1      19.446  45.795  47.317  1.00  0.00    -0.348 N 
HETATM    8  C   UNL     1      18.095  45.642  46.997  1.00  0.00     0.253 C 
HETATM    9  O   UNL     1      17.220  45.400  47.825  1.00  0.00    -0.267 OA
HETATM   10  C   UNL     1      20.438  46.456  46.470  1.00  0.00     0.129 C 
HETATM   11  C   UNL     1      20.720  47.861  46.991  1.00  0.00     0.061 C 
HETATM   12  N   UNL     1      21.153  49.249  49.032  1.00  0.00    -0.346 N 
HETATM   13  C   UNL     1      22.530  49.589  49.360  1.00  0.00     0.254 A 
ENDROOT
BRANCH  12  14
HETATM   14  C   UNL     1      20.163  50.213  49.110  1.00  0.00     0.032 A 
HETATM   15  C   UNL     1      19.022  50.083  49.917  1.00  0.00     0.029 A 
HETATM   16  C   UNL     1      18.020  51.064  49.975  1.00  0.00     0.002 A 
HETATM   17  C   UNL     1      18.129  52.223  49.222  1.00  0.00     0.000 A 
HETATM   18  C   UNL     1      19.246  52.400  48.420  1.00  0.00     0.002 A 
HETATM   19  C   UNL     1      20.240  51.414  48.374  1.00  0.00     0.029 A 
ENDBRANCH  12  14
BRANCH   1  20
HETATM   20  C   UNL     1      24.722  48.364  49.249  1.00  0.00     0.230 C 
BRANCH  20  21
HETATM   21  C   UNL     1      25.159  47.391  50.349  1.00  0.00     0.235 C 
HETATM   22  N   UNL     1      25.614  46.166  49.911  1.00  0.00    -0.358 N 
HETATM   23  H   UNL     1      25.368  45.890  48.966  1.00  0.00     0.162 HD
HETATM   24  O   UNL     1      25.026  47.665  51.540  1.00  0.00    -0.272 OA
BRANCH  22  25
HETATM   25  C   UNL     1      25.897  45.093  50.847  1.00  0.00     0.148 C 
BRANCH  25  26
HETATM   26  C   UNL     1      24.664  44.234  51.120  1.00  0.00     0.186 C 
BRANCH  26  27
HETATM   27  O   UNL     1      24.384  44.248  52.524  1.00  0.00    -0.394 OA
HETATM   28  C   UNL     1      25.539  44.597  53.279  1.00  0.00     0.201 C 
ENDBRANCH  26  27
ENDBRANCH  25  26
ENDBRANCH  22  25
ENDBRANCH  20  21
ENDBRANCH   1  20
BRANCH   8  29
HETATM   29  C   UNL     1      17.682  45.810  45.585  1.00  0.00     0.032 A 
HETATM   30  C   UNL     1      17.820  44.765  44.668  1.00  0.00     0.018 A 
HETATM   31  C   UNL     1      17.570  44.998  43.313  1.00  0.00     0.013 A 
HETATM   32  C   UNL     1      17.141  46.259  42.853  1.00  0.00    -0.026 A 
HETATM   33  C   UNL     1      16.910  47.259  43.818  1.00  0.00     0.013 A 
HETATM   34  C   UNL     1      17.179  47.042  45.172  1.00  0.00     0.018 A 
BRANCH  32  35
HETATM   35  C   UNL     1      16.992  46.536  41.407  1.00  0.00    -0.026 A 
HETATM   36  C   UNL     1      17.816  45.924  40.447  1.00  0.00     0.012 A 
HETATM   37  C   UNL     1      17.703  46.233  39.087  1.00  0.00     0.001 A 
HETATM   38  C   UNL     1      16.754  47.156  38.657  1.00  0.00     0.000 A 
HETATM   39  C   UNL     1      15.919  47.769  39.584  1.00  0.00     0.001 A 
HETATM   40  C   UNL     1      16.040  47.465  40.944  1.00  0.00     0.012 A 
ENDBRANCH  32  35
ENDBRANCH   8  29
TORSDOF 8
ENDMDL
