MODEL 1
REMARK VINA RESULT:      -8.8      0.000      0.000
REMARK  10 active torsions:
REMARK  status: ('A' for Active; 'I' for Inactive)
REMARK    1  A    between atoms: N_7  and  C_8 
REMARK    2  A    between atoms: C_8  and  C_9 
REMARK       I    between atoms: C_9  and  N_10 
REMARK    3  A    between atoms: N_10  and  C_11 
REMARK    4  A    between atoms: C_11  and  C_12 
REMARK    5  A    between atoms: C_12  and  C_13 
REMARK    6  A    between atoms: C_13  and  C_14 
REMARK       I    between atoms: C_14  and  N_15 
REMARK    7  A    between atoms: N_15  and  C_16 
REMARK    8  A    between atoms: C_16  and  C_17 
REMARK    9  A    between atoms: C_17  and  C_18 
REMARK   10  A    between atoms: C_18  and  N_19 
ROOT
HETATM    1  C   UNL     1      25.564  45.433  49.734  1.00  0.00     0.123 C 
ENDROOT
BRANCH   1   2
HETATM    2  N   UNL     1      25.474  45.220  51.164  1.00  0.00    -0.360 N 
HETATM    3  C   UNL     1      25.578  46.272  52.057  1.00  0.00     0.235 C 
HETATM    4  O   UNL     1      25.781  47.428  51.695  1.00  0.00    -0.272 OA
HETATM    5  H   UNL     1      25.394  44.272  51.510  1.00  0.00     0.162 HD
BRANCH   3   6
HETATM    6  C   UNL     1      25.343  45.881  53.516  1.00  0.00     0.235 C 
BRANCH   6   7
HETATM    7  N   UNL     1      26.600  45.857  54.240  1.00  0.00    -0.299 N 
HETATM    8  C   UNL     1      26.986  46.945  55.001  1.00  0.00     0.214 A 
HETATM    9  N   UNL     1      28.064  47.020  55.710  1.00  0.00    -0.235 NA
HETATM   10  C   UNL     1      28.844  45.910  55.663  1.00  0.00     0.115 A 
HETATM   11  C   UNL     1      28.620  44.776  54.916  1.00  0.00     0.075 A 
HETATM   12  S   UNL     1      30.267  45.790  56.582  1.00  0.00    -0.074 SA
HETATM   13  C   UNL     1      29.648  43.780  55.088  1.00  0.00    -0.031 A 
HETATM   14  C   UNL     1      27.417  44.738  54.099  1.00  0.00     0.262 A 
HETATM   15  C   UNL     1      29.665  42.459  54.386  1.00  0.00     0.050 C 
HETATM   16  C   UNL     1      30.593  44.209  56.011  1.00  0.00    -0.012 A 
HETATM   17  C   UNL     1      31.798  43.487  56.522  1.00  0.00     0.057 C 
HETATM   18  O   UNL     1      27.142  43.803  53.350  1.00  0.00    -0.267 OA
ENDBRANCH   6   7
ENDBRANCH   3   6
ENDBRANCH   1   2
BRANCH   1  19
HETATM   19  C   UNL     1      24.189  45.561  49.079  1.00  0.00     0.029 C 
BRANCH  19  20
HETATM   20  C   UNL     1      23.226  44.512  49.629  1.00  0.00     0.104 C 
BRANCH  20  21
HETATM   21  C   UNL     1      21.931  44.417  48.846  1.00  0.00     0.217 C 
HETATM   22  N   UNL     1      21.060  45.466  49.013  1.00  0.00    -0.361 N 
HETATM   23  H   UNL     1      21.274  46.155  49.731  1.00  0.00     0.162 HD
HETATM   24  O   UNL     1      21.655  43.455  48.129  1.00  0.00    -0.274 OA
BRANCH  22  25
HETATM   25  C   UNL     1      19.705  45.437  48.505  1.00  0.00     0.124 C 
BRANCH  25  26
HETATM   26  C   UNL     1      19.261  46.734  47.829  1.00  0.00     0.047 C 
BRANCH  26  27
HETATM   27  C   UNL     1      18.686  47.836  48.723  1.00  0.00     0.236 C 
BRANCH  27  28
HETATM   28  N   UNL     1      19.355  49.183  48.567  1.00  0.00    -0.070 N 
HETATM   29  H   UNL     1      18.958  49.575  47.686  1.00  0.00     0.279 HD
HETATM   30  C   UNL     1      19.126  50.128  49.714  1.00  0.00     0.239 C 
HETATM   31  C   UNL     1      19.735  51.505  49.432  1.00  0.00     0.008 C 
HETATM   32  C   UNL     1      18.933  52.282  48.384  1.00  0.00     0.011 C 
HETATM   33  C   UNL     1      21.214  51.384  49.045  1.00  0.00     0.011 C 
HETATM   34  C   UNL     1      21.444  50.376  47.914  1.00  0.00     0.008 C 
HETATM   35  C   UNL     1      22.938  50.226  47.629  1.00  0.00     0.011 C 
HETATM   36  C   UNL     1      20.829  49.018  48.260  1.00  0.00     0.239 C 
ENDBRANCH  27  28
ENDBRANCH  26  27
ENDBRANCH  25  26
ENDBRANCH  22  25
ENDBRANCH  20  21
ENDBRANCH  19  20
ENDBRANCH   1  19
TORSDOF 10
ENDMDL
MODEL 2
REMARK VINA RESULT:      -8.7      2.135      3.271
REMARK  10 active torsions:
REMARK  status: ('A' for Active; 'I' for Inactive)
REMARK    1  A    between atoms: N_7  and  C_8 
REMARK    2  A    between atoms: C_8  and  C_9 
REMARK       I    between atoms: C_9  and  N_10 
REMARK    3  A    between atoms: N_10  and  C_11 
REMARK    4  A    between atoms: C_11  and  C_12 
REMARK    5  A    between atoms: C_12  and  C_13 
REMARK    6  A    between atoms: C_13  and  C_14 
REMARK       I    between atoms: C_14  and  N_15 
REMARK    7  A    between atoms: N_15  and  C_16 
REMARK    8  A    between atoms: C_16  and  C_17 
REMARK    9  A    between atoms: C_17  and  C_18 
REMARK   10  A    between atoms: C_18  and  N_19 
ROOT
HETATM    1  C   UNL     1      24.498  43.192  50.594  1.00  0.00     0.123 C 
ENDROOT
BRANCH   1   2
HETATM    2  N   UNL     1      25.680  42.754  51.307  1.00  0.00    -0.360 N 
HETATM    3  C   UNL     1      26.950  43.006  50.819  1.00  0.00     0.235 C 
HETATM    4  O   UNL     1      27.147  43.582  49.752  1.00  0.00    -0.272 OA
HETATM    5  H   UNL     1      25.564  42.200  52.147  1.00  0.00     0.162 HD
BRANCH   3   6
HETATM    6  C   UNL     1      28.079  42.578  51.758  1.00  0.00     0.235 C 
BRANCH   6   7
HETATM    7  N   UNL     1      28.227  43.537  52.837  1.00  0.00    -0.299 N 
HETATM    8  C   UNL     1      27.355  44.603  52.944  1.00  0.00     0.214 A 
HETATM    9  N   UNL     1      27.373  45.496  53.880  1.00  0.00    -0.235 NA
HETATM   10  C   UNL     1      28.352  45.320  54.802  1.00  0.00     0.115 A 
HETATM   11  C   UNL     1      29.321  44.342  54.802  1.00  0.00     0.075 A 
HETATM   12  S   UNL     1      28.496  46.350  56.146  1.00  0.00    -0.074 SA
HETATM   13  C   UNL     1      30.218  44.441  55.926  1.00  0.00    -0.031 A 
HETATM   14  C   UNL     1      29.296  43.376  53.715  1.00  0.00     0.262 A 
HETATM   15  C   UNL     1      31.370  43.517  56.166  1.00  0.00     0.050 C 
HETATM   16  C   UNL     1      29.843  45.487  56.759  1.00  0.00    -0.012 A 
HETATM   17  C   UNL     1      30.458  45.924  58.049  1.00  0.00     0.057 C 
HETATM   18  O   UNL     1      30.142  42.493  53.580  1.00  0.00    -0.267 OA
ENDBRANCH   6   7
ENDBRANCH   3   6
ENDBRANCH   1   2
BRANCH   1  19
HETATM   19  C   UNL     1      24.117  44.632  50.931  1.00  0.00     0.029 C 
BRANCH  19  20
HETATM   20  C   UNL     1      24.200  45.520  49.692  1.00  0.00     0.104 C 
BRANCH  20  21
HETATM   21  C   UNL     1      24.322  46.995  50.017  1.00  0.00     0.217 C 
HETATM   22  N   UNL     1      23.840  47.855  49.060  1.00  0.00    -0.361 N 
HETATM   23  H   UNL     1      23.560  47.463  48.164  1.00  0.00     0.162 HD
HETATM   24  O   UNL     1      24.844  47.408  51.052  1.00  0.00    -0.274 OA
BRANCH  22  25
HETATM   25  C   UNL     1      24.062  49.284  49.118  1.00  0.00     0.124 C 
BRANCH  25  26
HETATM   26  C   UNL     1      23.266  50.084  48.087  1.00  0.00     0.047 C 
BRANCH  26  27
HETATM   27  C   UNL     1      21.941  49.489  47.601  1.00  0.00     0.236 C 
BRANCH  27  28
HETATM   28  N   UNL     1      20.716  50.023  48.309  1.00  0.00    -0.070 N 
HETATM   29  H   UNL     1      21.062  50.840  48.857  1.00  0.00     0.279 HD
HETATM   30  C   UNL     1      19.599  50.439  47.393  1.00  0.00     0.239 C 
HETATM   31  C   UNL     1      18.445  51.074  48.173  1.00  0.00     0.008 C 
HETATM   32  C   UNL     1      18.800  52.473  48.685  1.00  0.00     0.011 C 
HETATM   33  C   UNL     1      17.974  50.154  49.307  1.00  0.00     0.011 C 
HETATM   34  C   UNL     1      19.128  49.689  50.201  1.00  0.00     0.008 C 
HETATM   35  C   UNL     1      18.622  48.705  51.256  1.00  0.00     0.011 C 
HETATM   36  C   UNL     1      20.242  49.050  49.369  1.00  0.00     0.239 C 
ENDBRANCH  27  28
ENDBRANCH  26  27
ENDBRANCH  25  26
ENDBRANCH  22  25
ENDBRANCH  20  21
ENDBRANCH  19  20
ENDBRANCH   1  19
TORSDOF 10
ENDMDL
MODEL 3
REMARK VINA RESULT:      -8.5      2.383      4.143
REMARK  10 active torsions:
REMARK  status: ('A' for Active; 'I' for Inactive)
REMARK    1  A    between atoms: N_7  and  C_8 
REMARK    2  A    between atoms: C_8  and  C_9 
REMARK       I    between atoms: C_9  and  N_10 
REMARK    3  A    between atoms: N_10  and  C_11 
REMARK    4  A    between atoms: C_11  and  C_12 
REMARK    5  A    between atoms: C_12  and  C_13 
REMARK    6  A    between atoms: C_13  and  C_14 
REMARK       I    between atoms: C_14  and  N_15 
REMARK    7  A    between atoms: N_15  and  C_16 
REMARK    8  A    between atoms: C_16  and  C_17 
REMARK    9  A    between atoms: C_17  and  C_18 
REMARK   10  A    between atoms: C_18  and  N_19 
ROOT
HETATM    1  C   UNL     1      27.081  48.200  49.201  1.00  0.00     0.123 C 
ENDROOT
BRANCH   1   2
HETATM    2  N   UNL     1      26.615  47.715  50.483  1.00  0.00    -0.360 N 
HETATM    3  C   UNL     1      25.703  46.678  50.574  1.00  0.00     0.235 C 
HETATM    4  O   UNL     1      25.219  46.135  49.584  1.00  0.00    -0.272 OA
HETATM    5  H   UNL     1      26.922  48.190  51.324  1.00  0.00     0.162 HD
BRANCH   3   6
HETATM    6  C   UNL     1      25.415  46.219  52.003  1.00  0.00     0.235 C 
BRANCH   6   7
HETATM    7  N   UNL     1      26.494  45.379  52.490  1.00  0.00    -0.299 N 
HETATM    8  C   UNL     1      26.901  44.279  51.760  1.00  0.00     0.214 A 
HETATM    9  N   UNL     1      27.869  43.483  52.080  1.00  0.00    -0.235 NA
HETATM   10  C   UNL     1      28.498  43.804  53.239  1.00  0.00     0.115 A 
HETATM   11  C   UNL     1      28.176  44.834  54.095  1.00  0.00     0.075 A 
HETATM   12  S   UNL     1      29.839  42.920  53.792  1.00  0.00    -0.074 SA
HETATM   13  C   UNL     1      29.042  44.896  55.246  1.00  0.00    -0.031 A 
HETATM   14  C   UNL     1      27.058  45.687  53.725  1.00  0.00     0.262 A 
HETATM   15  C   UNL     1      28.910  45.904  56.343  1.00  0.00     0.050 C 
HETATM   16  C   UNL     1      30.022  43.915  55.174  1.00  0.00    -0.012 A 
HETATM   17  C   UNL     1      31.146  43.641  56.120  1.00  0.00     0.057 C 
HETATM   18  O   UNL     1      26.645  46.600  54.437  1.00  0.00    -0.267 OA
ENDBRANCH   6   7
ENDBRANCH   3   6
ENDBRANCH   1   2
BRANCH   1  19
HETATM   19  C   UNL     1      26.757  49.677  48.986  1.00  0.00     0.029 C 
BRANCH  19  20
HETATM   20  C   UNL     1      25.640  49.845  47.958  1.00  0.00     0.104 C 
BRANCH  20  21
HETATM   21  C   UNL     1      24.262  49.943  48.580  1.00  0.00     0.217 C 
HETATM   22  N   UNL     1      23.338  50.663  47.863  1.00  0.00    -0.361 N 
HETATM   23  H   UNL     1      23.664  51.181  47.049  1.00  0.00     0.162 HD
HETATM   24  O   UNL     1      23.985  49.439  49.668  1.00  0.00    -0.274 OA
BRANCH  22  25
HETATM   25  C   UNL     1      22.046  51.026  48.404  1.00  0.00     0.124 C 
BRANCH  25  26
HETATM   26  C   UNL     1      20.909  50.089  47.995  1.00  0.00     0.047 C 
BRANCH  26  27
HETATM   27  C   UNL     1      19.861  49.745  49.056  1.00  0.00     0.236 C 
BRANCH  27  28
HETATM   28  N   UNL     1      18.641  49.026  48.523  1.00  0.00    -0.070 N 
HETATM   29  H   UNL     1      18.994  48.472  47.713  1.00  0.00     0.279 HD
HETATM   30  C   UNL     1      17.963  48.128  49.519  1.00  0.00     0.239 C 
HETATM   31  C   UNL     1      16.812  47.350  48.876  1.00  0.00     0.008 C 
HETATM   32  C   UNL     1      17.318  46.247  47.941  1.00  0.00     0.011 C 
HETATM   33  C   UNL     1      15.836  48.296  48.166  1.00  0.00     0.011 C 
HETATM   34  C   UNL     1      16.544  49.247  47.195  1.00  0.00     0.008 C 
HETATM   35  C   UNL     1      15.542  50.228  46.584  1.00  0.00     0.011 C 
HETATM   36  C   UNL     1      17.671  50.007  47.898  1.00  0.00     0.239 C 
ENDBRANCH  27  28
ENDBRANCH  26  27
ENDBRANCH  25  26
ENDBRANCH  22  25
ENDBRANCH  20  21
ENDBRANCH  19  20
ENDBRANCH   1  19
TORSDOF 10
ENDMDL
MODEL 4
REMARK VINA RESULT:      -8.3      2.030      3.455
REMARK  10 active torsions:
REMARK  status: ('A' for Active; 'I' for Inactive)
REMARK    1  A    between atoms: N_7  and  C_8 
REMARK    2  A    between atoms: C_8  and  C_9 
REMARK       I    between atoms: C_9  and  N_10 
REMARK    3  A    between atoms: N_10  and  C_11 
REMARK    4  A    between atoms: C_11  and  C_12 
REMARK    5  A    between atoms: C_12  and  C_13 
REMARK    6  A    between atoms: C_13  and  C_14 
REMARK       I    between atoms: C_14  and  N_15 
REMARK    7  A    between atoms: N_15  and  C_16 
REMARK    8  A    between atoms: C_16  and  C_17 
REMARK    9  A    between atoms: C_17  and  C_18 
REMARK   10  A    between atoms: C_18  and  N_19 
ROOT
HETATM    1  C   UNL     1      21.738  44.802  49.153  1.00  0.00     0.123 C 
ENDROOT
BRANCH   1   2
HETATM    2  N   UNL     1      23.136  45.152  49.293  1.00  0.00    -0.360 N 
HETATM    3  C   UNL     1      23.921  44.599  50.289  1.00  0.00     0.235 C 
HETATM    4  O   UNL     1      23.477  43.812  51.120  1.00  0.00    -0.272 OA
HETATM    5  H   UNL     1      23.524  45.863  48.683  1.00  0.00     0.162 HD
BRANCH   3   6
HETATM    6  C   UNL     1      25.397  44.991  50.215  1.00  0.00     0.235 C 
BRANCH   6   7
HETATM    7  N   UNL     1      25.813  45.624  51.453  1.00  0.00    -0.299 N 
HETATM    8  C   UNL     1      25.258  46.829  51.838  1.00  0.00     0.214 A 
HETATM    9  N   UNL     1      25.528  47.464  52.931  1.00  0.00    -0.235 NA
HETATM   10  C   UNL     1      26.441  46.850  53.725  1.00  0.00     0.115 A 
HETATM   11  C   UNL     1      27.115  45.680  53.454  1.00  0.00     0.075 A 
HETATM   12  S   UNL     1      26.876  47.494  55.236  1.00  0.00    -0.074 SA
HETATM   13  C   UNL     1      28.025  45.302  54.507  1.00  0.00    -0.031 A 
HETATM   14  C   UNL     1      26.816  45.010  52.199  1.00  0.00     0.262 A 
HETATM   15  C   UNL     1      28.895  44.085  54.469  1.00  0.00     0.050 C 
HETATM   16  C   UNL     1      27.956  46.205  55.560  1.00  0.00    -0.012 A 
HETATM   17  C   UNL     1      28.686  46.181  56.864  1.00  0.00     0.057 C 
HETATM   18  O   UNL     1      27.395  43.991  51.826  1.00  0.00    -0.267 OA
ENDBRANCH   6   7
ENDBRANCH   3   6
ENDBRANCH   1   2
BRANCH   1  19
HETATM   19  C   UNL     1      21.199  45.112  47.758  1.00  0.00     0.029 C 
BRANCH  19  20
HETATM   20  C   UNL     1      19.674  45.031  47.734  1.00  0.00     0.104 C 
BRANCH  20  21
HETATM   21  C   UNL     1      18.999  46.256  48.319  1.00  0.00     0.217 C 
HETATM   22  N   UNL     1      17.659  46.121  48.590  1.00  0.00    -0.361 N 
HETATM   23  H   UNL     1      17.190  45.277  48.268  1.00  0.00     0.162 HD
HETATM   24  O   UNL     1      19.594  47.315  48.515  1.00  0.00    -0.274 OA
BRANCH  22  25
HETATM   25  C   UNL     1      16.824  47.245  48.955  1.00  0.00     0.124 C 
BRANCH  25  26
HETATM   26  C   UNL     1      16.151  47.937  47.770  1.00  0.00     0.047 C 
BRANCH  26  27
HETATM   27  C   UNL     1      16.980  48.956  46.983  1.00  0.00     0.236 C 
BRANCH  27  28
HETATM   28  N   UNL     1      17.729  49.951  47.842  1.00  0.00    -0.070 N 
HETATM   29  H   UNL     1      18.027  49.406  48.679  1.00  0.00     0.279 HD
HETATM   30  C   UNL     1      18.919  50.579  47.172  1.00  0.00     0.239 C 
HETATM   31  C   UNL     1      19.690  51.483  48.138  1.00  0.00     0.008 C 
HETATM   32  C   UNL     1      20.466  50.675  49.183  1.00  0.00     0.011 C 
HETATM   33  C   UNL     1      18.760  52.514  48.790  1.00  0.00     0.011 C 
HETATM   34  C   UNL     1      17.521  51.869  49.420  1.00  0.00     0.008 C 
HETATM   35  C   UNL     1      16.584  52.943  49.973  1.00  0.00     0.011 C 
HETATM   36  C   UNL     1      16.785  50.993  48.404  1.00  0.00     0.239 C 
ENDBRANCH  27  28
ENDBRANCH  26  27
ENDBRANCH  25  26
ENDBRANCH  22  25
ENDBRANCH  20  21
ENDBRANCH  19  20
ENDBRANCH   1  19
TORSDOF 10
ENDMDL
MODEL 5
REMARK VINA RESULT:      -8.2      2.315      3.839
REMARK  10 active torsions:
REMARK  status: ('A' for Active; 'I' for Inactive)
REMARK    1  A    between atoms: N_7  and  C_8 
REMARK    2  A    between atoms: C_8  and  C_9 
REMARK       I    between atoms: C_9  and  N_10 
REMARK    3  A    between atoms: N_10  and  C_11 
REMARK    4  A    between atoms: C_11  and  C_12 
REMARK    5  A    between atoms: C_12  and  C_13 
REMARK    6  A    between atoms: C_13  and  C_14 
REMARK       I    between atoms: C_14  and  N_15 
REMARK    7  A    between atoms: N_15  and  C_16 
REMARK    8  A    between atoms: C_16  and  C_17 
REMARK    9  A    between atoms: C_17  and  C_18 
REMARK   10  A    between atoms: C_18  and  N_19 
ROOT
HETATM    1  C   UNL     1      23.777  46.701  49.197  1.00  0.00     0.123 C 
ENDROOT
BRANCH   1   2
HETATM    2  N   UNL     1      23.843  45.782  50.314  1.00  0.00    -0.360 N 
HETATM    3  C   UNL     1      24.989  45.055  50.582  1.00  0.00     0.235 C 
HETATM    4  O   UNL     1      25.994  45.122  49.879  1.00  0.00    -0.272 OA
HETATM    5  H   UNL     1      23.009  45.630  50.869  1.00  0.00     0.162 HD
BRANCH   3   6
HETATM    6  C   UNL     1      24.921  44.226  51.865  1.00  0.00     0.235 C 
BRANCH   6   7
HETATM    7  N   UNL     1      25.927  44.678  52.809  1.00  0.00    -0.299 N 
HETATM    8  C   UNL     1      25.746  45.857  53.507  1.00  0.00     0.214 A 
HETATM    9  N   UNL     1      26.557  46.336  54.393  1.00  0.00    -0.235 NA
HETATM   10  C   UNL     1      27.660  45.577  54.611  1.00  0.00     0.115 A 
HETATM   11  C   UNL     1      28.002  44.412  53.961  1.00  0.00     0.075 A 
HETATM   12  S   UNL     1      28.809  46.004  55.788  1.00  0.00    -0.074 SA
HETATM   13  C   UNL     1      29.247  43.855  54.428  1.00  0.00    -0.031 A 
HETATM   14  C   UNL     1      27.087  43.919  52.943  1.00  0.00     0.262 A 
HETATM   15  C   UNL     1      29.864  42.604  53.887  1.00  0.00     0.050 C 
HETATM   16  C   UNL     1      29.769  44.624  55.460  1.00  0.00    -0.012 A 
HETATM   17  C   UNL     1      31.011  44.399  56.261  1.00  0.00     0.057 C 
HETATM   18  O   UNL     1      27.314  42.922  52.261  1.00  0.00    -0.267 OA
ENDBRANCH   6   7
ENDBRANCH   3   6
ENDBRANCH   1   2
BRANCH   1  19
HETATM   19  C   UNL     1      24.196  48.118  49.585  1.00  0.00     0.029 C 
BRANCH  19  20
HETATM   20  C   UNL     1      23.513  49.150  48.690  1.00  0.00     0.104 C 
BRANCH  20  21
HETATM   21  C   UNL     1      22.713  50.179  49.463  1.00  0.00     0.217 C 
HETATM   22  N   UNL     1      21.396  49.859  49.687  1.00  0.00    -0.361 N 
HETATM   23  H   UNL     1      21.018  49.037  49.220  1.00  0.00     0.162 HD
HETATM   24  O   UNL     1      23.192  51.247  49.844  1.00  0.00    -0.274 OA
BRANCH  22  25
HETATM   25  C   UNL     1      20.446  50.810  50.224  1.00  0.00     0.124 C 
BRANCH  25  26
HETATM   26  C   UNL     1      19.754  51.670  49.167  1.00  0.00     0.047 C 
BRANCH  26  27
HETATM   27  C   UNL     1      19.526  51.044  47.788  1.00  0.00     0.236 C 
BRANCH  27  28
HETATM   28  N   UNL     1      18.077  50.993  47.355  1.00  0.00    -0.070 N 
HETATM   29  H   UNL     1      17.996  50.109  46.808  1.00  0.00     0.279 HD
HETATM   30  C   UNL     1      17.088  51.005  48.487  1.00  0.00     0.239 C 
HETATM   31  C   UNL     1      15.655  50.834  47.977  1.00  0.00     0.008 C 
HETATM   32  C   UNL     1      15.382  49.403  47.502  1.00  0.00     0.011 C 
HETATM   33  C   UNL     1      15.330  51.867  46.891  1.00  0.00     0.011 C 
HETATM   34  C   UNL     1      16.374  51.888  45.770  1.00  0.00     0.008 C 
HETATM   35  C   UNL     1      16.055  52.993  44.763  1.00  0.00     0.011 C 
HETATM   36  C   UNL     1      17.782  52.077  46.339  1.00  0.00     0.239 C 
ENDBRANCH  27  28
ENDBRANCH  26  27
ENDBRANCH  25  26
ENDBRANCH  22  25
ENDBRANCH  20  21
ENDBRANCH  19  20
ENDBRANCH   1  19
TORSDOF 10
ENDMDL
MODEL 6
REMARK VINA RESULT:      -8.1      2.152      3.460
REMARK  10 active torsions:
REMARK  status: ('A' for Active; 'I' for Inactive)
REMARK    1  A    between atoms: N_7  and  C_8 
REMARK    2  A    between atoms: C_8  and  C_9 
REMARK       I    between atoms: C_9  and  N_10 
REMARK    3  A    between atoms: N_10  and  C_11 
REMARK    4  A    between atoms: C_11  and  C_12 
REMARK    5  A    between atoms: C_12  and  C_13 
REMARK    6  A    between atoms: C_13  and  C_14 
REMARK       I    between atoms: C_14  and  N_15 
REMARK    7  A    between atoms: N_15  and  C_16 
REMARK    8  A    between atoms: C_16  and  C_17 
REMARK    9  A    between atoms: C_17  and  C_18 
REMARK   10  A    between atoms: C_18  and  N_19 
ROOT
HETATM    1  C   UNL     1      24.515  44.426  48.858  1.00  0.00     0.123 C 
ENDROOT
BRANCH   1   2
HETATM    2  N   UNL     1      25.757  44.182  49.562  1.00  0.00    -0.360 N 
HETATM    3  C   UNL     1      25.819  43.306  50.631  1.00  0.00     0.235 C 
HETATM    4  O   UNL     1      24.831  42.715  51.060  1.00  0.00    -0.272 OA
HETATM    5  H   UNL     1      26.578  44.712  49.297  1.00  0.00     0.162 HD
BRANCH   3   6
HETATM    6  C   UNL     1      27.229  43.081  51.177  1.00  0.00     0.235 C 
BRANCH   6   7
HETATM    7  N   UNL     1      27.480  43.962  52.303  1.00  0.00    -0.299 N 
HETATM    8  C   UNL     1      26.671  45.062  52.519  1.00  0.00     0.214 A 
HETATM    9  N   UNL     1      26.781  45.892  53.504  1.00  0.00    -0.235 NA
HETATM   10  C   UNL     1      27.793  45.610  54.363  1.00  0.00     0.115 A 
HETATM   11  C   UNL     1      28.708  44.587  54.254  1.00  0.00     0.075 A 
HETATM   12  S   UNL     1      28.056  46.545  55.758  1.00  0.00    -0.074 SA
HETATM   13  C   UNL     1      29.662  44.571  55.334  1.00  0.00    -0.031 A 
HETATM   14  C   UNL     1      28.580  43.693  53.113  1.00  0.00     0.262 A 
HETATM   15  C   UNL     1      30.775  43.578  55.459  1.00  0.00     0.050 C 
HETATM   16  C   UNL     1      29.384  45.580  56.246  1.00  0.00    -0.012 A 
HETATM   17  C   UNL     1      30.082  45.904  57.528  1.00  0.00     0.057 C 
HETATM   18  O   UNL     1      29.371  42.780  52.882  1.00  0.00    -0.267 OA
ENDBRANCH   6   7
ENDBRANCH   3   6
ENDBRANCH   1   2
BRANCH   1  19
HETATM   19  C   UNL     1      23.646  45.469  49.558  1.00  0.00     0.029 C 
BRANCH  19  20
HETATM   20  C   UNL     1      24.460  46.715  49.899  1.00  0.00     0.104 C 
BRANCH  20  21
HETATM   21  C   UNL     1      23.725  48.009  49.615  1.00  0.00     0.217 C 
HETATM   22  N   UNL     1      22.383  47.882  49.350  1.00  0.00    -0.361 N 
HETATM   23  H   UNL     1      22.006  46.943  49.233  1.00  0.00     0.162 HD
HETATM   24  O   UNL     1      24.287  49.104  49.593  1.00  0.00    -0.274 OA
BRANCH  22  25
HETATM   25  C   UNL     1      21.581  48.983  48.861  1.00  0.00     0.124 C 
BRANCH  25  26
HETATM   26  C   UNL     1      20.073  48.764  48.986  1.00  0.00     0.047 C 
BRANCH  26  27
HETATM   27  C   UNL     1      19.284  49.759  49.843  1.00  0.00     0.236 C 
BRANCH  27  28
HETATM   28  N   UNL     1      18.373  50.677  49.058  1.00  0.00    -0.070 N 
HETATM   29  H   UNL     1      19.008  51.396  48.650  1.00  0.00     0.279 HD
HETATM   30  C   UNL     1      17.586  49.994  47.974  1.00  0.00     0.239 C 
HETATM   31  C   UNL     1      16.779  51.003  47.152  1.00  0.00     0.008 C 
HETATM   32  C   UNL     1      17.673  51.843  46.236  1.00  0.00     0.011 C 
HETATM   33  C   UNL     1      15.906  51.880  48.060  1.00  0.00     0.011 C 
HETATM   34  C   UNL     1      16.707  52.525  49.196  1.00  0.00     0.008 C 
HETATM   35  C   UNL     1      15.779  53.313  50.121  1.00  0.00     0.011 C 
HETATM   36  C   UNL     1      17.478  51.468  49.989  1.00  0.00     0.239 C 
ENDBRANCH  27  28
ENDBRANCH  26  27
ENDBRANCH  25  26
ENDBRANCH  22  25
ENDBRANCH  20  21
ENDBRANCH  19  20
ENDBRANCH   1  19
TORSDOF 10
ENDMDL
MODEL 7
REMARK VINA RESULT:      -8.1      2.002      3.122
REMARK  10 active torsions:
REMARK  status: ('A' for Active; 'I' for Inactive)
REMARK    1  A    between atoms: N_7  and  C_8 
REMARK    2  A    between atoms: C_8  and  C_9 
REMARK       I    between atoms: C_9  and  N_10 
REMARK    3  A    between atoms: N_10  and  C_11 
REMARK    4  A    between atoms: C_11  and  C_12 
REMARK    5  A    between atoms: C_12  and  C_13 
REMARK    6  A    between atoms: C_13  and  C_14 
REMARK       I    between atoms: C_14  and  N_15 
REMARK    7  A    between atoms: N_15  and  C_16 
REMARK    8  A    between atoms: C_16  and  C_17 
REMARK    9  A    between atoms: C_17  and  C_18 
REMARK   10  A    between atoms: C_18  and  N_19 
ROOT
HETATM    1  C   UNL     1      23.411  44.499  48.268  1.00  0.00     0.123 C 
ENDROOT
BRANCH   1   2
HETATM    2  N   UNL     1      23.629  44.668  49.690  1.00  0.00    -0.360 N 
HETATM    3  C   UNL     1      24.797  45.225  50.179  1.00  0.00     0.235 C 
HETATM    4  O   UNL     1      25.719  45.576  49.447  1.00  0.00    -0.272 OA
HETATM    5  H   UNL     1      22.932  44.313  50.334  1.00  0.00     0.162 HD
BRANCH   3   6
HETATM    6  C   UNL     1      24.806  45.436  51.693  1.00  0.00     0.235 C 
BRANCH   6   7
HETATM    7  N   UNL     1      25.903  44.701  52.297  1.00  0.00    -0.299 N 
HETATM    8  C   UNL     1      26.184  43.411  51.889  1.00  0.00     0.214 A 
HETATM    9  N   UNL     1      27.153  42.679  52.332  1.00  0.00    -0.235 NA
HETATM   10  C   UNL     1      27.922  43.279  53.276  1.00  0.00     0.115 A 
HETATM   11  C   UNL     1      27.738  44.532  53.816  1.00  0.00     0.075 A 
HETATM   12  S   UNL     1      29.285  42.503  53.930  1.00  0.00    -0.074 SA
HETATM   13  C   UNL     1      28.731  44.866  54.805  1.00  0.00    -0.031 A 
HETATM   14  C   UNL     1      26.616  45.315  53.324  1.00  0.00     0.262 A 
HETATM   15  C   UNL     1      28.763  46.156  55.563  1.00  0.00     0.050 C 
HETATM   16  C   UNL     1      29.661  43.842  54.930  1.00  0.00    -0.012 A 
HETATM   17  C   UNL     1      30.876  43.779  55.799  1.00  0.00     0.057 C 
HETATM   18  O   UNL     1      26.321  46.422  53.771  1.00  0.00    -0.267 OA
ENDBRANCH   6   7
ENDBRANCH   3   6
ENDBRANCH   1   2
BRANCH   1  19
HETATM   19  C   UNL     1      22.269  45.370  47.747  1.00  0.00     0.029 C 
BRANCH  19  20
HETATM   20  C   UNL     1      20.975  45.077  48.504  1.00  0.00     0.104 C 
BRANCH  20  21
HETATM   21  C   UNL     1      20.095  46.298  48.683  1.00  0.00     0.217 C 
HETATM   22  N   UNL     1      18.745  46.051  48.745  1.00  0.00    -0.361 N 
HETATM   23  H   UNL     1      18.422  45.107  48.539  1.00  0.00     0.162 HD
HETATM   24  O   UNL     1      20.546  47.441  48.742  1.00  0.00    -0.274 OA
BRANCH  22  25
HETATM   25  C   UNL     1      17.760  47.111  48.708  1.00  0.00     0.124 C 
BRANCH  25  26
HETATM   26  C   UNL     1      17.349  47.536  47.298  1.00  0.00     0.047 C 
BRANCH  26  27
HETATM   27  C   UNL     1      18.013  48.787  46.717  1.00  0.00     0.236 C 
BRANCH  27  28
HETATM   28  N   UNL     1      18.440  49.807  47.749  1.00  0.00    -0.070 N 
HETATM   29  H   UNL     1      18.695  49.244  48.588  1.00  0.00     0.279 HD
HETATM   30  C   UNL     1      19.594  50.674  47.327  1.00  0.00     0.239 C 
HETATM   31  C   UNL     1      20.042  51.598  48.463  1.00  0.00     0.008 C 
HETATM   32  C   UNL     1      20.774  50.833  49.569  1.00  0.00     0.011 C 
HETATM   33  C   UNL     1      18.860  52.406  49.014  1.00  0.00     0.011 C 
HETATM   34  C   UNL     1      17.667  51.519  49.387  1.00  0.00     0.008 C 
HETATM   35  C   UNL     1      16.487  52.377  49.843  1.00  0.00     0.011 C 
HETATM   36  C   UNL     1      17.257  50.632  48.210  1.00  0.00     0.239 C 
ENDBRANCH  27  28
ENDBRANCH  26  27
ENDBRANCH  25  26
ENDBRANCH  22  25
ENDBRANCH  20  21
ENDBRANCH  19  20
ENDBRANCH   1  19
TORSDOF 10
ENDMDL
MODEL 8
REMARK VINA RESULT:      -8.0      3.237     10.902
REMARK  10 active torsions:
REMARK  status: ('A' for Active; 'I' for Inactive)
REMARK    1  A    between atoms: N_7  and  C_8 
REMARK    2  A    between atoms: C_8  and  C_9 
REMARK       I    between atoms: C_9  and  N_10 
REMARK    3  A    between atoms: N_10  and  C_11 
REMARK    4  A    between atoms: C_11  and  C_12 
REMARK    5  A    between atoms: C_12  and  C_13 
REMARK    6  A    between atoms: C_13  and  C_14 
REMARK       I    between atoms: C_14  and  N_15 
REMARK    7  A    between atoms: N_15  and  C_16 
REMARK    8  A    between atoms: C_16  and  C_17 
REMARK    9  A    between atoms: C_17  and  C_18 
REMARK   10  A    between atoms: C_18  and  N_19 
ROOT
HETATM    1  C   UNL     1      24.386  44.254  50.456  1.00  0.00     0.123 C 
ENDROOT
BRANCH   1   2
HETATM    2  N   UNL     1      24.007  45.648  50.559  1.00  0.00    -0.360 N 
HETATM    3  C   UNL     1      24.616  46.619  49.784  1.00  0.00     0.235 C 
HETATM    4  O   UNL     1      25.523  46.364  48.996  1.00  0.00    -0.272 OA
HETATM    5  H   UNL     1      23.324  45.916  51.258  1.00  0.00     0.162 HD
BRANCH   3   6
HETATM    6  C   UNL     1      24.011  48.015  49.938  1.00  0.00     0.235 C 
BRANCH   6   7
HETATM    7  N   UNL     1      22.882  48.176  49.039  1.00  0.00    -0.299 N 
HETATM    8  C   UNL     1      22.547  47.167  48.157  1.00  0.00     0.214 A 
HETATM    9  N   UNL     1      21.546  47.188  47.338  1.00  0.00    -0.235 NA
HETATM   10  C   UNL     1      20.802  48.322  47.392  1.00  0.00     0.115 A 
HETATM   11  C   UNL     1      21.040  49.428  48.178  1.00  0.00     0.075 A 
HETATM   12  S   UNL     1      19.406  48.510  46.443  1.00  0.00    -0.074 SA
HETATM   13  C   UNL     1      20.060  50.468  47.990  1.00  0.00    -0.031 A 
HETATM   14  C   UNL     1      22.195  49.387  49.060  1.00  0.00     0.262 A 
HETATM   15  C   UNL     1      20.083  51.783  48.703  1.00  0.00     0.050 C 
HETATM   16  C   UNL     1      19.087  50.065  47.085  1.00  0.00    -0.012 A 
HETATM   17  C   UNL     1      17.869  50.802  46.628  1.00  0.00     0.057 C 
HETATM   18  O   UNL     1      22.537  50.335  49.765  1.00  0.00    -0.267 OA
ENDBRANCH   6   7
ENDBRANCH   3   6
ENDBRANCH   1   2
BRANCH   1  19
HETATM   19  C   UNL     1      25.149  43.767  51.687  1.00  0.00     0.029 C 
BRANCH  19  20
HETATM   20  C   UNL     1      24.822  44.629  52.905  1.00  0.00     0.104 C 
BRANCH  20  21
HETATM   21  C   UNL     1      25.800  45.767  53.114  1.00  0.00     0.217 C 
HETATM   22  N   UNL     1      25.769  46.354  54.357  1.00  0.00    -0.361 N 
HETATM   23  H   UNL     1      25.023  46.082  54.994  1.00  0.00     0.162 HD
HETATM   24  O   UNL     1      26.555  46.168  52.230  1.00  0.00    -0.274 OA
BRANCH  22  25
HETATM   25  C   UNL     1      26.484  47.575  54.656  1.00  0.00     0.124 C 
BRANCH  25  26
HETATM   26  C   UNL     1      27.968  47.374  54.961  1.00  0.00     0.047 C 
BRANCH  26  27
HETATM   27  C   UNL     1      28.329  46.499  56.165  1.00  0.00     0.236 C 
BRANCH  27  28
HETATM   28  N   UNL     1      28.906  45.148  55.807  1.00  0.00    -0.070 N 
HETATM   29  H   UNL     1      28.255  44.459  56.242  1.00  0.00     0.279 HD
HETATM   30  C   UNL     1      29.031  44.895  54.330  1.00  0.00     0.239 C 
HETATM   31  C   UNL     1      29.511  43.469  54.047  1.00  0.00     0.008 C 
HETATM   32  C   UNL     1      28.420  42.431  54.325  1.00  0.00     0.011 C 
HETATM   33  C   UNL     1      30.802  43.160  54.816  1.00  0.00     0.011 C 
HETATM   34  C   UNL     1      30.684  43.474  56.311  1.00  0.00     0.008 C 
HETATM   35  C   UNL     1      32.020  43.236  57.013  1.00  0.00     0.011 C 
HETATM   36  C   UNL     1      30.216  44.915  56.530  1.00  0.00     0.239 C 
ENDBRANCH  27  28
ENDBRANCH  26  27
ENDBRANCH  25  26
ENDBRANCH  22  25
ENDBRANCH  20  21
ENDBRANCH  19  20
ENDBRANCH   1  19
TORSDOF 10
ENDMDL
MODEL 9
REMARK VINA RESULT:      -7.9      1.473      1.957
REMARK  10 active torsions:
REMARK  status: ('A' for Active; 'I' for Inactive)
REMARK    1  A    between atoms: N_7  and  C_8 
REMARK    2  A    between atoms: C_8  and  C_9 
REMARK       I    between atoms: C_9  and  N_10 
REMARK    3  A    between atoms: N_10  and  C_11 
REMARK    4  A    between atoms: C_11  and  C_12 
REMARK    5  A    between atoms: C_12  and  C_13 
REMARK    6  A    between atoms: C_13  and  C_14 
REMARK       I    between atoms: C_14  and  N_15 
REMARK    7  A    between atoms: N_15  and  C_16 
REMARK    8  A    between atoms: C_16  and  C_17 
REMARK    9  A    between atoms: C_17  and  C_18 
REMARK   10  A    between atoms: C_18  and  N_19 
ROOT
HETATM    1  C   UNL     1      23.912  44.447  50.119  1.00  0.00     0.123 C 
ENDROOT
BRANCH   1   2
HETATM    2  N   UNL     1      24.831  45.318  50.821  1.00  0.00    -0.360 N 
HETATM    3  C   UNL     1      25.001  45.232  52.191  1.00  0.00     0.235 C 
HETATM    4  O   UNL     1      24.369  44.442  52.888  1.00  0.00    -0.272 OA
HETATM    5  H   UNL     1      25.310  46.043  50.299  1.00  0.00     0.162 HD
BRANCH   3   6
HETATM    6  C   UNL     1      26.095  46.145  52.746  1.00  0.00     0.235 C 
BRANCH   6   7
HETATM    7  N   UNL     1      27.190  45.354  53.278  1.00  0.00    -0.299 N 
HETATM    8  C   UNL     1      27.665  44.263  52.574  1.00  0.00     0.214 A 
HETATM    9  N   UNL     1      28.652  43.510  52.935  1.00  0.00    -0.235 NA
HETATM   10  C   UNL     1      29.229  43.867  54.110  1.00  0.00     0.115 A 
HETATM   11  C   UNL     1      28.838  44.891  54.943  1.00  0.00     0.075 A 
HETATM   12  S   UNL     1      30.585  43.043  54.717  1.00  0.00    -0.074 SA
HETATM   13  C   UNL     1      29.661  45.000  56.121  1.00  0.00    -0.031 A 
HETATM   14  C   UNL     1      27.700  45.696  54.528  1.00  0.00     0.262 A 
HETATM   15  C   UNL     1      29.453  46.013  57.202  1.00  0.00     0.050 C 
HETATM   16  C   UNL     1      30.681  44.058  56.092  1.00  0.00    -0.012 A 
HETATM   17  C   UNL     1      31.783  43.839  57.078  1.00  0.00     0.057 C 
HETATM   18  O   UNL     1      27.227  46.599  55.215  1.00  0.00    -0.267 OA
ENDBRANCH   6   7
ENDBRANCH   3   6
ENDBRANCH   1   2
BRANCH   1  19
HETATM   19  C   UNL     1      24.391  44.113  48.707  1.00  0.00     0.029 C 
BRANCH  19  20
HETATM   20  C   UNL     1      23.453  44.709  47.660  1.00  0.00     0.104 C 
BRANCH  20  21
HETATM   21  C   UNL     1      21.987  44.482  47.969  1.00  0.00     0.217 C 
HETATM   22  N   UNL     1      21.209  45.614  48.016  1.00  0.00    -0.361 N 
HETATM   23  H   UNL     1      21.677  46.517  47.972  1.00  0.00     0.162 HD
HETATM   24  O   UNL     1      21.518  43.367  48.195  1.00  0.00    -0.274 OA
BRANCH  22  25
HETATM   25  C   UNL     1      19.844  45.598  48.496  1.00  0.00     0.124 C 
BRANCH  25  26
HETATM   26  C   UNL     1      18.964  46.708  47.920  1.00  0.00     0.047 C 
BRANCH  26  27
HETATM   27  C   UNL     1      18.504  47.811  48.877  1.00  0.00     0.236 C 
BRANCH  27  28
HETATM   28  N   UNL     1      18.962  49.202  48.498  1.00  0.00    -0.070 N 
HETATM   29  H   UNL     1      18.869  49.237  47.460  1.00  0.00     0.279 HD
HETATM   30  C   UNL     1      18.174  50.312  49.135  1.00  0.00     0.239 C 
HETATM   31  C   UNL     1      18.620  51.682  48.614  1.00  0.00     0.008 C 
HETATM   32  C   UNL     1      18.159  51.925  47.174  1.00  0.00     0.011 C 
HETATM   33  C   UNL     1      20.135  51.863  48.767  1.00  0.00     0.011 C 
HETATM   34  C   UNL     1      20.928  50.698  48.166  1.00  0.00     0.008 C 
HETATM   35  C   UNL     1      22.424  50.881  48.424  1.00  0.00     0.011 C 
HETATM   36  C   UNL     1      20.450  49.360  48.735  1.00  0.00     0.239 C 
ENDBRANCH  27  28
ENDBRANCH  26  27
ENDBRANCH  25  26
ENDBRANCH  22  25
ENDBRANCH  20  21
ENDBRANCH  19  20
ENDBRANCH   1  19
TORSDOF 10
ENDMDL
MODEL 10
REMARK VINA RESULT:      -7.8      1.887      2.499
REMARK  10 active torsions:
REMARK  status: ('A' for Active; 'I' for Inactive)
REMARK    1  A    between atoms: N_7  and  C_8 
REMARK    2  A    between atoms: C_8  and  C_9 
REMARK       I    between atoms: C_9  and  N_10 
REMARK    3  A    between atoms: N_10  and  C_11 
REMARK    4  A    between atoms: C_11  and  C_12 
REMARK    5  A    between atoms: C_12  and  C_13 
REMARK    6  A    between atoms: C_13  and  C_14 
REMARK       I    between atoms: C_14  and  N_15 
REMARK    7  A    between atoms: N_15  and  C_16 
REMARK    8  A    between atoms: C_16  and  C_17 
REMARK    9  A    between atoms: C_17  and  C_18 
REMARK   10  A    between atoms: C_18  and  N_19 
ROOT
HETATM    1  C   UNL     1      24.116  41.836  49.304  1.00  0.00     0.123 C 
ENDROOT
BRANCH   1   2
HETATM    2  N   UNL     1      24.821  43.099  49.382  1.00  0.00    -0.360 N 
HETATM    3  C   UNL     1      24.321  44.159  50.116  1.00  0.00     0.235 C 
HETATM    4  O   UNL     1      23.248  44.104  50.711  1.00  0.00    -0.272 OA
HETATM    5  H   UNL     1      25.667  43.218  48.837  1.00  0.00     0.162 HD
BRANCH   3   6
HETATM    6  C   UNL     1      25.252  45.370  50.184  1.00  0.00     0.235 C 
BRANCH   6   7
HETATM    7  N   UNL     1      25.976  45.378  51.442  1.00  0.00    -0.299 N 
HETATM    8  C   UNL     1      25.558  46.189  52.480  1.00  0.00     0.214 A 
HETATM    9  N   UNL     1      26.104  46.252  53.650  1.00  0.00    -0.235 NA
HETATM   10  C   UNL     1      27.174  45.434  53.813  1.00  0.00     0.115 A 
HETATM   11  C   UNL     1      27.736  44.611  52.862  1.00  0.00     0.075 A 
HETATM   12  S   UNL     1      27.985  45.323  55.302  1.00  0.00    -0.074 SA
HETATM   13  C   UNL     1      28.873  43.876  53.359  1.00  0.00    -0.031 A 
HETATM   14  C   UNL     1      27.121  44.592  51.545  1.00  0.00     0.262 A 
HETATM   15  C   UNL     1      29.682  42.923  52.538  1.00  0.00     0.050 C 
HETATM   16  C   UNL     1      29.086  44.157  54.703  1.00  0.00    -0.012 A 
HETATM   17  C   UNL     1      30.118  43.593  55.625  1.00  0.00     0.057 C 
HETATM   18  O   UNL     1      27.568  43.940  50.603  1.00  0.00    -0.267 OA
ENDBRANCH   6   7
ENDBRANCH   3   6
ENDBRANCH   1   2
BRANCH   1  19
HETATM   19  C   UNL     1      24.119  41.256  47.890  1.00  0.00     0.029 C 
BRANCH  19  20
HETATM   20  C   UNL     1      23.702  42.312  46.869  1.00  0.00     0.104 C 
BRANCH  20  21
HETATM   21  C   UNL     1      22.316  42.872  47.116  1.00  0.00     0.217 C 
HETATM   22  N   UNL     1      22.260  44.220  47.379  1.00  0.00    -0.361 N 
HETATM   23  H   UNL     1      23.139  44.716  47.518  1.00  0.00     0.162 HD
HETATM   24  O   UNL     1      21.304  42.173  47.113  1.00  0.00    -0.274 OA
BRANCH  22  25
HETATM   25  C   UNL     1      21.052  44.872  47.836  1.00  0.00     0.124 C 
BRANCH  25  26
HETATM   26  C   UNL     1      20.953  46.348  47.451  1.00  0.00     0.047 C 
BRANCH  26  27
HETATM   27  C   UNL     1      20.247  47.288  48.434  1.00  0.00     0.236 C 
BRANCH  27  28
HETATM   28  N   UNL     1      20.767  48.708  48.425  1.00  0.00    -0.070 N 
HETATM   29  H   UNL     1      20.389  49.123  47.546  1.00  0.00     0.279 HD
HETATM   30  C   UNL     1      20.353  49.529  49.614  1.00  0.00     0.239 C 
HETATM   31  C   UNL     1      20.818  50.982  49.478  1.00  0.00     0.008 C 
HETATM   32  C   UNL     1      20.006  51.747  48.428  1.00  0.00     0.011 C 
HETATM   33  C   UNL     1      22.324  51.055  49.198  1.00  0.00     0.011 C 
HETATM   34  C   UNL     1      22.745  50.170  48.020  1.00  0.00     0.008 C 
HETATM   35  C   UNL     1      24.263  50.206  47.841  1.00  0.00     0.011 C 
HETATM   36  C   UNL     1      22.267  48.730  48.221  1.00  0.00     0.239 C 
ENDBRANCH  27  28
ENDBRANCH  26  27
ENDBRANCH  25  26
ENDBRANCH  22  25
ENDBRANCH  20  21
ENDBRANCH  19  20
ENDBRANCH   1  19
TORSDOF 10
ENDMDL
