MODEL 1
REMARK VINA RESULT:      -7.6      0.000      0.000
REMARK  9 active torsions:
REMARK  status: ('A' for Active; 'I' for Inactive)
REMARK    1  A    between atoms: C_6  and  C_7 
REMARK    2  A    between atoms: C_7  and  C_8 
REMARK       I    between atoms: C_8  and  N_9 
REMARK    3  A    between atoms: N_9  and  C_10 
REMARK    4  A    between atoms: C_10  and  C_11 
REMARK    5  A    between atoms: C_11  and  N_12 
REMARK    6  A    between atoms: C_20  and  C_21 
REMARK    7  A    between atoms: C_24  and  C_25 
REMARK    8  A    between atoms: C_32  and  C_33 
REMARK    9  A    between atoms: C_33  and  O_34 
ROOT
HETATM    1  C   UNL     1      16.754  48.182  46.071  1.00  0.00     0.071 C 
HETATM    2  C   UNL     1      17.301  49.222  47.014  1.00  0.00     0.048 C 
HETATM    3  N   UNL     1      17.391  48.781  48.332  1.00  0.00    -0.229 NA
HETATM    4  C   UNL     1      18.136  49.470  49.128  1.00  0.00     0.170 C 
HETATM    5  N   UNL     1      18.867  50.754  48.670  1.00  0.00    -0.319 N 
HETATM    6  C   UNL     1      20.029  50.821  49.223  1.00  0.00     0.011 C 
HETATM    7  C   UNL     1      18.048  51.502  47.688  1.00  0.00     0.166 C 
HETATM    8  S   UNL     1      18.682  48.955  50.679  1.00  0.00    -0.086 SA
HETATM    9  C   UNL     1      20.172  49.996  50.494  1.00  0.00     0.135 C 
HETATM   10  C   UNL     1      17.657  50.480  46.648  1.00  0.00     0.069 C 
ENDROOT
BRANCH   6  11
HETATM   11  C   UNL     1      21.163  51.575  48.585  1.00  0.00     0.156 C 
BRANCH  11  12
HETATM   12  C   UNL     1      22.455  50.797  48.799  1.00  0.00     0.223 C 
HETATM   13  N   UNL     1      22.657  49.699  48.006  1.00  0.00    -0.359 N 
HETATM   14  H   UNL     1      22.095  49.578  47.167  1.00  0.00     0.162 HD
HETATM   15  O   UNL     1      23.187  51.049  49.753  1.00  0.00    -0.273 OA
BRANCH  13  16
HETATM   16  C   UNL     1      23.520  48.560  48.365  1.00  0.00     0.150 C 
BRANCH  16  17
HETATM   17  C   UNL     1      22.843  47.235  48.805  1.00  0.00     0.254 C 
BRANCH  17  18
HETATM   18  N   UNL     1      23.547  46.559  49.963  1.00  0.00    -0.070 N 
HETATM   19  H   UNL     1      22.883  46.608  50.761  1.00  0.00     0.279 HD
HETATM   20  C   UNL     1      23.866  45.098  49.748  1.00  0.00     0.235 C 
HETATM   21  C   UNL     1      24.339  44.493  51.064  1.00  0.00     0.028 C 
HETATM   22  C   UNL     1      25.536  45.245  51.635  1.00  0.00     0.003 C 
HETATM   23  C   UNL     1      25.261  46.742  51.734  1.00  0.00     0.028 C 
HETATM   24  C   UNL     1      24.775  47.321  50.412  1.00  0.00     0.235 C 
ENDBRANCH  17  18
ENDBRANCH  16  17
ENDBRANCH  13  16
ENDBRANCH  11  12
ENDBRANCH   6  11
BRANCH   7  25
HETATM   25  C   UNL     1      16.854  52.097  48.470  1.00  0.00    -0.030 C 
HETATM   26  C   UNL     1      15.585  52.197  47.864  1.00  0.00     0.010 C 
HETATM   27  C   UNL     1      14.625  53.082  48.364  1.00  0.00     0.008 C 
HETATM   28  C   UNL     1      14.886  53.849  49.506  1.00  0.00    -0.055 C 
HETATM   29  C   UNL     1      16.063  53.599  50.216  1.00  0.00     0.008 C 
HETATM   30  C   UNL     1      17.027  52.723  49.715  1.00  0.00     0.010 C 
BRANCH  28  31
HETATM   31  C   UNL     1      13.947  54.978  49.902  1.00  0.00     0.010 C 
HETATM   32  C   UNL     1      13.960  56.140  48.913  1.00  0.00     0.015 C 
HETATM   33  C   UNL     1      12.521  54.436  50.083  1.00  0.00     0.015 C 
ENDBRANCH  28  31
ENDBRANCH   7  25
BRANCH  10  34
HETATM   34  C   UNL     1      17.735  50.998  45.269  1.00  0.00     0.293 C 
HETATM   35  O   UNL     1      18.689  50.769  44.547  1.00  0.00    -0.259 OA
BRANCH  34  36
HETATM   36  O   UNL     1      16.543  51.516  44.896  1.00  0.00    -0.323 OA
HETATM   37  C   UNL     1      16.621  52.839  44.352  1.00  0.00     0.213 C 
ENDBRANCH  34  36
ENDBRANCH  10  34
TORSDOF 9
ENDMDL
MODEL 2
REMARK VINA RESULT:      -7.3      1.511      2.762
REMARK  9 active torsions:
REMARK  status: ('A' for Active; 'I' for Inactive)
REMARK    1  A    between atoms: C_6  and  C_7 
REMARK    2  A    between atoms: C_7  and  C_8 
REMARK       I    between atoms: C_8  and  N_9 
REMARK    3  A    between atoms: N_9  and  C_10 
REMARK    4  A    between atoms: C_10  and  C_11 
REMARK    5  A    between atoms: C_11  and  N_12 
REMARK    6  A    between atoms: C_20  and  C_21 
REMARK    7  A    between atoms: C_24  and  C_25 
REMARK    8  A    between atoms: C_32  and  C_33 
REMARK    9  A    between atoms: C_33  and  O_34 
ROOT
HETATM    1  C   UNL     1      16.508  48.470  45.588  1.00  0.00     0.071 C 
HETATM    2  C   UNL     1      17.112  49.356  46.647  1.00  0.00     0.048 C 
HETATM    3  N   UNL     1      17.153  48.763  47.906  1.00  0.00    -0.229 NA
HETATM    4  C   UNL     1      17.934  49.304  48.780  1.00  0.00     0.170 C 
HETATM    5  N   UNL     1      18.758  50.577  48.475  1.00  0.00    -0.319 N 
HETATM    6  C   UNL     1      19.914  50.500  49.038  1.00  0.00     0.011 C 
HETATM    7  C   UNL     1      18.007  51.487  47.580  1.00  0.00     0.166 C 
HETATM    8  S   UNL     1      18.421  48.580  50.265  1.00  0.00    -0.086 SA
HETATM    9  C   UNL     1      19.982  49.528  50.209  1.00  0.00     0.135 C 
HETATM   10  C   UNL     1      17.559  50.618  46.428  1.00  0.00     0.069 C 
ENDROOT
BRANCH   6  11
HETATM   11  C   UNL     1      21.107  51.239  48.497  1.00  0.00     0.156 C 
BRANCH  11  12
HETATM   12  C   UNL     1      22.361  50.415  48.763  1.00  0.00     0.223 C 
HETATM   13  N   UNL     1      22.439  49.191  48.155  1.00  0.00    -0.359 N 
HETATM   14  H   UNL     1      21.814  48.974  47.383  1.00  0.00     0.162 HD
HETATM   15  O   UNL     1      23.170  50.768  49.617  1.00  0.00    -0.273 OA
BRANCH  13  16
HETATM   16  C   UNL     1      23.254  48.067  48.650  1.00  0.00     0.150 C 
BRANCH  16  17
HETATM   17  C   UNL     1      22.626  46.648  48.651  1.00  0.00     0.254 C 
BRANCH  17  18
HETATM   18  N   UNL     1      21.262  46.598  47.996  1.00  0.00    -0.070 N 
HETATM   19  H   UNL     1      20.797  47.493  48.249  1.00  0.00     0.279 HD
HETATM   20  C   UNL     1      21.282  46.527  46.487  1.00  0.00     0.235 C 
HETATM   21  C   UNL     1      19.868  46.731  45.959  1.00  0.00     0.028 C 
HETATM   22  C   UNL     1      18.892  45.719  46.550  1.00  0.00     0.003 C 
HETATM   23  C   UNL     1      18.961  45.698  48.073  1.00  0.00     0.028 C 
HETATM   24  C   UNL     1      20.385  45.510  48.577  1.00  0.00     0.235 C 
ENDBRANCH  17  18
ENDBRANCH  16  17
ENDBRANCH  13  16
ENDBRANCH  11  12
ENDBRANCH   6  11
BRANCH   7  25
HETATM   25  C   UNL     1      16.846  52.072  48.416  1.00  0.00    -0.030 C 
HETATM   26  C   UNL     1      15.583  52.293  47.828  1.00  0.00     0.010 C 
HETATM   27  C   UNL     1      14.672  53.180  48.410  1.00  0.00     0.008 C 
HETATM   28  C   UNL     1      14.973  53.827  49.613  1.00  0.00    -0.055 C 
HETATM   29  C   UNL     1      16.136  53.454  50.293  1.00  0.00     0.008 C 
HETATM   30  C   UNL     1      17.053  52.576  49.711  1.00  0.00     0.010 C 
BRANCH  28  31
HETATM   31  C   UNL     1      14.096  54.964  50.113  1.00  0.00     0.010 C 
HETATM   32  C   UNL     1      12.607  54.628  50.080  1.00  0.00     0.015 C 
HETATM   33  C   UNL     1      14.527  55.378  51.528  1.00  0.00     0.015 C 
ENDBRANCH  28  31
ENDBRANCH   7  25
BRANCH  10  34
HETATM   34  C   UNL     1      17.692  51.283  45.117  1.00  0.00     0.293 C 
HETATM   35  O   UNL     1      17.025  52.257  44.816  1.00  0.00    -0.259 OA
BRANCH  34  36
HETATM   36  O   UNL     1      18.776  50.811  44.461  1.00  0.00    -0.323 OA
HETATM   37  C   UNL     1      18.602  50.697  43.043  1.00  0.00     0.213 C 
ENDBRANCH  34  36
ENDBRANCH  10  34
TORSDOF 9
ENDMDL
MODEL 3
REMARK VINA RESULT:      -7.3      2.637      4.046
REMARK  9 active torsions:
REMARK  status: ('A' for Active; 'I' for Inactive)
REMARK    1  A    between atoms: C_6  and  C_7 
REMARK    2  A    between atoms: C_7  and  C_8 
REMARK       I    between atoms: C_8  and  N_9 
REMARK    3  A    between atoms: N_9  and  C_10 
REMARK    4  A    between atoms: C_10  and  C_11 
REMARK    5  A    between atoms: C_11  and  N_12 
REMARK    6  A    between atoms: C_20  and  C_21 
REMARK    7  A    between atoms: C_24  and  C_25 
REMARK    8  A    between atoms: C_32  and  C_33 
REMARK    9  A    between atoms: C_33  and  O_34 
ROOT
HETATM    1  C   UNL     1      16.737  47.013  47.633  1.00  0.00     0.071 C 
HETATM    2  C   UNL     1      17.360  48.379  47.501  1.00  0.00     0.048 C 
HETATM    3  N   UNL     1      16.693  49.363  48.225  1.00  0.00    -0.229 NA
HETATM    4  C   UNL     1      17.329  50.467  48.433  1.00  0.00     0.170 C 
HETATM    5  N   UNL     1      18.749  50.719  47.872  1.00  0.00    -0.319 N 
HETATM    6  C   UNL     1      19.450  51.380  48.727  1.00  0.00     0.011 C 
HETATM    7  C   UNL     1      18.910  50.081  46.545  1.00  0.00     0.166 C 
HETATM    8  S   UNL     1      16.877  51.680  49.569  1.00  0.00    -0.086 SA
HETATM    9  C   UNL     1      18.631  52.159  49.747  1.00  0.00     0.135 C 
HETATM   10  C   UNL     1      18.449  48.656  46.740  1.00  0.00     0.069 C 
ENDROOT
BRANCH   6  11
HETATM   11  C   UNL     1      20.951  51.286  48.758  1.00  0.00     0.156 C 
BRANCH  11  12
HETATM   12  C   UNL     1      21.349  49.912  49.282  1.00  0.00     0.223 C 
HETATM   13  N   UNL     1      22.662  49.552  49.141  1.00  0.00    -0.359 N 
HETATM   14  H   UNL     1      23.358  50.264  48.932  1.00  0.00     0.162 HD
HETATM   15  O   UNL     1      20.494  49.112  49.652  1.00  0.00    -0.273 OA
BRANCH  13  16
HETATM   16  C   UNL     1      23.142  48.159  49.092  1.00  0.00     0.150 C 
BRANCH  16  17
HETATM   17  C   UNL     1      24.411  47.789  49.906  1.00  0.00     0.254 C 
BRANCH  17  18
HETATM   18  N   UNL     1      24.310  46.442  50.591  1.00  0.00    -0.070 N 
HETATM   19  H   UNL     1      23.428  46.473  51.141  1.00  0.00     0.279 HD
HETATM   20  C   UNL     1      24.200  45.259  49.657  1.00  0.00     0.235 C 
HETATM   21  C   UNL     1      23.859  44.015  50.467  1.00  0.00     0.028 C 
HETATM   22  C   UNL     1      24.881  43.759  51.569  1.00  0.00     0.003 C 
HETATM   23  C   UNL     1      25.089  44.995  52.437  1.00  0.00     0.028 C 
HETATM   24  C   UNL     1      25.412  46.229  51.605  1.00  0.00     0.235 C 
ENDBRANCH  17  18
ENDBRANCH  16  17
ENDBRANCH  13  16
ENDBRANCH  11  12
ENDBRANCH   6  11
BRANCH   7  25
HETATM   25  C   UNL     1      18.045  50.894  45.555  1.00  0.00    -0.030 C 
HETATM   26  C   UNL     1      17.903  50.470  44.218  1.00  0.00     0.010 C 
HETATM   27  C   UNL     1      17.498  51.368  43.225  1.00  0.00     0.008 C 
HETATM   28  C   UNL     1      17.176  52.691  43.546  1.00  0.00    -0.055 C 
HETATM   29  C   UNL     1      17.126  53.052  44.896  1.00  0.00     0.008 C 
HETATM   30  C   UNL     1      17.538  52.161  45.889  1.00  0.00     0.010 C 
BRANCH  28  31
HETATM   31  C   UNL     1      16.975  53.720  42.445  1.00  0.00     0.010 C 
HETATM   32  C   UNL     1      17.580  53.291  41.110  1.00  0.00     0.015 C 
HETATM   33  C   UNL     1      15.480  54.034  42.286  1.00  0.00     0.015 C 
ENDBRANCH  28  31
ENDBRANCH   7  25
BRANCH  10  34
HETATM   34  C   UNL     1      19.307  47.671  46.052  1.00  0.00     0.293 C 
HETATM   35  O   UNL     1      19.075  47.294  44.917  1.00  0.00    -0.259 OA
BRANCH  34  36
HETATM   36  O   UNL     1      20.444  47.471  46.755  1.00  0.00    -0.323 OA
HETATM   37  C   UNL     1      20.461  46.254  47.513  1.00  0.00     0.213 C 
ENDBRANCH  34  36
ENDBRANCH  10  34
TORSDOF 9
ENDMDL
MODEL 4
REMARK VINA RESULT:      -7.3      3.004      4.058
REMARK  9 active torsions:
REMARK  status: ('A' for Active; 'I' for Inactive)
REMARK    1  A    between atoms: C_6  and  C_7 
REMARK    2  A    between atoms: C_7  and  C_8 
REMARK       I    between atoms: C_8  and  N_9 
REMARK    3  A    between atoms: N_9  and  C_10 
REMARK    4  A    between atoms: C_10  and  C_11 
REMARK    5  A    between atoms: C_11  and  N_12 
REMARK    6  A    between atoms: C_20  and  C_21 
REMARK    7  A    between atoms: C_24  and  C_25 
REMARK    8  A    between atoms: C_32  and  C_33 
REMARK    9  A    between atoms: C_33  and  O_34 
ROOT
HETATM    1  C   UNL     1      19.708  45.149  48.435  1.00  0.00     0.071 C 
HETATM    2  C   UNL     1      19.571  46.641  48.269  1.00  0.00     0.048 C 
HETATM    3  N   UNL     1      19.044  47.276  49.390  1.00  0.00    -0.229 NA
HETATM    4  C   UNL     1      19.195  48.555  49.461  1.00  0.00     0.170 C 
HETATM    5  N   UNL     1      19.889  49.368  48.342  1.00  0.00    -0.319 N 
HETATM    6  C   UNL     1      20.598  50.313  48.857  1.00  0.00     0.011 C 
HETATM    7  C   UNL     1      19.585  48.792  47.011  1.00  0.00     0.166 C 
HETATM    8  S   UNL     1      18.950  49.512  50.873  1.00  0.00    -0.086 SA
HETATM    9  C   UNL     1      20.186  50.713  50.267  1.00  0.00     0.135 C 
HETATM   10  C   UNL     1      19.901  47.322  47.142  1.00  0.00     0.069 C 
ENDROOT
BRANCH   6  11
HETATM   11  C   UNL     1      21.793  50.881  48.143  1.00  0.00     0.156 C 
BRANCH  11  12
HETATM   12  C   UNL     1      22.878  49.814  48.070  1.00  0.00     0.223 C 
HETATM   13  N   UNL     1      22.916  48.898  49.087  1.00  0.00    -0.359 N 
HETATM   14  H   UNL     1      22.112  48.798  49.702  1.00  0.00     0.162 HD
HETATM   15  O   UNL     1      23.772  49.887  47.231  1.00  0.00    -0.273 OA
BRANCH  13  16
HETATM   16  C   UNL     1      24.120  48.146  49.485  1.00  0.00     0.150 C 
BRANCH  16  17
HETATM   17  C   UNL     1      23.993  46.615  49.701  1.00  0.00     0.254 C 
BRANCH  17  18
HETATM   18  N   UNL     1      24.496  46.158  51.054  1.00  0.00    -0.070 N 
HETATM   19  H   UNL     1      23.683  46.238  51.697  1.00  0.00     0.279 HD
HETATM   20  C   UNL     1      24.958  44.720  51.110  1.00  0.00     0.235 C 
HETATM   21  C   UNL     1      25.197  44.329  52.562  1.00  0.00     0.028 C 
HETATM   22  C   UNL     1      26.197  45.260  53.241  1.00  0.00     0.003 C 
HETATM   23  C   UNL     1      25.800  46.723  53.076  1.00  0.00     0.028 C 
HETATM   24  C   UNL     1      25.549  47.086  51.619  1.00  0.00     0.235 C 
ENDBRANCH  17  18
ENDBRANCH  16  17
ENDBRANCH  13  16
ENDBRANCH  11  12
ENDBRANCH   6  11
BRANCH   7  25
HETATM   25  C   UNL     1      18.097  49.096  46.726  1.00  0.00    -0.030 C 
HETATM   26  C   UNL     1      17.222  48.064  46.329  1.00  0.00     0.010 C 
HETATM   27  C   UNL     1      16.021  48.360  45.677  1.00  0.00     0.008 C 
HETATM   28  C   UNL     1      15.638  49.686  45.450  1.00  0.00    -0.055 C 
HETATM   29  C   UNL     1      16.408  50.704  46.021  1.00  0.00     0.008 C 
HETATM   30  C   UNL     1      17.612  50.413  46.665  1.00  0.00     0.010 C 
BRANCH  28  31
HETATM   31  C   UNL     1      14.466  50.000  44.535  1.00  0.00     0.010 C 
HETATM   32  C   UNL     1      13.294  49.038  44.713  1.00  0.00     0.015 C 
HETATM   33  C   UNL     1      14.010  51.452  44.743  1.00  0.00     0.015 C 
ENDBRANCH  28  31
ENDBRANCH   7  25
BRANCH  10  34
HETATM   34  C   UNL     1      20.594  46.771  45.961  1.00  0.00     0.293 C 
HETATM   35  O   UNL     1      21.786  46.520  45.971  1.00  0.00    -0.259 OA
BRANCH  34  36
HETATM   36  O   UNL     1      19.694  46.390  45.027  1.00  0.00    -0.323 OA
HETATM   37  C   UNL     1      19.769  45.003  44.669  1.00  0.00     0.213 C 
ENDBRANCH  34  36
ENDBRANCH  10  34
TORSDOF 9
ENDMDL
MODEL 5
REMARK VINA RESULT:      -7.1      2.989      4.220
REMARK  9 active torsions:
REMARK  status: ('A' for Active; 'I' for Inactive)
REMARK    1  A    between atoms: C_6  and  C_7 
REMARK    2  A    between atoms: C_7  and  C_8 
REMARK       I    between atoms: C_8  and  N_9 
REMARK    3  A    between atoms: N_9  and  C_10 
REMARK    4  A    between atoms: C_10  and  C_11 
REMARK    5  A    between atoms: C_11  and  N_12 
REMARK    6  A    between atoms: C_20  and  C_21 
REMARK    7  A    between atoms: C_24  and  C_25 
REMARK    8  A    between atoms: C_32  and  C_33 
REMARK    9  A    between atoms: C_33  and  O_34 
ROOT
HETATM    1  C   UNL     1      18.424  45.467  48.034  1.00  0.00     0.071 C 
HETATM    2  C   UNL     1      18.888  46.896  47.911  1.00  0.00     0.048 C 
HETATM    3  N   UNL     1      18.466  47.706  48.961  1.00  0.00    -0.229 NA
HETATM    4  C   UNL     1      19.075  48.834  49.108  1.00  0.00     0.170 C 
HETATM    5  N   UNL     1      20.192  49.301  48.145  1.00  0.00    -0.319 N 
HETATM    6  C   UNL     1      21.112  49.918  48.803  1.00  0.00     0.011 C 
HETATM    7  C   UNL     1      19.911  48.856  46.761  1.00  0.00     0.166 C 
HETATM    8  S   UNL     1      18.985  49.842  50.503  1.00  0.00    -0.086 SA
HETATM    9  C   UNL     1      20.662  50.473  50.148  1.00  0.00     0.135 C 
HETATM   10  C   UNL     1      19.625  47.378  46.878  1.00  0.00     0.069 C 
ENDROOT
BRANCH   6  11
HETATM   11  C   UNL     1      22.531  49.977  48.309  1.00  0.00     0.156 C 
BRANCH  11  12
HETATM   12  C   UNL     1      23.317  48.828  48.926  1.00  0.00     0.223 C 
HETATM   13  N   UNL     1      23.008  47.564  48.499  1.00  0.00    -0.359 N 
HETATM   14  H   UNL     1      22.468  47.442  47.646  1.00  0.00     0.162 HD
HETATM   15  O   UNL     1      24.066  49.024  49.880  1.00  0.00    -0.273 OA
BRANCH  13  16
HETATM   16  C   UNL     1      23.245  46.339  49.283  1.00  0.00     0.150 C 
BRANCH  16  17
HETATM   17  C   UNL     1      24.521  45.510  48.984  1.00  0.00     0.254 C 
BRANCH  17  18
HETATM   18  N   UNL     1      25.506  45.490  50.135  1.00  0.00    -0.070 N 
HETATM   19  H   UNL     1      26.275  46.130  49.855  1.00  0.00     0.279 HD
HETATM   20  C   UNL     1      24.962  46.006  51.446  1.00  0.00     0.235 C 
HETATM   21  C   UNL     1      26.110  46.162  52.435  1.00  0.00     0.028 C 
HETATM   22  C   UNL     1      26.873  44.855  52.626  1.00  0.00     0.003 C 
HETATM   23  C   UNL     1      27.313  44.264  51.291  1.00  0.00     0.028 C 
HETATM   24  C   UNL     1      26.153  44.134  50.314  1.00  0.00     0.235 C 
ENDBRANCH  17  18
ENDBRANCH  16  17
ENDBRANCH  13  16
ENDBRANCH  11  12
ENDBRANCH   6  11
BRANCH   7  25
HETATM   25  C   UNL     1      18.713  49.694  46.261  1.00  0.00    -0.030 C 
HETATM   26  C   UNL     1      17.810  49.156  45.320  1.00  0.00     0.010 C 
HETATM   27  C   UNL     1      16.995  49.995  44.555  1.00  0.00     0.008 C 
HETATM   28  C   UNL     1      17.022  51.382  44.741  1.00  0.00    -0.055 C 
HETATM   29  C   UNL     1      17.767  51.893  45.807  1.00  0.00     0.008 C 
HETATM   30  C   UNL     1      18.588  51.059  46.568  1.00  0.00     0.010 C 
BRANCH  28  31
HETATM   31  C   UNL     1      16.325  52.302  43.751  1.00  0.00     0.010 C 
HETATM   32  C   UNL     1      15.590  53.458  44.426  1.00  0.00     0.015 C 
HETATM   33  C   UNL     1      17.336  52.830  42.722  1.00  0.00     0.015 C 
ENDBRANCH  28  31
ENDBRANCH   7  25
BRANCH  10  34
HETATM   34  C   UNL     1      20.239  46.582  45.797  1.00  0.00     0.293 C 
HETATM   35  O   UNL     1      19.633  46.302  44.778  1.00  0.00    -0.259 OA
BRANCH  34  36
HETATM   36  O   UNL     1      21.566  46.446  46.013  1.00  0.00    -0.323 OA
HETATM   37  C   UNL     1      22.030  45.090  45.991  1.00  0.00     0.213 C 
ENDBRANCH  34  36
ENDBRANCH  10  34
TORSDOF 9
ENDMDL
MODEL 6
REMARK VINA RESULT:      -6.9      3.083      4.847
REMARK  9 active torsions:
REMARK  status: ('A' for Active; 'I' for Inactive)
REMARK    1  A    between atoms: C_6  and  C_7 
REMARK    2  A    between atoms: C_7  and  C_8 
REMARK       I    between atoms: C_8  and  N_9 
REMARK    3  A    between atoms: N_9  and  C_10 
REMARK    4  A    between atoms: C_10  and  C_11 
REMARK    5  A    between atoms: C_11  and  N_12 
REMARK    6  A    between atoms: C_20  and  C_21 
REMARK    7  A    between atoms: C_24  and  C_25 
REMARK    8  A    between atoms: C_32  and  C_33 
REMARK    9  A    between atoms: C_33  and  O_34 
ROOT
HETATM    1  C   UNL     1      20.293  51.058  47.888  1.00  0.00     0.071 C 
HETATM    2  C   UNL     1      19.165  50.143  47.486  1.00  0.00     0.048 C 
HETATM    3  N   UNL     1      19.131  49.875  46.120  1.00  0.00    -0.229 NA
HETATM    4  C   UNL     1      18.422  48.866  45.741  1.00  0.00     0.170 C 
HETATM    5  N   UNL     1      17.604  48.011  46.738  1.00  0.00    -0.319 N 
HETATM    6  C   UNL     1      17.647  46.770  46.392  1.00  0.00     0.011 C 
HETATM    7  C   UNL     1      17.061  48.853  47.829  1.00  0.00     0.166 C 
HETATM    8  S   UNL     1      18.489  48.128  44.186  1.00  0.00    -0.086 SA
HETATM    9  C   UNL     1      17.989  46.534  44.927  1.00  0.00     0.135 C 
HETATM   10  C   UNL     1      18.246  49.635  48.344  1.00  0.00     0.069 C 
ENDROOT
BRANCH   6  11
HETATM   11  C   UNL     1      17.473  45.665  47.397  1.00  0.00     0.156 C 
BRANCH  11  12
HETATM   12  C   UNL     1      18.813  44.971  47.605  1.00  0.00     0.223 C 
HETATM   13  N   UNL     1      19.844  45.741  48.072  1.00  0.00    -0.359 N 
HETATM   14  H   UNL     1      19.645  46.647  48.487  1.00  0.00     0.162 HD
HETATM   15  O   UNL     1      18.990  43.823  47.206  1.00  0.00    -0.273 OA
BRANCH  13  16
HETATM   16  C   UNL     1      21.271  45.437  47.860  1.00  0.00     0.150 C 
BRANCH  16  17
HETATM   17  C   UNL     1      22.060  44.769  49.017  1.00  0.00     0.254 C 
BRANCH  17  18
HETATM   18  N   UNL     1      23.083  45.688  49.653  1.00  0.00    -0.070 N 
HETATM   19  H   UNL     1      22.716  45.902  50.602  1.00  0.00     0.279 HD
HETATM   20  C   UNL     1      24.454  45.082  49.840  1.00  0.00     0.235 C 
HETATM   21  C   UNL     1      25.297  46.013  50.702  1.00  0.00     0.028 C 
HETATM   22  C   UNL     1      25.385  47.412  50.103  1.00  0.00     0.003 C 
HETATM   23  C   UNL     1      24.004  47.977  49.793  1.00  0.00     0.028 C 
HETATM   24  C   UNL     1      23.174  47.023  48.946  1.00  0.00     0.235 C 
ENDBRANCH  17  18
ENDBRANCH  16  17
ENDBRANCH  13  16
ENDBRANCH  11  12
ENDBRANCH   6  11
BRANCH   7  25
HETATM   25  C   UNL     1      15.952  49.728  47.202  1.00  0.00    -0.030 C 
HETATM   26  C   UNL     1      14.974  49.149  46.367  1.00  0.00     0.010 C 
HETATM   27  C   UNL     1      14.239  49.939  45.477  1.00  0.00     0.008 C 
HETATM   28  C   UNL     1      14.423  51.325  45.432  1.00  0.00    -0.055 C 
HETATM   29  C   UNL     1      15.245  51.916  46.397  1.00  0.00     0.008 C 
HETATM   30  C   UNL     1      15.986  51.130  47.281  1.00  0.00     0.010 C 
BRANCH  28  31
HETATM   31  C   UNL     1      13.810  52.144  44.307  1.00  0.00     0.010 C 
HETATM   32  C   UNL     1      12.343  52.491  44.552  1.00  0.00     0.015 C 
HETATM   33  C   UNL     1      14.636  53.418  44.074  1.00  0.00     0.015 C 
ENDBRANCH  28  31
ENDBRANCH   7  25
BRANCH  10  34
HETATM   34  C   UNL     1      18.274  49.739  49.816  1.00  0.00     0.293 C 
HETATM   35  O   UNL     1      17.876  50.732  50.400  1.00  0.00    -0.259 OA
BRANCH  34  36
HETATM   36  O   UNL     1      18.559  48.537  50.365  1.00  0.00    -0.323 OA
HETATM   37  C   UNL     1      18.605  48.540  51.798  1.00  0.00     0.213 C 
ENDBRANCH  34  36
ENDBRANCH  10  34
TORSDOF 9
ENDMDL
MODEL 7
REMARK VINA RESULT:      -6.8      3.408      5.481
REMARK  9 active torsions:
REMARK  status: ('A' for Active; 'I' for Inactive)
REMARK    1  A    between atoms: C_6  and  C_7 
REMARK    2  A    between atoms: C_7  and  C_8 
REMARK       I    between atoms: C_8  and  N_9 
REMARK    3  A    between atoms: N_9  and  C_10 
REMARK    4  A    between atoms: C_10  and  C_11 
REMARK    5  A    between atoms: C_11  and  N_12 
REMARK    6  A    between atoms: C_20  and  C_21 
REMARK    7  A    between atoms: C_24  and  C_25 
REMARK    8  A    between atoms: C_32  and  C_33 
REMARK    9  A    between atoms: C_33  and  O_34 
ROOT
HETATM    1  C   UNL     1      20.878  50.473  48.218  1.00  0.00     0.071 C 
HETATM    2  C   UNL     1      19.413  50.502  47.864  1.00  0.00     0.048 C 
HETATM    3  N   UNL     1      19.150  51.134  46.652  1.00  0.00    -0.229 NA
HETATM    4  C   UNL     1      17.992  50.920  46.122  1.00  0.00     0.170 C 
HETATM    5  N   UNL     1      16.919  50.043  46.809  1.00  0.00    -0.319 N 
HETATM    6  C   UNL     1      16.281  49.354  45.927  1.00  0.00     0.011 C 
HETATM    7  C   UNL     1      16.974  50.204  48.281  1.00  0.00     0.166 C 
HETATM    8  S   UNL     1      17.555  51.291  44.498  1.00  0.00    -0.086 SA
HETATM    9  C   UNL     1      16.347  49.921  44.515  1.00  0.00     0.135 C 
HETATM   10  C   UNL     1      18.425  49.992  48.642  1.00  0.00     0.069 C 
ENDROOT
BRANCH   6  11
HETATM   11  C   UNL     1      15.624  48.046  46.272  1.00  0.00     0.156 C 
BRANCH  11  12
HETATM   12  C   UNL     1      16.560  46.907  45.888  1.00  0.00     0.223 C 
HETATM   13  N   UNL     1      16.087  45.992  44.987  1.00  0.00    -0.359 N 
HETATM   14  H   UNL     1      15.265  46.214  44.431  1.00  0.00     0.162 HD
HETATM   15  O   UNL     1      17.615  46.734  46.494  1.00  0.00    -0.273 OA
BRANCH  13  16
HETATM   16  C   UNL     1      16.575  44.605  44.875  1.00  0.00     0.150 C 
BRANCH  16  17
HETATM   17  C   UNL     1      17.905  44.353  44.116  1.00  0.00     0.254 C 
BRANCH  17  18
HETATM   18  N   UNL     1      19.134  44.612  44.962  1.00  0.00    -0.070 N 
HETATM   19  H   UNL     1      18.802  45.168  45.775  1.00  0.00     0.279 HD
HETATM   20  C   UNL     1      19.795  43.374  45.520  1.00  0.00     0.235 C 
HETATM   21  C   UNL     1      20.851  43.788  46.537  1.00  0.00     0.028 C 
HETATM   22  C   UNL     1      21.876  44.741  45.932  1.00  0.00     0.003 C 
HETATM   23  C   UNL     1      21.204  45.930  45.255  1.00  0.00     0.028 C 
HETATM   24  C   UNL     1      20.142  45.492  44.255  1.00  0.00     0.235 C 
ENDBRANCH  17  18
ENDBRANCH  16  17
ENDBRANCH  13  16
ENDBRANCH  11  12
ENDBRANCH   6  11
BRANCH   7  25
HETATM   25  C   UNL     1      16.447  51.623  48.591  1.00  0.00    -0.030 C 
HETATM   26  C   UNL     1      16.817  52.276  49.785  1.00  0.00     0.010 C 
HETATM   27  C   UNL     1      16.056  53.338  50.281  1.00  0.00     0.008 C 
HETATM   28  C   UNL     1      14.940  53.808  49.579  1.00  0.00    -0.055 C 
HETATM   29  C   UNL     1      14.696  53.292  48.303  1.00  0.00     0.008 C 
HETATM   30  C   UNL     1      15.448  52.226  47.808  1.00  0.00     0.010 C 
BRANCH  28  31
HETATM   31  C   UNL     1      13.980  54.789  50.233  1.00  0.00     0.010 C 
HETATM   32  C   UNL     1      12.514  54.404  50.045  1.00  0.00     0.015 C 
HETATM   33  C   UNL     1      14.313  54.936  51.725  1.00  0.00     0.015 C 
ENDBRANCH  28  31
ENDBRANCH   7  25
BRANCH  10  34
HETATM   34  C   UNL     1      18.605  49.184  49.864  1.00  0.00     0.293 C 
HETATM   35  O   UNL     1      18.718  49.695  50.964  1.00  0.00    -0.259 OA
BRANCH  34  36
HETATM   36  O   UNL     1      18.386  47.877  49.598  1.00  0.00    -0.323 OA
HETATM   37  C   UNL     1      19.552  47.160  49.173  1.00  0.00     0.213 C 
ENDBRANCH  34  36
ENDBRANCH  10  34
TORSDOF 9
ENDMDL
MODEL 8
REMARK VINA RESULT:      -6.7      2.198      8.929
REMARK  9 active torsions:
REMARK  status: ('A' for Active; 'I' for Inactive)
REMARK    1  A    between atoms: C_6  and  C_7 
REMARK    2  A    between atoms: C_7  and  C_8 
REMARK       I    between atoms: C_8  and  N_9 
REMARK    3  A    between atoms: N_9  and  C_10 
REMARK    4  A    between atoms: C_10  and  C_11 
REMARK    5  A    between atoms: C_11  and  N_12 
REMARK    6  A    between atoms: C_20  and  C_21 
REMARK    7  A    between atoms: C_24  and  C_25 
REMARK    8  A    between atoms: C_32  and  C_33 
REMARK    9  A    between atoms: C_33  and  O_34 
ROOT
HETATM    1  C   UNL     1      19.358  49.920  50.712  1.00  0.00     0.071 C 
HETATM    2  C   UNL     1      19.491  49.159  49.418  1.00  0.00     0.048 C 
HETATM    3  N   UNL     1      18.832  47.933  49.427  1.00  0.00    -0.229 NA
HETATM    4  C   UNL     1      18.619  47.377  48.282  1.00  0.00     0.170 C 
HETATM    5  N   UNL     1      19.104  48.006  46.955  1.00  0.00    -0.319 N 
HETATM    6  C   UNL     1      18.229  47.815  46.030  1.00  0.00     0.011 C 
HETATM    7  C   UNL     1      20.402  48.694  47.145  1.00  0.00     0.166 C 
HETATM    8  S   UNL     1      17.543  46.061  47.998  1.00  0.00    -0.086 SA
HETATM    9  C   UNL     1      17.278  46.654  46.290  1.00  0.00     0.135 C 
HETATM   10  C   UNL     1      20.196  49.592  48.341  1.00  0.00     0.069 C 
ENDROOT
BRANCH   6  11
HETATM   11  C   UNL     1      18.110  48.742  44.852  1.00  0.00     0.156 C 
BRANCH  11  12
HETATM   12  C   UNL     1      17.153  49.872  45.208  1.00  0.00     0.223 C 
HETATM   13  N   UNL     1      17.710  51.089  45.497  1.00  0.00    -0.359 N 
HETATM   14  H   UNL     1      18.676  51.272  45.237  1.00  0.00     0.162 HD
HETATM   15  O   UNL     1      15.959  49.647  45.392  1.00  0.00    -0.273 OA
BRANCH  13  16
HETATM   16  C   UNL     1      17.068  52.122  46.329  1.00  0.00     0.150 C 
BRANCH  16  17
HETATM   17  C   UNL     1      16.856  51.825  47.837  1.00  0.00     0.254 C 
BRANCH  17  18
HETATM   18  N   UNL     1      15.908  52.795  48.511  1.00  0.00    -0.070 N 
HETATM   19  H   UNL     1      16.497  53.596  48.815  1.00  0.00     0.279 HD
HETATM   20  C   UNL     1      14.832  53.359  47.613  1.00  0.00     0.235 C 
HETATM   21  C   UNL     1      14.117  54.490  48.342  1.00  0.00     0.028 C 
HETATM   22  C   UNL     1      13.542  54.028  49.677  1.00  0.00     0.003 C 
HETATM   23  C   UNL     1      14.600  53.342  50.534  1.00  0.00     0.028 C 
HETATM   24  C   UNL     1      15.311  52.227  49.780  1.00  0.00     0.235 C 
ENDBRANCH  17  18
ENDBRANCH  16  17
ENDBRANCH  13  16
ENDBRANCH  11  12
ENDBRANCH   6  11
BRANCH   7  25
HETATM   25  C   UNL     1      21.462  47.589  47.360  1.00  0.00    -0.030 C 
HETATM   26  C   UNL     1      21.447  46.423  46.567  1.00  0.00     0.010 C 
HETATM   27  C   UNL     1      22.096  45.262  46.997  1.00  0.00     0.008 C 
HETATM   28  C   UNL     1      22.816  45.246  48.197  1.00  0.00    -0.055 C 
HETATM   29  C   UNL     1      22.994  46.455  48.876  1.00  0.00     0.008 C 
HETATM   30  C   UNL     1      22.341  47.614  48.455  1.00  0.00     0.010 C 
BRANCH  28  31
HETATM   31  C   UNL     1      23.310  43.931  48.778  1.00  0.00     0.010 C 
HETATM   32  C   UNL     1      22.614  43.557  50.085  1.00  0.00     0.015 C 
HETATM   33  C   UNL     1      23.157  42.808  47.742  1.00  0.00     0.015 C 
ENDBRANCH  28  31
ENDBRANCH   7  25
BRANCH  10  34
HETATM   34  C   UNL     1      20.806  50.925  48.176  1.00  0.00     0.293 C 
HETATM   35  O   UNL     1      20.175  51.951  48.360  1.00  0.00    -0.259 OA
BRANCH  34  36
HETATM   36  O   UNL     1      22.147  50.813  48.043  1.00  0.00    -0.323 OA
HETATM   37  C   UNL     1      22.881  51.070  49.247  1.00  0.00     0.213 C 
ENDBRANCH  34  36
ENDBRANCH  10  34
TORSDOF 9
ENDMDL
MODEL 9
REMARK VINA RESULT:      -6.5      2.422      3.871
REMARK  9 active torsions:
REMARK  status: ('A' for Active; 'I' for Inactive)
REMARK    1  A    between atoms: C_6  and  C_7 
REMARK    2  A    between atoms: C_7  and  C_8 
REMARK       I    between atoms: C_8  and  N_9 
REMARK    3  A    between atoms: N_9  and  C_10 
REMARK    4  A    between atoms: C_10  and  C_11 
REMARK    5  A    between atoms: C_11  and  N_12 
REMARK    6  A    between atoms: C_20  and  C_21 
REMARK    7  A    between atoms: C_24  and  C_25 
REMARK    8  A    between atoms: C_32  and  C_33 
REMARK    9  A    between atoms: C_33  and  O_34 
ROOT
HETATM    1  C   UNL     1      17.334  45.124  46.672  1.00  0.00     0.071 C 
HETATM    2  C   UNL     1      18.017  46.451  46.883  1.00  0.00     0.048 C 
HETATM    3  N   UNL     1      17.628  47.093  48.055  1.00  0.00    -0.229 NA
HETATM    4  C   UNL     1      18.385  48.051  48.474  1.00  0.00     0.170 C 
HETATM    5  N   UNL     1      19.643  48.509  47.699  1.00  0.00    -0.319 N 
HETATM    6  C   UNL     1      20.582  48.818  48.525  1.00  0.00     0.011 C 
HETATM    7  C   UNL     1      19.426  48.403  46.237  1.00  0.00     0.166 C 
HETATM    8  S   UNL     1      18.321  48.759  50.043  1.00  0.00    -0.086 SA
HETATM    9  C   UNL     1      20.100  49.160  49.928  1.00  0.00     0.135 C 
HETATM   10  C   UNL     1      18.910  47.000  46.020  1.00  0.00     0.069 C 
ENDROOT
BRANCH   6  11
HETATM   11  C   UNL     1      22.032  48.738  48.137  1.00  0.00     0.156 C 
BRANCH  11  12
HETATM   12  C   UNL     1      22.458  47.275  48.116  1.00  0.00     0.223 C 
HETATM   13  N   UNL     1      22.985  46.766  49.272  1.00  0.00    -0.359 N 
HETATM   14  H   UNL     1      22.858  47.271  50.146  1.00  0.00     0.162 HD
HETATM   15  O   UNL     1      22.481  46.646  47.062  1.00  0.00    -0.273 OA
BRANCH  13  16
HETATM   16  C   UNL     1      23.896  45.609  49.332  1.00  0.00     0.150 C 
BRANCH  16  17
HETATM   17  C   UNL     1      25.297  45.807  49.970  1.00  0.00     0.254 C 
BRANCH  17  18
HETATM   18  N   UNL     1      25.260  45.883  51.483  1.00  0.00    -0.070 N 
HETATM   19  H   UNL     1      24.276  46.113  51.727  1.00  0.00     0.279 HD
HETATM   20  C   UNL     1      25.596  44.592  52.192  1.00  0.00     0.235 C 
HETATM   21  C   UNL     1      25.282  44.742  53.675  1.00  0.00     0.028 C 
HETATM   22  C   UNL     1      26.019  45.925  54.293  1.00  0.00     0.003 C 
HETATM   23  C   UNL     1      25.783  47.207  53.502  1.00  0.00     0.028 C 
HETATM   24  C   UNL     1      26.088  47.028  52.021  1.00  0.00     0.235 C 
ENDBRANCH  17  18
ENDBRANCH  16  17
ENDBRANCH  13  16
ENDBRANCH  11  12
ENDBRANCH   6  11
BRANCH   7  25
HETATM   25  C   UNL     1      18.418  49.512  45.858  1.00  0.00    -0.030 C 
HETATM   26  C   UNL     1      18.652  50.849  46.242  1.00  0.00     0.010 C 
HETATM   27  C   UNL     1      17.601  51.770  46.287  1.00  0.00     0.008 C 
HETATM   28  C   UNL     1      16.307  51.399  45.904  1.00  0.00    -0.055 C 
HETATM   29  C   UNL     1      16.122  50.135  45.335  1.00  0.00     0.008 C 
HETATM   30  C   UNL     1      17.166  49.210  45.297  1.00  0.00     0.010 C 
BRANCH  28  31
HETATM   31  C   UNL     1      15.131  52.320  46.183  1.00  0.00     0.010 C 
HETATM   32  C   UNL     1      15.115  52.851  47.615  1.00  0.00     0.015 C 
HETATM   33  C   UNL     1      15.120  53.480  45.176  1.00  0.00     0.015 C 
ENDBRANCH  28  31
ENDBRANCH   7  25
BRANCH  10  34
HETATM   34  C   UNL     1      19.493  46.346  44.833  1.00  0.00     0.293 C 
HETATM   35  O   UNL     1      20.303  45.442  44.927  1.00  0.00    -0.259 OA
BRANCH  34  36
HETATM   36  O   UNL     1      18.830  46.726  43.717  1.00  0.00    -0.323 OA
HETATM   37  C   UNL     1      18.212  45.648  43.004  1.00  0.00     0.213 C 
ENDBRANCH  34  36
ENDBRANCH  10  34
TORSDOF 9
ENDMDL
MODEL 10
REMARK VINA RESULT:      -6.5      9.949     13.552
REMARK  9 active torsions:
REMARK  status: ('A' for Active; 'I' for Inactive)
REMARK    1  A    between atoms: C_6  and  C_7 
REMARK    2  A    between atoms: C_7  and  C_8 
REMARK       I    between atoms: C_8  and  N_9 
REMARK    3  A    between atoms: N_9  and  C_10 
REMARK    4  A    between atoms: C_10  and  C_11 
REMARK    5  A    between atoms: C_11  and  N_12 
REMARK    6  A    between atoms: C_20  and  C_21 
REMARK    7  A    between atoms: C_24  and  C_25 
REMARK    8  A    between atoms: C_32  and  C_33 
REMARK    9  A    between atoms: C_33  and  O_34 
ROOT
HETATM    1  C   UNL     1      26.421  37.797  43.331  1.00  0.00     0.071 C 
HETATM    2  C   UNL     1      26.515  38.154  44.792  1.00  0.00     0.048 C 
HETATM    3  N   UNL     1      25.832  37.270  45.622  1.00  0.00    -0.229 NA
HETATM    4  C   UNL     1      26.123  37.306  46.879  1.00  0.00     0.170 C 
HETATM    5  N   UNL     1      27.149  38.308  47.460  1.00  0.00    -0.319 N 
HETATM    6  C   UNL     1      27.836  37.745  48.393  1.00  0.00     0.011 C 
HETATM    7  C   UNL     1      27.085  39.600  46.740  1.00  0.00     0.166 C 
HETATM    8  S   UNL     1      25.687  36.109  48.038  1.00  0.00    -0.086 SA
HETATM    9  C   UNL     1      27.170  36.527  49.020  1.00  0.00     0.135 C 
HETATM   10  C   UNL     1      27.175  39.237  45.277  1.00  0.00     0.069 C 
ENDROOT
BRANCH   6  11
HETATM   11  C   UNL     1      29.224  38.208  48.740  1.00  0.00     0.156 C 
BRANCH  11  12
HETATM   12  C   UNL     1      29.269  38.567  50.220  1.00  0.00     0.223 C 
HETATM   13  N   UNL     1      28.537  39.653  50.617  1.00  0.00    -0.359 N 
HETATM   14  H   UNL     1      27.819  40.026  50.000  1.00  0.00     0.162 HD
HETATM   15  O   UNL     1      30.061  38.008  50.975  1.00  0.00    -0.273 OA
BRANCH  13  16
HETATM   16  C   UNL     1      28.826  40.458  51.817  1.00  0.00     0.150 C 
BRANCH  16  17
HETATM   17  C   UNL     1      27.750  41.463  52.306  1.00  0.00     0.254 C 
BRANCH  17  18
HETATM   18  N   UNL     1      28.234  42.359  53.427  1.00  0.00    -0.070 N 
HETATM   19  H   UNL     1      27.948  41.885  54.307  1.00  0.00     0.279 HD
HETATM   20  C   UNL     1      29.732  42.541  53.495  1.00  0.00     0.235 C 
HETATM   21  C   UNL     1      30.090  43.248  54.797  1.00  0.00     0.028 C 
HETATM   22  C   UNL     1      29.361  44.581  54.934  1.00  0.00     0.003 C 
HETATM   23  C   UNL     1      27.858  44.420  54.739  1.00  0.00     0.028 C 
HETATM   24  C   UNL     1      27.526  43.696  53.441  1.00  0.00     0.235 C 
ENDBRANCH  17  18
ENDBRANCH  16  17
ENDBRANCH  13  16
ENDBRANCH  11  12
ENDBRANCH   6  11
BRANCH   7  25
HETATM   25  C   UNL     1      25.750  40.267  47.144  1.00  0.00    -0.030 C 
HETATM   26  C   UNL     1      24.899  40.813  46.161  1.00  0.00     0.010 C 
HETATM   27  C   UNL     1      23.931  41.761  46.504  1.00  0.00     0.008 C 
HETATM   28  C   UNL     1      23.752  42.151  47.836  1.00  0.00    -0.055 C 
HETATM   29  C   UNL     1      24.458  41.463  48.828  1.00  0.00     0.008 C 
HETATM   30  C   UNL     1      25.431  40.522  48.489  1.00  0.00     0.010 C 
BRANCH  28  31
HETATM   31  C   UNL     1      22.878  43.348  48.174  1.00  0.00     0.010 C 
HETATM   32  C   UNL     1      23.684  44.585  48.564  1.00  0.00     0.015 C 
HETATM   33  C   UNL     1      21.939  43.661  47.000  1.00  0.00     0.015 C 
ENDBRANCH  28  31
ENDBRANCH   7  25
BRANCH  10  34
HETATM   34  C   UNL     1      28.042  40.149  44.506  1.00  0.00     0.293 C 
HETATM   35  O   UNL     1      27.914  41.359  44.559  1.00  0.00    -0.259 OA
BRANCH  34  36
HETATM   36  O   UNL     1      29.081  39.467  43.974  1.00  0.00    -0.323 OA
HETATM   37  C   UNL     1      29.757  40.157  42.915  1.00  0.00     0.213 C 
ENDBRANCH  34  36
ENDBRANCH  10  34
TORSDOF 9
ENDMDL
