MODEL 1
REMARK VINA RESULT:     -10.4      0.000      0.000
REMARK  3 active torsions:
REMARK  status: ('A' for Active; 'I' for Inactive)
REMARK    1  A    between atoms: N_12  and  C_13 
REMARK    2  A    between atoms: C_13  and  C_14 
REMARK       I    between atoms: C_14  and  N_15 
REMARK    3  A    between atoms: N_15  and  C_16 
ROOT
HETATM    1  C   UNL     1      30.376  44.983  57.022  1.00  0.00     0.048 C 
HETATM    2  C   UNL     1      29.885  44.528  55.679  1.00  0.00    -0.061 A 
HETATM    3  C   UNL     1      28.780  45.153  55.075  1.00  0.00     0.021 A 
HETATM    4  C   UNL     1      28.329  44.710  53.814  1.00  0.00     0.005 A 
HETATM    5  C   UNL     1      28.991  43.642  53.198  1.00  0.00     0.044 A 
HETATM    6  N   UNL     1      28.372  43.412  51.986  1.00  0.00    -0.350 N 
HETATM    7  H   UNL     1      28.641  42.707  51.312  1.00  0.00     0.166 HD
HETATM    8  C   UNL     1      27.352  44.304  51.820  1.00  0.00     0.116 A 
HETATM    9  C   UNL     1      27.294  45.108  52.930  1.00  0.00     0.028 A 
HETATM   10  C   UNL     1      26.472  44.446  50.697  1.00  0.00     0.291 A 
HETATM   11  O   UNL     1      26.538  43.727  49.706  1.00  0.00    -0.264 OA
HETATM   12  N   UNL     1      25.533  45.483  50.866  1.00  0.00    -0.224 N 
HETATM   13  N   UNL     1      25.466  46.319  52.001  1.00  0.00    -0.180 NA
HETATM   14  C   UNL     1      26.300  46.140  52.986  1.00  0.00     0.153 A 
HETATM   15  C   UNL     1      30.081  42.994  53.787  1.00  0.00     0.031 A 
HETATM   16  C   UNL     1      30.513  43.455  55.037  1.00  0.00     0.009 A 
ENDROOT
BRANCH  12  17
HETATM   17  C   UNL     1      24.692  45.863  49.743  1.00  0.00     0.258 C 
BRANCH  17  18
HETATM   18  C   UNL     1      23.824  47.137  49.648  1.00  0.00     0.244 C 
HETATM   19  N   UNL     1      22.661  47.217  48.874  1.00  0.00    -0.321 N 
HETATM   20  C   UNL     1      22.165  46.113  48.061  1.00  0.00     0.159 C 
HETATM   21  O   UNL     1      24.259  48.106  50.294  1.00  0.00    -0.271 OA
BRANCH  19  22
HETATM   22  C   UNL     1      21.918  48.454  48.792  1.00  0.00     0.037 A 
HETATM   23  C   UNL     1      20.681  48.614  49.433  1.00  0.00     0.037 A 
HETATM   24  C   UNL     1      19.945  49.814  49.354  1.00  0.00    -0.054 A 
HETATM   25  C   UNL     1      18.628  49.908  50.072  1.00  0.00     0.049 C 
HETATM   26  C   UNL     1      20.447  50.881  48.590  1.00  0.00    -0.056 A 
HETATM   27  C   UNL     1      19.727  52.198  48.492  1.00  0.00     0.049 C 
HETATM   28  C   UNL     1      21.687  50.733  47.955  1.00  0.00     0.009 A 
HETATM   29  C   UNL     1      22.406  49.536  48.049  1.00  0.00     0.030 A 
ENDBRANCH  19  22
ENDBRANCH  17  18
ENDBRANCH  12  17
TORSDOF 3
ENDMDL
MODEL 2
REMARK VINA RESULT:     -10.3      1.321      1.876
REMARK  3 active torsions:
REMARK  status: ('A' for Active; 'I' for Inactive)
REMARK    1  A    between atoms: N_12  and  C_13 
REMARK    2  A    between atoms: C_13  and  C_14 
REMARK       I    between atoms: C_14  and  N_15 
REMARK    3  A    between atoms: N_15  and  C_16 
ROOT
HETATM    1  C   UNL     1      30.421  45.970  58.199  1.00  0.00     0.048 C 
HETATM    2  C   UNL     1      30.135  45.238  56.921  1.00  0.00    -0.061 A 
HETATM    3  C   UNL     1      29.099  45.663  56.072  1.00  0.00     0.021 A 
HETATM    4  C   UNL     1      28.842  44.962  54.875  1.00  0.00     0.005 A 
HETATM    5  C   UNL     1      29.625  43.844  54.569  1.00  0.00     0.044 A 
HETATM    6  N   UNL     1      29.187  43.349  53.357  1.00  0.00    -0.350 N 
HETATM    7  H   UNL     1      29.573  42.549  52.873  1.00  0.00     0.166 HD
HETATM    8  C   UNL     1      28.163  44.124  52.892  1.00  0.00     0.116 A 
HETATM    9  C   UNL     1      27.923  45.117  53.807  1.00  0.00     0.028 A 
HETATM   10  C   UNL     1      27.440  43.994  51.662  1.00  0.00     0.291 A 
HETATM   11  O   UNL     1      27.669  43.107  50.846  1.00  0.00    -0.264 OA
HETATM   12  N   UNL     1      26.445  44.979  51.505  1.00  0.00    -0.224 N 
HETATM   13  N   UNL     1      26.190  46.008  52.437  1.00  0.00    -0.180 NA
HETATM   14  C   UNL     1      26.889  46.073  53.535  1.00  0.00     0.153 A 
HETATM   15  C   UNL     1      30.650  43.392  55.406  1.00  0.00     0.031 A 
HETATM   16  C   UNL     1      30.888  44.107  56.585  1.00  0.00     0.009 A 
ENDROOT
BRANCH  12  17
HETATM   17  C   UNL     1      25.750  45.085  50.233  1.00  0.00     0.258 C 
BRANCH  17  18
HETATM   18  C   UNL     1      24.701  46.154  49.856  1.00  0.00     0.244 C 
HETATM   19  N   UNL     1      25.034  47.470  49.519  1.00  0.00    -0.321 N 
HETATM   20  C   UNL     1      26.404  47.970  49.511  1.00  0.00     0.159 C 
HETATM   21  O   UNL     1      23.523  45.759  49.907  1.00  0.00    -0.271 OA
BRANCH  19  22
HETATM   22  C   UNL     1      24.001  48.435  49.219  1.00  0.00     0.037 A 
HETATM   23  C   UNL     1      22.641  48.097  49.268  1.00  0.00     0.037 A 
HETATM   24  C   UNL     1      21.625  49.028  48.971  1.00  0.00    -0.054 A 
HETATM   25  C   UNL     1      20.189  48.588  49.049  1.00  0.00     0.049 C 
HETATM   26  C   UNL     1      21.977  50.333  48.589  1.00  0.00    -0.056 A 
HETATM   27  C   UNL     1      20.942  51.382  48.291  1.00  0.00     0.049 C 
HETATM   28  C   UNL     1      23.333  50.682  48.547  1.00  0.00     0.009 A 
HETATM   29  C   UNL     1      24.328  49.745  48.851  1.00  0.00     0.030 A 
ENDBRANCH  19  22
ENDBRANCH  17  18
ENDBRANCH  12  17
TORSDOF 3
ENDMDL
MODEL 3
REMARK VINA RESULT:     -10.3      1.157      1.445
REMARK  3 active torsions:
REMARK  status: ('A' for Active; 'I' for Inactive)
REMARK    1  A    between atoms: N_12  and  C_13 
REMARK    2  A    between atoms: C_13  and  C_14 
REMARK       I    between atoms: C_14  and  N_15 
REMARK    3  A    between atoms: N_15  and  C_16 
ROOT
HETATM    1  C   UNL     1      29.551  45.839  57.046  1.00  0.00     0.048 C 
HETATM    2  C   UNL     1      29.049  45.313  55.733  1.00  0.00    -0.061 A 
HETATM    3  C   UNL     1      28.048  46.001  55.026  1.00  0.00     0.021 A 
HETATM    4  C   UNL     1      27.584  45.491  53.795  1.00  0.00     0.005 A 
HETATM    5  C   UNL     1      28.129  44.296  53.313  1.00  0.00     0.044 A 
HETATM    6  N   UNL     1      27.524  44.022  52.104  1.00  0.00    -0.350 N 
HETATM    7  H   UNL     1      27.725  43.226  51.512  1.00  0.00     0.166 HD
HETATM    8  C   UNL     1      26.625  45.007  51.810  1.00  0.00     0.116 A 
HETATM    9  C   UNL     1      26.633  45.919  52.835  1.00  0.00     0.028 A 
HETATM   10  C   UNL     1      25.804  45.140  50.643  1.00  0.00     0.291 A 
HETATM   11  O   UNL     1      25.812  44.323  49.728  1.00  0.00    -0.264 OA
HETATM   12  N   UNL     1      24.994  46.292  50.673  1.00  0.00    -0.224 N 
HETATM   13  N   UNL     1      24.995  47.239  51.719  1.00  0.00    -0.180 NA
HETATM   14  C   UNL     1      25.770  47.062  52.750  1.00  0.00     0.153 A 
HETATM   15  C   UNL     1      29.114  43.586  54.007  1.00  0.00     0.031 A 
HETATM   16  C   UNL     1      29.561  44.115  55.224  1.00  0.00     0.009 A 
ENDROOT
BRANCH  12  17
HETATM   17  C   UNL     1      24.240  46.655  49.484  1.00  0.00     0.258 C 
BRANCH  17  18
HETATM   18  C   UNL     1      23.327  47.891  49.330  1.00  0.00     0.244 C 
HETATM   19  N   UNL     1      21.998  47.814  48.895  1.00  0.00    -0.321 N 
HETATM   20  C   UNL     1      21.351  46.562  48.523  1.00  0.00     0.159 C 
HETATM   21  O   UNL     1      23.877  48.974  49.594  1.00  0.00    -0.271 OA
BRANCH  19  22
HETATM   22  C   UNL     1      21.211  49.014  48.729  1.00  0.00     0.037 A 
HETATM   23  C   UNL     1      20.464  49.250  47.565  1.00  0.00     0.037 A 
HETATM   24  C   UNL     1      19.698  50.421  47.390  1.00  0.00    -0.054 A 
HETATM   25  C   UNL     1      18.922  50.598  46.114  1.00  0.00     0.049 C 
HETATM   26  C   UNL     1      19.695  51.400  48.398  1.00  0.00    -0.056 A 
HETATM   27  C   UNL     1      18.874  52.654  48.287  1.00  0.00     0.049 C 
HETATM   28  C   UNL     1      20.430  51.167  49.567  1.00  0.00     0.009 A 
HETATM   29  C   UNL     1      21.180  49.996  49.726  1.00  0.00     0.030 A 
ENDBRANCH  19  22
ENDBRANCH  17  18
ENDBRANCH  12  17
TORSDOF 3
ENDMDL
MODEL 4
REMARK VINA RESULT:     -10.1      1.399      9.454
REMARK  3 active torsions:
REMARK  status: ('A' for Active; 'I' for Inactive)
REMARK    1  A    between atoms: N_12  and  C_13 
REMARK    2  A    between atoms: C_13  and  C_14 
REMARK       I    between atoms: C_14  and  N_15 
REMARK    3  A    between atoms: N_15  and  C_16 
ROOT
HETATM    1  C   UNL     1      18.788  50.426  47.797  1.00  0.00     0.048 C 
HETATM    2  C   UNL     1      20.210  50.166  48.201  1.00  0.00    -0.061 A 
HETATM    3  C   UNL     1      20.676  48.849  48.360  1.00  0.00     0.021 A 
HETATM    4  C   UNL     1      22.014  48.622  48.743  1.00  0.00     0.005 A 
HETATM    5  C   UNL     1      22.846  49.723  48.969  1.00  0.00     0.044 A 
HETATM    6  N   UNL     1      24.091  49.239  49.317  1.00  0.00    -0.350 N 
HETATM    7  H   UNL     1      24.905  49.803  49.527  1.00  0.00     0.166 HD
HETATM    8  C   UNL     1      24.068  47.874  49.308  1.00  0.00     0.116 A 
HETATM    9  C   UNL     1      22.803  47.465  48.968  1.00  0.00     0.028 A 
HETATM   10  C   UNL     1      25.145  46.966  49.573  1.00  0.00     0.291 A 
HETATM   11  O   UNL     1      26.274  47.343  49.867  1.00  0.00    -0.264 OA
HETATM   12  N   UNL     1      24.760  45.615  49.469  1.00  0.00    -0.224 N 
HETATM   13  N   UNL     1      23.463  45.182  49.116  1.00  0.00    -0.180 NA
HETATM   14  C   UNL     1      22.530  46.060  48.882  1.00  0.00     0.153 A 
HETATM   15  C   UNL     1      22.401  51.042  48.833  1.00  0.00     0.031 A 
HETATM   16  C   UNL     1      21.070  51.241  48.447  1.00  0.00     0.009 A 
ENDROOT
BRANCH  12  17
HETATM   17  C   UNL     1      25.781  44.583  49.535  1.00  0.00     0.258 C 
BRANCH  17  18
HETATM   18  C   UNL     1      26.844  44.426  50.645  1.00  0.00     0.244 C 
HETATM   19  N   UNL     1      26.522  44.186  51.986  1.00  0.00    -0.321 N 
HETATM   20  C   UNL     1      25.152  44.084  52.473  1.00  0.00     0.159 C 
HETATM   21  O   UNL     1      28.017  44.562  50.258  1.00  0.00    -0.271 OA
BRANCH  19  22
HETATM   22  C   UNL     1      27.562  44.094  52.984  1.00  0.00     0.037 A 
HETATM   23  C   UNL     1      27.745  45.092  53.953  1.00  0.00     0.037 A 
HETATM   24  C   UNL     1      28.761  45.015  54.927  1.00  0.00    -0.054 A 
HETATM   25  C   UNL     1      28.889  46.125  55.934  1.00  0.00     0.049 C 
HETATM   26  C   UNL     1      29.641  43.919  54.921  1.00  0.00    -0.056 A 
HETATM   27  C   UNL     1      30.724  43.762  55.951  1.00  0.00     0.049 C 
HETATM   28  C   UNL     1      29.459  42.914  53.963  1.00  0.00     0.009 A 
HETATM   29  C   UNL     1      28.441  43.004  53.007  1.00  0.00     0.030 A 
ENDBRANCH  19  22
ENDBRANCH  17  18
ENDBRANCH  12  17
TORSDOF 3
ENDMDL
MODEL 5
REMARK VINA RESULT:     -10.0      3.790      5.478
REMARK  3 active torsions:
REMARK  status: ('A' for Active; 'I' for Inactive)
REMARK    1  A    between atoms: N_12  and  C_13 
REMARK    2  A    between atoms: C_13  and  C_14 
REMARK       I    between atoms: C_14  and  N_15 
REMARK    3  A    between atoms: N_15  and  C_16 
ROOT
HETATM    1  C   UNL     1      32.472  43.036  57.415  1.00  0.00     0.048 C 
HETATM    2  C   UNL     1      31.334  43.992  57.204  1.00  0.00    -0.061 A 
HETATM    3  C   UNL     1      30.569  43.940  56.026  1.00  0.00     0.021 A 
HETATM    4  C   UNL     1      29.505  44.848  55.842  1.00  0.00     0.005 A 
HETATM    5  C   UNL     1      29.246  45.792  56.841  1.00  0.00     0.044 A 
HETATM    6  N   UNL     1      28.164  46.544  56.430  1.00  0.00    -0.350 N 
HETATM    7  H   UNL     1      27.738  47.298  56.954  1.00  0.00     0.166 HD
HETATM    8  C   UNL     1      27.734  46.098  55.214  1.00  0.00     0.116 A 
HETATM    9  C   UNL     1      28.544  45.062  54.822  1.00  0.00     0.028 A 
HETATM   10  C   UNL     1      26.622  46.566  54.439  1.00  0.00     0.291 A 
HETATM   11  O   UNL     1      25.899  47.486  54.803  1.00  0.00    -0.264 OA
HETATM   12  N   UNL     1      26.468  45.864  53.227  1.00  0.00    -0.224 N 
HETATM   13  N   UNL     1      27.292  44.796  52.814  1.00  0.00    -0.180 NA
HETATM   14  C   UNL     1      28.282  44.415  53.569  1.00  0.00     0.153 A 
HETATM   15  C   UNL     1      30.003  45.874  58.014  1.00  0.00     0.031 A 
HETATM   16  C   UNL     1      31.051  44.959  58.174  1.00  0.00     0.009 A 
ENDROOT
BRANCH  12  17
HETATM   17  C   UNL     1      25.283  46.106  52.419  1.00  0.00     0.258 C 
BRANCH  17  18
HETATM   18  C   UNL     1      24.698  45.149  51.356  1.00  0.00     0.244 C 
HETATM   19  N   UNL     1      25.147  45.109  50.031  1.00  0.00    -0.321 N 
HETATM   20  C   UNL     1      26.196  45.981  49.515  1.00  0.00     0.159 C 
HETATM   21  O   UNL     1      23.768  44.433  51.764  1.00  0.00    -0.271 OA
BRANCH  19  22
HETATM   22  C   UNL     1      24.527  44.222  49.074  1.00  0.00     0.037 A 
HETATM   23  C   UNL     1      24.950  42.894  48.917  1.00  0.00     0.037 A 
HETATM   24  C   UNL     1      24.357  42.023  47.981  1.00  0.00    -0.054 A 
HETATM   25  C   UNL     1      24.866  40.612  47.876  1.00  0.00     0.049 C 
HETATM   26  C   UNL     1      23.323  42.498  47.156  1.00  0.00    -0.056 A 
HETATM   27  C   UNL     1      22.627  41.610  46.162  1.00  0.00     0.049 C 
HETATM   28  C   UNL     1      22.887  43.819  47.313  1.00  0.00     0.009 A 
HETATM   29  C   UNL     1      23.485  44.669  48.252  1.00  0.00     0.030 A 
ENDBRANCH  19  22
ENDBRANCH  17  18
ENDBRANCH  12  17
TORSDOF 3
ENDMDL
MODEL 6
REMARK VINA RESULT:     -10.0      1.713     10.040
REMARK  3 active torsions:
REMARK  status: ('A' for Active; 'I' for Inactive)
REMARK    1  A    between atoms: N_12  and  C_13 
REMARK    2  A    between atoms: C_13  and  C_14 
REMARK       I    between atoms: C_14  and  N_15 
REMARK    3  A    between atoms: N_15  and  C_16 
ROOT
HETATM    1  C   UNL     1      16.009  50.579  47.853  1.00  0.00     0.048 C 
HETATM    2  C   UNL     1      17.469  50.810  48.112  1.00  0.00    -0.061 A 
HETATM    3  C   UNL     1      18.338  49.723  48.312  1.00  0.00     0.021 A 
HETATM    4  C   UNL     1      19.707  49.957  48.557  1.00  0.00     0.005 A 
HETATM    5  C   UNL     1      20.166  51.277  48.607  1.00  0.00     0.044 A 
HETATM    6  N   UNL     1      21.525  51.236  48.846  1.00  0.00    -0.350 N 
HETATM    7  H   UNL     1      22.134  52.040  48.921  1.00  0.00     0.166 HD
HETATM    8  C   UNL     1      21.932  49.936  48.939  1.00  0.00     0.116 A 
HETATM    9  C   UNL     1      20.836  49.127  48.775  1.00  0.00     0.028 A 
HETATM   10  C   UNL     1      23.258  49.434  49.146  1.00  0.00     0.291 A 
HETATM   11  O   UNL     1      24.232  50.167  49.282  1.00  0.00    -0.264 OA
HETATM   12  N   UNL     1      23.310  48.027  49.184  1.00  0.00    -0.224 N 
HETATM   13  N   UNL     1      22.192  47.184  49.013  1.00  0.00    -0.180 NA
HETATM   14  C   UNL     1      21.013  47.705  48.823  1.00  0.00     0.153 A 
HETATM   15  C   UNL     1      19.318  52.375  48.427  1.00  0.00     0.031 A 
HETATM   16  C   UNL     1      17.965  52.116  48.181  1.00  0.00     0.009 A 
ENDROOT
BRANCH  12  17
HETATM   17  C   UNL     1      24.607  47.369  49.209  1.00  0.00     0.258 C 
BRANCH  17  18
HETATM   18  C   UNL     1      25.507  47.182  50.451  1.00  0.00     0.244 C 
HETATM   19  N   UNL     1      25.356  46.124  51.354  1.00  0.00    -0.321 N 
HETATM   20  C   UNL     1      24.320  45.106  51.227  1.00  0.00     0.159 C 
HETATM   21  O   UNL     1      26.364  48.069  50.604  1.00  0.00    -0.271 OA
BRANCH  19  22
HETATM   22  C   UNL     1      26.202  46.031  52.522  1.00  0.00     0.037 A 
HETATM   23  C   UNL     1      27.056  44.937  52.727  1.00  0.00     0.037 A 
HETATM   24  C   UNL     1      27.881  44.833  53.866  1.00  0.00    -0.054 A 
HETATM   25  C   UNL     1      28.771  43.630  54.012  1.00  0.00     0.049 C 
HETATM   26  C   UNL     1      27.835  45.840  54.845  1.00  0.00    -0.056 A 
HETATM   27  C   UNL     1      28.713  45.805  56.065  1.00  0.00     0.049 C 
HETATM   28  C   UNL     1      26.993  46.941  54.642  1.00  0.00     0.009 A 
HETATM   29  C   UNL     1      26.185  47.030  53.502  1.00  0.00     0.030 A 
ENDBRANCH  19  22
ENDBRANCH  17  18
ENDBRANCH  12  17
TORSDOF 3
ENDMDL
MODEL 7
REMARK VINA RESULT:      -9.9      1.930      3.270
REMARK  3 active torsions:
REMARK  status: ('A' for Active; 'I' for Inactive)
REMARK    1  A    between atoms: N_12  and  C_13 
REMARK    2  A    between atoms: C_13  and  C_14 
REMARK       I    between atoms: C_14  and  N_15 
REMARK    3  A    between atoms: N_15  and  C_16 
ROOT
HETATM    1  C   UNL     1      32.396  43.381  57.107  1.00  0.00     0.048 C 
HETATM    2  C   UNL     1      31.129  43.973  56.564  1.00  0.00    -0.061 A 
HETATM    3  C   UNL     1      30.490  43.395  55.454  1.00  0.00     0.021 A 
HETATM    4  C   UNL     1      29.301  43.966  54.954  1.00  0.00     0.005 A 
HETATM    5  C   UNL     1      28.792  45.111  55.575  1.00  0.00     0.044 A 
HETATM    6  N   UNL     1      27.632  45.462  54.913  1.00  0.00    -0.350 N 
HETATM    7  H   UNL     1      27.035  46.244  55.146  1.00  0.00     0.166 HD
HETATM    8  C   UNL     1      27.396  44.571  53.906  1.00  0.00     0.116 A 
HETATM    9  C   UNL     1      28.409  43.646  53.899  1.00  0.00     0.028 A 
HETATM   10  C   UNL     1      26.291  44.536  52.993  1.00  0.00     0.291 A 
HETATM   11  O   UNL     1      25.385  45.363  53.014  1.00  0.00    -0.264 OA
HETATM   12  N   UNL     1      26.369  43.465  52.081  1.00  0.00    -0.224 N 
HETATM   13  N   UNL     1      27.404  42.505  52.066  1.00  0.00    -0.180 NA
HETATM   14  C   UNL     1      28.377  42.592  52.927  1.00  0.00     0.153 A 
HETATM   15  C   UNL     1      29.418  45.714  56.670  1.00  0.00     0.031 A 
HETATM   16  C   UNL     1      30.594  45.125  57.151  1.00  0.00     0.009 A 
ENDROOT
BRANCH  12  17
HETATM   17  C   UNL     1      25.236  43.194  51.212  1.00  0.00     0.258 C 
BRANCH  17  18
HETATM   18  C   UNL     1      24.301  44.251  50.581  1.00  0.00     0.244 C 
HETATM   19  N   UNL     1      24.766  45.321  49.808  1.00  0.00    -0.321 N 
HETATM   20  C   UNL     1      26.179  45.558  49.539  1.00  0.00     0.159 C 
HETATM   21  O   UNL     1      23.096  44.094  50.842  1.00  0.00    -0.271 OA
BRANCH  19  22
HETATM   22  C   UNL     1      23.843  46.301  49.283  1.00  0.00     0.037 A 
HETATM   23  C   UNL     1      22.878  45.965  48.321  1.00  0.00     0.037 A 
HETATM   24  C   UNL     1      21.978  46.914  47.798  1.00  0.00    -0.054 A 
HETATM   25  C   UNL     1      20.971  46.474  46.771  1.00  0.00     0.049 C 
HETATM   26  C   UNL     1      22.057  48.249  48.229  1.00  0.00    -0.056 A 
HETATM   27  C   UNL     1      21.105  49.303  47.734  1.00  0.00     0.049 C 
HETATM   28  C   UNL     1      23.010  48.591  49.196  1.00  0.00     0.009 A 
HETATM   29  C   UNL     1      23.892  47.633  49.709  1.00  0.00     0.030 A 
ENDBRANCH  19  22
ENDBRANCH  17  18
ENDBRANCH  12  17
TORSDOF 3
ENDMDL
MODEL 8
REMARK VINA RESULT:      -9.6      6.013      8.843
REMARK  3 active torsions:
REMARK  status: ('A' for Active; 'I' for Inactive)
REMARK    1  A    between atoms: N_12  and  C_13 
REMARK    2  A    between atoms: C_13  and  C_14 
REMARK       I    between atoms: C_14  and  N_15 
REMARK    3  A    between atoms: N_15  and  C_16 
ROOT
HETATM    1  C   UNL     1      31.837  43.697  57.435  1.00  0.00     0.048 C 
HETATM    2  C   UNL     1      30.801  44.038  56.404  1.00  0.00    -0.061 A 
HETATM    3  C   UNL     1      30.521  43.146  55.355  1.00  0.00     0.021 A 
HETATM    4  C   UNL     1      29.546  43.483  54.392  1.00  0.00     0.005 A 
HETATM    5  C   UNL     1      28.888  44.713  54.502  1.00  0.00     0.044 A 
HETATM    6  N   UNL     1      27.988  44.797  53.459  1.00  0.00    -0.350 N 
HETATM    7  H   UNL     1      27.359  45.570  53.285  1.00  0.00     0.166 HD
HETATM    8  C   UNL     1      28.055  43.660  52.706  1.00  0.00     0.116 A 
HETATM    9  C   UNL     1      29.010  42.838  53.249  1.00  0.00     0.028 A 
HETATM   10  C   UNL     1      27.277  43.311  51.554  1.00  0.00     0.291 A 
HETATM   11  O   UNL     1      26.419  44.050  51.083  1.00  0.00    -0.264 OA
HETATM   12  N   UNL     1      27.613  42.047  51.030  1.00  0.00    -0.224 N 
HETATM   13  N   UNL     1      28.590  41.191  51.581  1.00  0.00    -0.180 NA
HETATM   14  C   UNL     1      29.259  41.566  52.634  1.00  0.00     0.153 A 
HETATM   15  C   UNL     1      29.163  45.623  55.527  1.00  0.00     0.031 A 
HETATM   16  C   UNL     1      30.130  45.263  56.473  1.00  0.00     0.009 A 
ENDROOT
BRANCH  12  17
HETATM   17  C   UNL     1      26.791  41.481  49.973  1.00  0.00     0.258 C 
BRANCH  17  18
HETATM   18  C   UNL     1      27.308  40.784  48.695  1.00  0.00     0.244 C 
HETATM   19  N   UNL     1      27.247  39.400  48.498  1.00  0.00    -0.321 N 
HETATM   20  C   UNL     1      26.712  38.475  49.489  1.00  0.00     0.159 C 
HETATM   21  O   UNL     1      27.815  41.552  47.859  1.00  0.00    -0.271 OA
BRANCH  19  22
HETATM   22  C   UNL     1      27.789  38.806  47.298  1.00  0.00     0.037 A 
HETATM   23  C   UNL     1      27.486  39.309  46.024  1.00  0.00     0.037 A 
HETATM   24  C   UNL     1      28.003  38.732  44.847  1.00  0.00    -0.054 A 
HETATM   25  C   UNL     1      27.632  39.333  43.519  1.00  0.00     0.049 C 
HETATM   26  C   UNL     1      28.832  37.602  44.940  1.00  0.00    -0.056 A 
HETATM   27  C   UNL     1      29.443  36.960  43.725  1.00  0.00     0.049 C 
HETATM   28  C   UNL     1      29.149  37.099  46.208  1.00  0.00     0.009 A 
HETATM   29  C   UNL     1      28.630  37.688  47.367  1.00  0.00     0.030 A 
ENDBRANCH  19  22
ENDBRANCH  17  18
ENDBRANCH  12  17
TORSDOF 3
ENDMDL
MODEL 9
REMARK VINA RESULT:      -9.6      6.010      7.390
REMARK  3 active torsions:
REMARK  status: ('A' for Active; 'I' for Inactive)
REMARK    1  A    between atoms: N_12  and  C_13 
REMARK    2  A    between atoms: C_13  and  C_14 
REMARK       I    between atoms: C_14  and  N_15 
REMARK    3  A    between atoms: N_15  and  C_16 
ROOT
HETATM    1  C   UNL     1      32.136  43.655  57.271  1.00  0.00     0.048 C 
HETATM    2  C   UNL     1      30.976  43.973  56.374  1.00  0.00    -0.061 A 
HETATM    3  C   UNL     1      30.570  43.062  55.384  1.00  0.00     0.021 A 
HETATM    4  C   UNL     1      29.479  43.377  54.547  1.00  0.00     0.005 A 
HETATM    5  C   UNL     1      28.832  44.606  54.719  1.00  0.00     0.044 A 
HETATM    6  N   UNL     1      27.806  44.667  53.798  1.00  0.00    -0.350 N 
HETATM    7  H   UNL     1      27.154  45.434  53.692  1.00  0.00     0.166 HD
HETATM    8  C   UNL     1      27.784  43.518  53.062  1.00  0.00     0.116 A 
HETATM    9  C   UNL     1      28.806  42.709  53.493  1.00  0.00     0.028 A 
HETATM   10  C   UNL     1      26.868  43.145  52.024  1.00  0.00     0.291 A 
HETATM   11  O   UNL     1      25.953  43.871  51.654  1.00  0.00    -0.264 OA
HETATM   12  N   UNL     1      27.144  41.873  51.483  1.00  0.00    -0.224 N 
HETATM   13  N   UNL     1      28.189  41.031  51.920  1.00  0.00    -0.180 NA
HETATM   14  C   UNL     1      28.983  41.428  52.872  1.00  0.00     0.153 A 
HETATM   15  C   UNL     1      29.228  45.535  55.686  1.00  0.00     0.031 A 
HETATM   16  C   UNL     1      30.310  45.197  56.507  1.00  0.00     0.009 A 
ENDROOT
BRANCH  12  17
HETATM   17  C   UNL     1      26.198  41.285  50.549  1.00  0.00     0.258 C 
BRANCH  17  18
HETATM   18  C   UNL     1      26.207  41.462  49.014  1.00  0.00     0.244 C 
HETATM   19  N   UNL     1      26.416  40.405  48.122  1.00  0.00    -0.321 N 
HETATM   20  C   UNL     1      26.668  39.034  48.551  1.00  0.00     0.159 C 
HETATM   21  O   UNL     1      26.045  42.633  48.630  1.00  0.00    -0.271 OA
BRANCH  19  22
HETATM   22  C   UNL     1      26.457  40.645  46.697  1.00  0.00     0.037 A 
HETATM   23  C   UNL     1      27.667  40.662  45.987  1.00  0.00     0.037 A 
HETATM   24  C   UNL     1      27.719  40.902  44.600  1.00  0.00    -0.054 A 
HETATM   25  C   UNL     1      29.055  40.901  43.911  1.00  0.00     0.049 C 
HETATM   26  C   UNL     1      26.528  41.158  43.899  1.00  0.00    -0.056 A 
HETATM   27  C   UNL     1      26.512  41.389  42.414  1.00  0.00     0.049 C 
HETATM   28  C   UNL     1      25.314  41.133  44.599  1.00  0.00     0.009 A 
HETATM   29  C   UNL     1      25.281  40.887  45.976  1.00  0.00     0.030 A 
ENDBRANCH  19  22
ENDBRANCH  17  18
ENDBRANCH  12  17
TORSDOF 3
ENDMDL
MODEL 10
REMARK VINA RESULT:      -9.1      1.923      9.996
REMARK  3 active torsions:
REMARK  status: ('A' for Active; 'I' for Inactive)
REMARK    1  A    between atoms: N_12  and  C_13 
REMARK    2  A    between atoms: C_13  and  C_14 
REMARK       I    between atoms: C_14  and  N_15 
REMARK    3  A    between atoms: N_15  and  C_16 
ROOT
HETATM    1  C   UNL     1      17.152  48.175  46.800  1.00  0.00     0.048 C 
HETATM    2  C   UNL     1      18.472  48.810  47.127  1.00  0.00    -0.061 A 
HETATM    3  C   UNL     1      19.526  48.036  47.643  1.00  0.00     0.021 A 
HETATM    4  C   UNL     1      20.760  48.649  47.948  1.00  0.00     0.005 A 
HETATM    5  C   UNL     1      20.897  50.026  47.739  1.00  0.00     0.044 A 
HETATM    6  N   UNL     1      22.183  50.374  48.100  1.00  0.00    -0.350 N 
HETATM    7  H   UNL     1      22.579  51.303  48.045  1.00  0.00     0.166 HD
HETATM    8  C   UNL     1      22.856  49.262  48.519  1.00  0.00     0.116 A 
HETATM    9  C   UNL     1      22.005  48.188  48.446  1.00  0.00     0.028 A 
HETATM   10  C   UNL     1      24.219  49.159  48.949  1.00  0.00     0.291 A 
HETATM   11  O   UNL     1      24.974  50.124  49.002  1.00  0.00    -0.264 OA
HETATM   12  N   UNL     1      24.582  47.845  49.307  1.00  0.00    -0.224 N 
HETATM   13  N   UNL     1      23.717  46.732  49.233  1.00  0.00    -0.180 NA
HETATM   14  C   UNL     1      22.490  46.894  48.828  1.00  0.00     0.153 A 
HETATM   15  C   UNL     1      19.858  50.818  47.243  1.00  0.00     0.031 A 
HETATM   16  C   UNL     1      18.645  50.186  46.944  1.00  0.00     0.009 A 
ENDROOT
BRANCH  12  17
HETATM   17  C   UNL     1      25.976  47.552  49.594  1.00  0.00     0.258 C 
BRANCH  17  18
HETATM   18  C   UNL     1      26.529  46.221  50.151  1.00  0.00     0.244 C 
HETATM   19  N   UNL     1      26.291  45.779  51.457  1.00  0.00    -0.321 N 
HETATM   20  C   UNL     1      25.517  46.541  52.430  1.00  0.00     0.159 C 
HETATM   21  O   UNL     1      27.234  45.582  49.352  1.00  0.00    -0.271 OA
BRANCH  19  22
HETATM   22  C   UNL     1      26.874  44.545  51.931  1.00  0.00     0.037 A 
HETATM   23  C   UNL     1      27.901  44.534  52.886  1.00  0.00     0.037 A 
HETATM   24  C   UNL     1      28.482  43.337  53.350  1.00  0.00    -0.054 A 
HETATM   25  C   UNL     1      29.577  43.410  54.378  1.00  0.00     0.049 C 
HETATM   26  C   UNL     1      28.041  42.109  52.827  1.00  0.00    -0.056 A 
HETATM   27  C   UNL     1      28.597  40.796  53.303  1.00  0.00     0.049 C 
HETATM   28  C   UNL     1      27.009  42.110  51.880  1.00  0.00     0.009 A 
HETATM   29  C   UNL     1      26.440  43.309  51.435  1.00  0.00     0.030 A 
ENDBRANCH  19  22
ENDBRANCH  17  18
ENDBRANCH  12  17
TORSDOF 3
ENDMDL
