MODEL 1
REMARK VINA RESULT:      -9.5      0.000      0.000
REMARK  4 active torsions:
REMARK  status: ('A' for Active; 'I' for Inactive)
REMARK    1  A    between atoms: C_9  and  N_10 
REMARK       I    between atoms: N_10  and  C_11 
REMARK    2  A    between atoms: C_11  and  C_12 
REMARK    3  A    between atoms: C_14  and  C_15 
REMARK    4  A    between atoms: C_22  and  O_23 
ROOT
HETATM    1  N   UNL     1      26.209  46.798  51.253  1.00  0.00    -0.322 N 
HETATM    2  C   UNL     1      26.172  46.890  52.639  1.00  0.00     0.265 C 
HETATM    3  O   UNL     1      25.407  47.631  53.252  1.00  0.00    -0.267 OA
HETATM    4  H   UNL     1      26.772  46.040  50.885  1.00  0.00     0.169 HD
ENDROOT
BRANCH   2   5
HETATM    5  C   UNL     1      27.112  46.004  53.310  1.00  0.00     0.107 A 
HETATM    6  S   UNL     1      28.161  46.624  54.515  1.00  0.00    -0.081 SA
HETATM    7  C   UNL     1      28.765  45.070  54.900  1.00  0.00     0.018 A 
HETATM    8  C   UNL     1      28.216  44.105  54.076  1.00  0.00     0.058 A 
HETATM    9  C   UNL     1      27.268  44.641  53.152  1.00  0.00     0.092 A 
BRANCH   7  10
HETATM   10  C   UNL     1      29.705  44.894  56.011  1.00  0.00    -0.019 A 
HETATM   11  C   UNL     1      29.651  45.764  57.110  1.00  0.00     0.013 A 
HETATM   12  C   UNL     1      30.538  45.617  58.180  1.00  0.00     0.001 A 
HETATM   13  C   UNL     1      31.483  44.593  58.164  1.00  0.00     0.000 A 
HETATM   14  C   UNL     1      31.542  43.717  57.081  1.00  0.00     0.001 A 
HETATM   15  C   UNL     1      30.658  43.866  56.010  1.00  0.00     0.013 A 
ENDBRANCH   7  10
BRANCH   9  16
HETATM   16  O   UNL     1      26.556  43.989  52.197  1.00  0.00    -0.354 OA
HETATM   17  C   UNL     1      27.336  43.354  51.193  1.00  0.00     0.210 C 
ENDBRANCH   9  16
ENDBRANCH   2   5
BRANCH   1  18
HETATM   18  C   UNL     1      25.516  47.599  50.325  1.00  0.00     0.035 A 
HETATM   19  C   UNL     1      24.131  47.538  50.144  1.00  0.00     0.039 A 
HETATM   20  C   UNL     1      23.533  48.397  49.234  1.00  0.00    -0.022 A 
HETATM   21  C   UNL     1      22.082  48.538  48.938  1.00  0.00     0.274 C 
HETATM   22  C   UNL     1      24.286  49.308  48.494  1.00  0.00    -0.025 A 
HETATM   23  N   UNL     1      22.006  49.539  47.789  1.00  0.00    -0.067 N 
HETATM   24  C   UNL     1      20.933  50.558  47.944  1.00  0.00     0.270 C 
HETATM   25  H   UNL     1      21.820  48.987  46.944  1.00  0.00     0.280 HD
HETATM   26  C   UNL     1      23.405  50.127  47.618  1.00  0.00     0.273 C 
HETATM   27  C   UNL     1      25.659  49.385  48.656  1.00  0.00     0.012 A 
HETATM   28  C   UNL     1      26.268  48.531  49.584  1.00  0.00     0.030 A 
ENDBRANCH   1  18
TORSDOF 4
ENDMDL
MODEL 2
REMARK VINA RESULT:      -9.2      1.437      1.921
REMARK  4 active torsions:
REMARK  status: ('A' for Active; 'I' for Inactive)
REMARK    1  A    between atoms: C_9  and  N_10 
REMARK       I    between atoms: N_10  and  C_11 
REMARK    2  A    between atoms: C_11  and  C_12 
REMARK    3  A    between atoms: C_14  and  C_15 
REMARK    4  A    between atoms: C_22  and  O_23 
ROOT
HETATM    1  N   UNL     1      25.984  45.429  51.140  1.00  0.00    -0.322 N 
HETATM    2  C   UNL     1      25.888  44.782  52.366  1.00  0.00     0.265 C 
HETATM    3  O   UNL     1      24.820  44.493  52.901  1.00  0.00    -0.267 OA
HETATM    4  H   UNL     1      26.915  45.466  50.742  1.00  0.00     0.169 HD
ENDROOT
BRANCH   2   5
HETATM    5  C   UNL     1      27.176  44.448  52.955  1.00  0.00     0.107 A 
HETATM    6  S   UNL     1      27.654  45.175  54.432  1.00  0.00    -0.081 SA
HETATM    7  C   UNL     1      29.072  44.222  54.532  1.00  0.00     0.018 A 
HETATM    8  C   UNL     1      29.205  43.408  53.422  1.00  0.00     0.058 A 
HETATM    9  C   UNL     1      28.117  43.542  52.506  1.00  0.00     0.092 A 
BRANCH   7  10
HETATM   10  C   UNL     1      29.940  44.304  55.711  1.00  0.00    -0.019 A 
HETATM   11  C   UNL     1      29.782  45.364  56.616  1.00  0.00     0.013 A 
HETATM   12  C   UNL     1      30.597  45.464  57.746  1.00  0.00     0.001 A 
HETATM   13  C   UNL     1      31.575  44.500  57.986  1.00  0.00     0.000 A 
HETATM   14  C   UNL     1      31.737  43.438  57.098  1.00  0.00     0.001 A 
HETATM   15  C   UNL     1      30.924  43.339  55.966  1.00  0.00     0.013 A 
ENDBRANCH   7  10
BRANCH   9  16
HETATM   16  O   UNL     1      27.929  42.913  51.318  1.00  0.00    -0.354 OA
HETATM   17  C   UNL     1      27.564  41.543  51.413  1.00  0.00     0.210 C 
ENDBRANCH   9  16
ENDBRANCH   2   5
BRANCH   1  18
HETATM   18  C   UNL     1      24.935  45.982  50.382  1.00  0.00     0.035 A 
HETATM   19  C   UNL     1      24.602  47.340  50.411  1.00  0.00     0.039 A 
HETATM   20  C   UNL     1      23.577  47.799  49.597  1.00  0.00    -0.022 A 
HETATM   21  C   UNL     1      23.110  49.202  49.431  1.00  0.00     0.274 C 
HETATM   22  C   UNL     1      22.871  46.933  48.763  1.00  0.00    -0.025 A 
HETATM   23  N   UNL     1      21.898  49.110  48.508  1.00  0.00    -0.067 N 
HETATM   24  C   UNL     1      21.865  50.153  47.448  1.00  0.00     0.270 C 
HETATM   25  H   UNL     1      21.074  49.222  49.110  1.00  0.00     0.280 HD
HETATM   26  C   UNL     1      21.850  47.679  47.976  1.00  0.00     0.273 C 
HETATM   27  C   UNL     1      23.183  45.585  48.718  1.00  0.00     0.012 A 
HETATM   28  C   UNL     1      24.226  45.117  49.526  1.00  0.00     0.030 A 
ENDBRANCH   1  18
TORSDOF 4
ENDMDL
MODEL 3
REMARK VINA RESULT:      -8.8      3.415     10.240
REMARK  4 active torsions:
REMARK  status: ('A' for Active; 'I' for Inactive)
REMARK    1  A    between atoms: C_9  and  N_10 
REMARK       I    between atoms: N_10  and  C_11 
REMARK    2  A    between atoms: C_11  and  C_12 
REMARK    3  A    between atoms: C_14  and  C_15 
REMARK    4  A    between atoms: C_22  and  O_23 
ROOT
HETATM    1  N   UNL     1      24.418  47.281  50.961  1.00  0.00    -0.322 N 
HETATM    2  C   UNL     1      23.876  47.094  49.695  1.00  0.00     0.265 C 
HETATM    3  O   UNL     1      23.864  46.011  49.114  1.00  0.00    -0.267 OA
HETATM    4  H   UNL     1      24.223  48.181  51.385  1.00  0.00     0.169 HD
ENDROOT
BRANCH   2   5
HETATM    5  C   UNL     1      23.294  48.298  49.122  1.00  0.00     0.107 A 
HETATM    6  S   UNL     1      21.629  48.333  48.717  1.00  0.00    -0.081 SA
HETATM    7  C   UNL     1      21.684  49.994  48.307  1.00  0.00     0.018 A 
HETATM    8  C   UNL     1      22.968  50.493  48.421  1.00  0.00     0.058 A 
HETATM    9  C   UNL     1      23.901  49.515  48.883  1.00  0.00     0.092 A 
BRANCH   7  10
HETATM   10  C   UNL     1      20.456  50.708  47.941  1.00  0.00    -0.019 A 
HETATM   11  C   UNL     1      19.677  50.246  46.869  1.00  0.00     0.013 A 
HETATM   12  C   UNL     1      18.505  50.911  46.501  1.00  0.00     0.001 A 
HETATM   13  C   UNL     1      18.096  52.042  47.207  1.00  0.00     0.000 A 
HETATM   14  C   UNL     1      18.857  52.506  48.278  1.00  0.00     0.001 A 
HETATM   15  C   UNL     1      20.031  51.844  48.644  1.00  0.00     0.013 A 
ENDBRANCH   7  10
BRANCH   9  16
HETATM   16  O   UNL     1      25.235  49.653  49.094  1.00  0.00    -0.354 OA
HETATM   17  C   UNL     1      26.003  49.928  47.930  1.00  0.00     0.210 C 
ENDBRANCH   9  16
ENDBRANCH   2   5
BRANCH   1  18
HETATM   18  C   UNL     1      25.151  46.352  51.722  1.00  0.00     0.035 A 
HETATM   19  C   UNL     1      25.371  45.033  51.315  1.00  0.00     0.039 A 
HETATM   20  C   UNL     1      26.142  44.201  52.115  1.00  0.00    -0.022 A 
HETATM   21  C   UNL     1      26.546  42.797  51.839  1.00  0.00     0.274 C 
HETATM   22  C   UNL     1      26.687  44.654  53.317  1.00  0.00    -0.025 A 
HETATM   23  N   UNL     1      27.284  42.342  53.095  1.00  0.00    -0.067 N 
HETATM   24  C   UNL     1      28.530  41.576  52.821  1.00  0.00     0.270 C 
HETATM   25  H   UNL     1      26.629  41.738  53.605  1.00  0.00     0.280 HD
HETATM   26  C   UNL     1      27.492  43.581  53.963  1.00  0.00     0.273 C 
HETATM   27  C   UNL     1      26.481  45.956  53.739  1.00  0.00     0.012 A 
HETATM   28  C   UNL     1      25.718  46.805  52.929  1.00  0.00     0.030 A 
ENDBRANCH   1  18
TORSDOF 4
ENDMDL
MODEL 4
REMARK VINA RESULT:      -8.7      2.810     10.039
REMARK  4 active torsions:
REMARK  status: ('A' for Active; 'I' for Inactive)
REMARK    1  A    between atoms: C_9  and  N_10 
REMARK       I    between atoms: N_10  and  C_11 
REMARK    2  A    between atoms: C_11  and  C_12 
REMARK    3  A    between atoms: C_14  and  C_15 
REMARK    4  A    between atoms: C_22  and  O_23 
ROOT
HETATM    1  N   UNL     1      24.452  46.777  50.991  1.00  0.00    -0.322 N 
HETATM    2  C   UNL     1      24.524  47.776  50.027  1.00  0.00     0.265 C 
HETATM    3  O   UNL     1      25.562  48.364  49.733  1.00  0.00    -0.267 OA
HETATM    4  H   UNL     1      23.576  46.269  51.023  1.00  0.00     0.169 HD
ENDROOT
BRANCH   2   5
HETATM    5  C   UNL     1      23.254  48.048  49.371  1.00  0.00     0.107 A 
HETATM    6  S   UNL     1      22.516  49.586  49.542  1.00  0.00    -0.081 SA
HETATM    7  C   UNL     1      21.270  49.198  48.435  1.00  0.00     0.018 A 
HETATM    8  C   UNL     1      21.385  47.893  47.993  1.00  0.00     0.058 A 
HETATM    9  C   UNL     1      22.524  47.225  48.537  1.00  0.00     0.092 A 
BRANCH   7  10
HETATM   10  C   UNL     1      20.286  50.211  48.042  1.00  0.00    -0.019 A 
HETATM   11  C   UNL     1      20.194  51.409  48.768  1.00  0.00     0.013 A 
HETATM   12  C   UNL     1      19.263  52.387  48.412  1.00  0.00     0.001 A 
HETATM   13  C   UNL     1      18.418  52.182  47.322  1.00  0.00     0.000 A 
HETATM   14  C   UNL     1      18.505  51.000  46.589  1.00  0.00     0.001 A 
HETATM   15  C   UNL     1      19.433  50.019  46.946  1.00  0.00     0.013 A 
ENDBRANCH   7  10
BRANCH   9  16
HETATM   16  O   UNL     1      22.931  45.945  48.333  1.00  0.00    -0.354 OA
HETATM   17  C   UNL     1      21.995  44.947  48.716  1.00  0.00     0.210 C 
ENDBRANCH   9  16
ENDBRANCH   2   5
BRANCH   1  18
HETATM   18  C   UNL     1      25.469  46.368  51.874  1.00  0.00     0.035 A 
HETATM   19  C   UNL     1      25.931  47.161  52.929  1.00  0.00     0.039 A 
HETATM   20  C   UNL     1      26.909  46.655  53.773  1.00  0.00    -0.022 A 
HETATM   21  C   UNL     1      27.490  47.303  54.980  1.00  0.00     0.274 C 
HETATM   22  C   UNL     1      27.444  45.381  53.581  1.00  0.00    -0.025 A 
HETATM   23  N   UNL     1      28.590  46.354  55.449  1.00  0.00    -0.067 N 
HETATM   24  C   UNL     1      28.617  46.141  56.921  1.00  0.00     0.270 C 
HETATM   25  H   UNL     1      29.476  46.784  55.159  1.00  0.00     0.280 HD
HETATM   26  C   UNL     1      28.448  45.071  54.635  1.00  0.00     0.273 C 
HETATM   27  C   UNL     1      27.002  44.579  52.542  1.00  0.00     0.012 A 
HETATM   28  C   UNL     1      26.004  45.077  51.696  1.00  0.00     0.030 A 
ENDBRANCH   1  18
TORSDOF 4
ENDMDL
MODEL 5
REMARK VINA RESULT:      -8.7      2.522      9.486
REMARK  4 active torsions:
REMARK  status: ('A' for Active; 'I' for Inactive)
REMARK    1  A    between atoms: C_9  and  N_10 
REMARK       I    between atoms: N_10  and  C_11 
REMARK    2  A    between atoms: C_11  and  C_12 
REMARK    3  A    between atoms: C_14  and  C_15 
REMARK    4  A    between atoms: C_22  and  O_23 
ROOT
HETATM    1  N   UNL     1      26.587  44.797  52.180  1.00  0.00    -0.322 N 
HETATM    2  C   UNL     1      26.657  45.026  50.811  1.00  0.00     0.265 C 
HETATM    3  O   UNL     1      27.654  44.788  50.132  1.00  0.00    -0.267 OA
HETATM    4  H   UNL     1      25.663  44.888  52.587  1.00  0.00     0.169 HD
ENDROOT
BRANCH   2   5
HETATM    5  C   UNL     1      25.425  45.551  50.241  1.00  0.00     0.107 A 
HETATM    6  S   UNL     1      25.162  47.244  50.189  1.00  0.00    -0.081 SA
HETATM    7  C   UNL     1      23.709  47.068  49.301  1.00  0.00     0.018 A 
HETATM    8  C   UNL     1      23.404  45.735  49.104  1.00  0.00     0.058 A 
HETATM    9  C   UNL     1      24.388  44.856  49.652  1.00  0.00     0.092 A 
BRANCH   7  10
HETATM   10  C   UNL     1      22.987  48.250  48.821  1.00  0.00    -0.019 A 
HETATM   11  C   UNL     1      21.583  48.257  48.829  1.00  0.00     0.013 A 
HETATM   12  C   UNL     1      20.874  49.371  48.374  1.00  0.00     0.001 A 
HETATM   13  C   UNL     1      21.560  50.493  47.914  1.00  0.00     0.000 A 
HETATM   14  C   UNL     1      22.954  50.501  47.908  1.00  0.00     0.001 A 
HETATM   15  C   UNL     1      23.665  49.387  48.359  1.00  0.00     0.013 A 
ENDBRANCH   7  10
BRANCH   9  16
HETATM   16  O   UNL     1      24.402  43.498  49.654  1.00  0.00    -0.354 OA
HETATM   17  C   UNL     1      23.220  42.885  50.150  1.00  0.00     0.210 C 
ENDBRANCH   9  16
ENDBRANCH   2   5
BRANCH   1  18
HETATM   18  C   UNL     1      27.635  44.410  53.036  1.00  0.00     0.035 A 
HETATM   19  C   UNL     1      28.192  45.258  53.998  1.00  0.00     0.039 A 
HETATM   20  C   UNL     1      29.195  44.772  54.824  1.00  0.00    -0.022 A 
HETATM   21  C   UNL     1      29.872  45.481  55.943  1.00  0.00     0.274 C 
HETATM   22  C   UNL     1      29.662  43.463  54.704  1.00  0.00    -0.025 A 
HETATM   23  N   UNL     1      30.956  44.520  56.424  1.00  0.00    -0.067 N 
HETATM   24  C   UNL     1      31.059  44.419  57.905  1.00  0.00     0.270 C 
HETATM   25  H   UNL     1      31.841  44.884  56.054  1.00  0.00     0.280 HD
HETATM   26  C   UNL     1      30.711  43.186  55.723  1.00  0.00     0.273 C 
HETATM   27  C   UNL     1      29.126  42.606  53.759  1.00  0.00     0.012 A 
HETATM   28  C   UNL     1      28.102  43.085  52.932  1.00  0.00     0.030 A 
ENDBRANCH   1  18
TORSDOF 4
ENDMDL
MODEL 6
REMARK VINA RESULT:      -8.6      4.789      7.783
REMARK  4 active torsions:
REMARK  status: ('A' for Active; 'I' for Inactive)
REMARK    1  A    between atoms: C_9  and  N_10 
REMARK       I    between atoms: N_10  and  C_11 
REMARK    2  A    between atoms: C_11  and  C_12 
REMARK    3  A    between atoms: C_14  and  C_15 
REMARK    4  A    between atoms: C_22  and  O_23 
ROOT
HETATM    1  N   UNL     1      28.490  40.852  50.346  1.00  0.00    -0.322 N 
HETATM    2  C   UNL     1      27.403  41.237  51.122  1.00  0.00     0.265 C 
HETATM    3  O   UNL     1      26.284  40.740  51.021  1.00  0.00    -0.267 OA
HETATM    4  H   UNL     1      29.384  41.228  50.637  1.00  0.00     0.169 HD
ENDROOT
BRANCH   2   5
HETATM    5  C   UNL     1      27.717  42.274  52.094  1.00  0.00     0.107 A 
HETATM    6  S   UNL     1      28.713  41.909  53.441  1.00  0.00    -0.081 SA
HETATM    7  C   UNL     1      28.743  43.541  53.958  1.00  0.00     0.018 A 
HETATM    8  C   UNL     1      27.954  44.335  53.148  1.00  0.00     0.058 A 
HETATM    9  C   UNL     1      27.354  43.606  52.076  1.00  0.00     0.092 A 
BRANCH   7  10
HETATM   10  C   UNL     1      29.572  43.941  55.100  1.00  0.00    -0.019 A 
HETATM   11  C   UNL     1      30.573  43.076  55.568  1.00  0.00     0.013 A 
HETATM   12  C   UNL     1      31.374  43.435  56.654  1.00  0.00     0.001 A 
HETATM   13  C   UNL     1      31.187  44.667  57.280  1.00  0.00     0.000 A 
HETATM   14  C   UNL     1      30.201  45.537  56.820  1.00  0.00     0.001 A 
HETATM   15  C   UNL     1      29.397  45.178  55.735  1.00  0.00     0.013 A 
ENDBRANCH   7  10
BRANCH   9  16
HETATM   16  O   UNL     1      26.517  44.061  51.109  1.00  0.00    -0.354 OA
HETATM   17  C   UNL     1      27.137  44.829  50.087  1.00  0.00     0.210 C 
ENDBRANCH   9  16
ENDBRANCH   2   5
BRANCH   1  18
HETATM   18  C   UNL     1      28.486  39.968  49.251  1.00  0.00     0.035 A 
HETATM   19  C   UNL     1      28.061  40.337  47.970  1.00  0.00     0.039 A 
HETATM   20  C   UNL     1      28.133  39.407  46.943  1.00  0.00    -0.022 A 
HETATM   21  C   UNL     1      27.794  39.611  45.509  1.00  0.00     0.274 C 
HETATM   22  C   UNL     1      28.607  38.115  47.168  1.00  0.00    -0.025 A 
HETATM   23  N   UNL     1      27.951  38.237  44.865  1.00  0.00    -0.067 N 
HETATM   24  C   UNL     1      28.648  38.262  43.550  1.00  0.00     0.270 C 
HETATM   25  H   UNL     1      27.000  37.878  44.729  1.00  0.00     0.280 HD
HETATM   26  C   UNL     1      28.609  37.331  45.902  1.00  0.00     0.273 C 
HETATM   27  C   UNL     1      29.032  37.727  48.427  1.00  0.00     0.012 A 
HETATM   28  C   UNL     1      28.977  38.666  49.465  1.00  0.00     0.030 A 
ENDBRANCH   1  18
TORSDOF 4
ENDMDL
MODEL 7
REMARK VINA RESULT:      -8.4      3.973     10.115
REMARK  4 active torsions:
REMARK  status: ('A' for Active; 'I' for Inactive)
REMARK    1  A    between atoms: C_9  and  N_10 
REMARK       I    between atoms: N_10  and  C_11 
REMARK    2  A    between atoms: C_11  and  C_12 
REMARK    3  A    between atoms: C_14  and  C_15 
REMARK    4  A    between atoms: C_22  and  O_23 
ROOT
HETATM    1  N   UNL     1      24.036  46.223  50.239  1.00  0.00    -0.322 N 
HETATM    2  C   UNL     1      23.320  46.523  49.086  1.00  0.00     0.265 C 
HETATM    3  O   UNL     1      23.121  45.718  48.180  1.00  0.00    -0.267 OA
HETATM    4  H   UNL     1      23.993  46.923  50.970  1.00  0.00     0.169 HD
ENDROOT
BRANCH   2   5
HETATM    5  C   UNL     1      22.799  47.882  49.059  1.00  0.00     0.107 A 
HETATM    6  S   UNL     1      21.119  48.148  48.842  1.00  0.00    -0.081 SA
HETATM    7  C   UNL     1      21.277  49.836  49.079  1.00  0.00     0.018 A 
HETATM    8  C   UNL     1      22.601  50.192  49.259  1.00  0.00     0.058 A 
HETATM    9  C   UNL     1      23.482  49.068  49.240  1.00  0.00     0.092 A 
BRANCH   7  10
HETATM   10  C   UNL     1      20.089  50.694  49.115  1.00  0.00    -0.019 A 
HETATM   11  C   UNL     1      19.005  50.345  49.935  1.00  0.00     0.013 A 
HETATM   12  C   UNL     1      17.862  51.146  49.984  1.00  0.00     0.001 A 
HETATM   13  C   UNL     1      17.794  52.309  49.219  1.00  0.00     0.000 A 
HETATM   14  C   UNL     1      18.866  52.670  48.406  1.00  0.00     0.001 A 
HETATM   15  C   UNL     1      20.009  51.868  48.354  1.00  0.00     0.013 A 
ENDBRANCH   7  10
BRANCH   9  16
HETATM   16  O   UNL     1      24.834  49.051  49.369  1.00  0.00    -0.354 OA
HETATM   17  C   UNL     1      25.545  49.752  48.358  1.00  0.00     0.210 C 
ENDBRANCH   9  16
ENDBRANCH   2   5
BRANCH   1  18
HETATM   18  C   UNL     1      24.759  45.047  50.513  1.00  0.00     0.035 A 
HETATM   19  C   UNL     1      26.109  45.045  50.880  1.00  0.00     0.039 A 
HETATM   20  C   UNL     1      26.726  43.837  51.170  1.00  0.00    -0.022 A 
HETATM   21  C   UNL     1      28.122  43.621  51.637  1.00  0.00     0.274 C 
HETATM   22  C   UNL     1      26.030  42.631  51.091  1.00  0.00    -0.025 A 
HETATM   23  N   UNL     1      28.292  42.105  51.689  1.00  0.00    -0.067 N 
HETATM   24  C   UNL     1      28.995  41.617  52.906  1.00  0.00     0.270 C 
HETATM   25  H   UNL     1      28.847  41.854  50.863  1.00  0.00     0.280 HD
HETATM   26  C   UNL     1      26.909  41.494  51.480  1.00  0.00     0.273 C 
HETATM   27  C   UNL     1      24.694  42.608  50.729  1.00  0.00     0.012 A 
HETATM   28  C   UNL     1      24.061  43.826  50.450  1.00  0.00     0.030 A 
ENDBRANCH   1  18
TORSDOF 4
ENDMDL
MODEL 8
REMARK VINA RESULT:      -8.3      2.829      4.752
REMARK  4 active torsions:
REMARK  status: ('A' for Active; 'I' for Inactive)
REMARK    1  A    between atoms: C_9  and  N_10 
REMARK       I    between atoms: N_10  and  C_11 
REMARK    2  A    between atoms: C_11  and  C_12 
REMARK    3  A    between atoms: C_14  and  C_15 
REMARK    4  A    between atoms: C_22  and  O_23 
ROOT
HETATM    1  N   UNL     1      22.462  48.231  49.543  1.00  0.00    -0.322 N 
HETATM    2  C   UNL     1      23.849  48.324  49.525  1.00  0.00     0.265 C 
HETATM    3  O   UNL     1      24.459  49.335  49.185  1.00  0.00    -0.267 OA
HETATM    4  H   UNL     1      22.090  47.402  49.991  1.00  0.00     0.169 HD
ENDROOT
BRANCH   2   5
HETATM    5  C   UNL     1      24.522  47.115  49.976  1.00  0.00     0.107 A 
HETATM    6  S   UNL     1      25.831  47.226  51.078  1.00  0.00    -0.081 SA
HETATM    7  C   UNL     1      25.947  45.525  51.232  1.00  0.00     0.018 A 
HETATM    8  C   UNL     1      25.040  44.887  50.406  1.00  0.00     0.058 A 
HETATM    9  C   UNL     1      24.222  45.802  49.674  1.00  0.00     0.092 A 
BRANCH   7  10
HETATM   10  C   UNL     1      26.891  44.929  52.182  1.00  0.00    -0.019 A 
HETATM   11  C   UNL     1      26.902  45.367  53.516  1.00  0.00     0.013 A 
HETATM   12  C   UNL     1      27.793  44.815  54.439  1.00  0.00     0.001 A 
HETATM   13  C   UNL     1      28.678  43.815  54.040  1.00  0.00     0.000 A 
HETATM   14  C   UNL     1      28.671  43.367  52.721  1.00  0.00     0.001 A 
HETATM   15  C   UNL     1      27.783  43.920  51.796  1.00  0.00     0.013 A 
ENDBRANCH   7  10
BRANCH   9  16
HETATM   16  O   UNL     1      23.247  45.527  48.770  1.00  0.00    -0.354 OA
HETATM   17  C   UNL     1      22.356  44.485  49.144  1.00  0.00     0.210 C 
ENDBRANCH   9  16
ENDBRANCH   2   5
BRANCH   1  18
HETATM   18  C   UNL     1      21.538  49.176  49.060  1.00  0.00     0.035 A 
HETATM   19  C   UNL     1      20.806  48.998  47.881  1.00  0.00     0.039 A 
HETATM   20  C   UNL     1      19.887  49.967  47.507  1.00  0.00    -0.022 A 
HETATM   21  C   UNL     1      18.970  49.944  46.336  1.00  0.00     0.274 C 
HETATM   22  C   UNL     1      19.689  51.114  48.276  1.00  0.00    -0.025 A 
HETATM   23  N   UNL     1      18.272  51.301  46.351  1.00  0.00    -0.067 N 
HETATM   24  C   UNL     1      16.809  51.231  46.084  1.00  0.00     0.270 C 
HETATM   25  H   UNL     1      18.717  51.857  45.613  1.00  0.00     0.280 HD
HETATM   26  C   UNL     1      18.632  51.973  47.674  1.00  0.00     0.273 C 
HETATM   27  C   UNL     1      20.403  51.311  49.446  1.00  0.00     0.012 A 
HETATM   28  C   UNL     1      21.321  50.330  49.838  1.00  0.00     0.030 A 
ENDBRANCH   1  18
TORSDOF 4
ENDMDL
MODEL 9
REMARK VINA RESULT:      -8.1      4.507      6.226
REMARK  4 active torsions:
REMARK  status: ('A' for Active; 'I' for Inactive)
REMARK    1  A    between atoms: C_9  and  N_10 
REMARK       I    between atoms: N_10  and  C_11 
REMARK    2  A    between atoms: C_11  and  C_12 
REMARK    3  A    between atoms: C_14  and  C_15 
REMARK    4  A    between atoms: C_22  and  O_23 
ROOT
HETATM    1  N   UNL     1      22.551  48.457  49.565  1.00  0.00    -0.322 N 
HETATM    2  C   UNL     1      22.907  47.374  48.771  1.00  0.00     0.265 C 
HETATM    3  O   UNL     1      22.478  47.195  47.633  1.00  0.00    -0.267 OA
HETATM    4  H   UNL     1      23.094  48.568  50.414  1.00  0.00     0.169 HD
ENDROOT
BRANCH   2   5
HETATM    5  C   UNL     1      23.863  46.475  49.400  1.00  0.00     0.107 A 
HETATM    6  S   UNL     1      23.610  44.781  49.339  1.00  0.00    -0.081 SA
HETATM    7  C   UNL     1      25.117  44.451  50.082  1.00  0.00     0.018 A 
HETATM    8  C   UNL     1      25.770  45.621  50.424  1.00  0.00     0.058 A 
HETATM    9  C   UNL     1      25.045  46.790  50.039  1.00  0.00     0.092 A 
BRANCH   7  10
HETATM   10  C   UNL     1      25.578  43.069  50.242  1.00  0.00    -0.019 A 
HETATM   11  C   UNL     1      25.090  42.070  49.385  1.00  0.00     0.013 A 
HETATM   12  C   UNL     1      25.513  40.746  49.520  1.00  0.00     0.001 A 
HETATM   13  C   UNL     1      26.435  40.408  50.509  1.00  0.00     0.000 A 
HETATM   14  C   UNL     1      26.933  41.391  51.361  1.00  0.00     0.001 A 
HETATM   15  C   UNL     1      26.507  42.715  51.230  1.00  0.00     0.013 A 
ENDBRANCH   7  10
BRANCH   9  16
HETATM   16  O   UNL     1      25.380  48.092  50.230  1.00  0.00    -0.354 OA
HETATM   17  C   UNL     1      26.448  48.565  49.420  1.00  0.00     0.210 C 
ENDBRANCH   9  16
ENDBRANCH   2   5
BRANCH   1  18
HETATM   18  C   UNL     1      21.570  49.430  49.294  1.00  0.00     0.035 A 
HETATM   19  C   UNL     1      20.235  49.300  49.687  1.00  0.00     0.039 A 
HETATM   20  C   UNL     1      19.349  50.331  49.410  1.00  0.00    -0.022 A 
HETATM   21  C   UNL     1      17.914  50.422  49.792  1.00  0.00     0.274 C 
HETATM   22  C   UNL     1      19.763  51.482  48.740  1.00  0.00    -0.025 A 
HETATM   23  N   UNL     1      17.409  51.705  49.138  1.00  0.00    -0.067 N 
HETATM   24  C   UNL     1      16.543  52.532  50.020  1.00  0.00     0.270 C 
HETATM   25  H   UNL     1      16.864  51.410  48.320  1.00  0.00     0.280 HD
HETATM   26  C   UNL     1      18.632  52.440  48.597  1.00  0.00     0.273 C 
HETATM   27  C   UNL     1      21.080  51.632  48.341  1.00  0.00     0.012 A 
HETATM   28  C   UNL     1      21.984  50.602  48.631  1.00  0.00     0.030 A 
ENDBRANCH   1  18
TORSDOF 4
ENDMDL
MODEL 10
REMARK VINA RESULT:      -8.0      3.196      4.929
REMARK  4 active torsions:
REMARK  status: ('A' for Active; 'I' for Inactive)
REMARK    1  A    between atoms: C_9  and  N_10 
REMARK       I    between atoms: N_10  and  C_11 
REMARK    2  A    between atoms: C_11  and  C_12 
REMARK    3  A    between atoms: C_14  and  C_15 
REMARK    4  A    between atoms: C_22  and  O_23 
ROOT
HETATM    1  N   UNL     1      22.964  48.728  49.613  1.00  0.00    -0.322 N 
HETATM    2  C   UNL     1      23.415  47.447  49.317  1.00  0.00     0.265 C 
HETATM    3  O   UNL     1      22.901  46.725  48.466  1.00  0.00    -0.267 OA
HETATM    4  H   UNL     1      23.569  49.270  50.218  1.00  0.00     0.169 HD
ENDROOT
BRANCH   2   5
HETATM    5  C   UNL     1      24.578  47.042  50.092  1.00  0.00     0.107 A 
HETATM    6  S   UNL     1      24.532  45.595  51.010  1.00  0.00    -0.081 SA
HETATM    7  C   UNL     1      26.182  45.726  51.445  1.00  0.00     0.018 A 
HETATM    8  C   UNL     1      26.737  46.890  50.947  1.00  0.00     0.058 A 
HETATM    9  C   UNL     1      25.813  47.655  50.172  1.00  0.00     0.092 A 
BRANCH   7  10
HETATM   10  C   UNL     1      26.833  44.660  52.212  1.00  0.00    -0.019 A 
HETATM   11  C   UNL     1      26.435  44.413  53.535  1.00  0.00     0.013 A 
HETATM   12  C   UNL     1      27.043  43.404  54.285  1.00  0.00     0.001 A 
HETATM   13  C   UNL     1      28.050  42.625  53.718  1.00  0.00     0.000 A 
HETATM   14  C   UNL     1      28.450  42.856  52.403  1.00  0.00     0.001 A 
HETATM   15  C   UNL     1      27.845  43.868  51.653  1.00  0.00     0.013 A 
ENDBRANCH   7  10
BRANCH   9  16
HETATM   16  O   UNL     1      26.012  48.847  49.552  1.00  0.00    -0.354 OA
HETATM   17  C   UNL     1      27.324  49.049  49.045  1.00  0.00     0.210 C 
ENDBRANCH   9  16
ENDBRANCH   2   5
BRANCH   1  18
HETATM   18  C   UNL     1      21.803  49.358  49.127  1.00  0.00     0.035 A 
HETATM   19  C   UNL     1      20.582  48.696  48.969  1.00  0.00     0.039 A 
HETATM   20  C   UNL     1      19.481  49.412  48.521  1.00  0.00    -0.022 A 
HETATM   21  C   UNL     1      18.089  48.920  48.345  1.00  0.00     0.274 C 
HETATM   22  C   UNL     1      19.575  50.770  48.217  1.00  0.00    -0.025 A 
HETATM   23  N   UNL     1      17.329  50.090  47.728  1.00  0.00    -0.067 N 
HETATM   24  C   UNL     1      15.984  50.319  48.324  1.00  0.00     0.270 C 
HETATM   25  H   UNL     1      17.216  49.863  46.734  1.00  0.00     0.280 HD
HETATM   26  C   UNL     1      18.253  51.304  47.790  1.00  0.00     0.273 C 
HETATM   27  C   UNL     1      20.775  51.446  48.365  1.00  0.00     0.012 A 
HETATM   28  C   UNL     1      21.886  50.733  48.832  1.00  0.00     0.030 A 
ENDBRANCH   1  18
TORSDOF 4
ENDMDL
