MODEL 1
REMARK VINA RESULT:      -7.8      0.000      0.000
REMARK  5 active torsions:
REMARK  status: ('A' for Active; 'I' for Inactive)
REMARK    1  A    between atoms: C_8  and  C_9 
REMARK    2  A    between atoms: C_9  and  C_10 
REMARK       I    between atoms: C_10  and  N_11 
REMARK    3  A    between atoms: N_11  and  C_12 
REMARK    4  A    between atoms: C_12  and  C_13 
REMARK    5  A    between atoms: C_13  and  C_14 
ROOT
HETATM    1  C   UNL     1      29.513  49.916  39.133  1.00  0.00     0.226 C 
HETATM    2  N   UNL     1      29.061  49.835  40.434  1.00  0.00    -0.360 N 
HETATM    3  O   UNL     1      29.753  48.924  38.447  1.00  0.00    -0.273 OA
HETATM    4  H   UNL     1      29.181  50.659  41.008  1.00  0.00     0.162 HD
ENDROOT
BRANCH   2   5
HETATM    5  C   UNL     1      28.952  48.560  41.122  1.00  0.00     0.127 C 
BRANCH   5   6
HETATM    6  C   UNL     1      29.920  48.420  42.303  1.00  0.00     0.060 C 
BRANCH   6   7
HETATM    7  C   UNL     1      31.339  48.690  41.905  1.00  0.00    -0.029 A 
HETATM    8  C   UNL     1      32.197  49.706  42.437  1.00  0.00    -0.002 A 
HETATM    9  C   UNL     1      33.429  49.592  41.793  1.00  0.00     0.044 A 
HETATM   10  C   UNL     1      32.036  50.711  43.414  1.00  0.00     0.016 A 
HETATM   11  C   UNL     1      34.515  50.430  42.079  1.00  0.00     0.054 A 
HETATM   12  N   UNL     1      33.321  48.559  40.892  1.00  0.00    -0.365 N 
HETATM   13  C   UNL     1      34.327  51.412  43.057  1.00  0.00     0.036 A 
HETATM   14 CL   UNL     1      35.635  52.464  43.450  1.00  0.00    -0.084 Cl
HETATM   15  C   UNL     1      33.111  51.556  43.717  1.00  0.00     0.025 A 
HETATM   16  H   UNL     1      34.062  48.256  40.275  1.00  0.00     0.165 HD
HETATM   17  C   UNL     1      32.070  48.006  40.954  1.00  0.00     0.096 A 
ENDBRANCH   6   7
ENDBRANCH   5   6
ENDBRANCH   2   5
BRANCH   1  18
HETATM   18  C   UNL     1      29.700  51.337  38.588  1.00  0.00     0.111 C 
HETATM   19  C   UNL     1      28.365  51.969  38.205  1.00  0.00     0.025 C 
BRANCH  18  20
HETATM   20  C   UNL     1      30.563  52.155  39.516  1.00  0.00     0.004 A 
HETATM   21  C   UNL     1      30.231  52.988  40.576  1.00  0.00     0.033 A 
HETATM   22  C   UNL     1      28.946  53.396  41.191  1.00  0.00     0.070 C 
HETATM   23  N   UNL     1      31.418  53.475  41.054  1.00  0.00    -0.282 N 
HETATM   24  H   UNL     1      31.566  54.121  41.823  1.00  0.00     0.189 HD
HETATM   25  N   UNL     1      32.492  53.019  40.407  1.00  0.00    -0.179 NA
HETATM   26  C   UNL     1      31.991  52.216  39.464  1.00  0.00     0.060 A 
HETATM   27  C   UNL     1      32.908  51.514  38.527  1.00  0.00     0.073 C 
ENDBRANCH  18  20
ENDBRANCH   1  18
TORSDOF 5
ENDMDL
MODEL 2
REMARK VINA RESULT:      -7.8     10.961     12.712
REMARK  5 active torsions:
REMARK  status: ('A' for Active; 'I' for Inactive)
REMARK    1  A    between atoms: C_8  and  C_9 
REMARK    2  A    between atoms: C_9  and  C_10 
REMARK       I    between atoms: C_10  and  N_11 
REMARK    3  A    between atoms: N_11  and  C_12 
REMARK    4  A    between atoms: C_12  and  C_13 
REMARK    5  A    between atoms: C_13  and  C_14 
ROOT
HETATM    1  C   UNL     1      26.092  45.693  49.852  1.00  0.00     0.226 C 
HETATM    2  N   UNL     1      25.359  44.532  49.997  1.00  0.00    -0.360 N 
HETATM    3  O   UNL     1      27.156  45.736  49.236  1.00  0.00    -0.273 OA
HETATM    4  H   UNL     1      24.684  44.515  50.751  1.00  0.00     0.162 HD
ENDROOT
BRANCH   2   5
HETATM    5  C   UNL     1      25.861  43.253  49.529  1.00  0.00     0.127 C 
BRANCH   5   6
HETATM    6  C   UNL     1      25.784  42.144  50.585  1.00  0.00     0.060 C 
BRANCH   6   7
HETATM    7  C   UNL     1      27.103  41.912  51.258  1.00  0.00    -0.029 A 
HETATM    8  C   UNL     1      27.675  42.698  52.310  1.00  0.00    -0.002 A 
HETATM    9  C   UNL     1      28.901  42.122  52.642  1.00  0.00     0.044 A 
HETATM   10  C   UNL     1      27.257  43.848  53.012  1.00  0.00     0.016 A 
HETATM   11  C   UNL     1      29.731  42.632  53.649  1.00  0.00     0.054 A 
HETATM   12  N   UNL     1      29.076  41.037  51.815  1.00  0.00    -0.365 N 
HETATM   13  C   UNL     1      29.287  43.768  54.332  1.00  0.00     0.036 A 
HETATM   14 CL   UNL     1      30.269  44.432  55.583  1.00  0.00    -0.084 Cl
HETATM   15  C   UNL     1      28.072  44.372  54.023  1.00  0.00     0.025 A 
HETATM   16  H   UNL     1      29.887  40.432  51.825  1.00  0.00     0.165 HD
HETATM   17  C   UNL     1      28.000  40.899  50.981  1.00  0.00     0.096 A 
ENDBRANCH   6   7
ENDBRANCH   5   6
ENDBRANCH   2   5
BRANCH   1  18
HETATM   18  C   UNL     1      25.492  46.938  50.513  1.00  0.00     0.111 C 
HETATM   19  C   UNL     1      26.208  47.279  51.817  1.00  0.00     0.025 C 
BRANCH  18  20
HETATM   20  C   UNL     1      25.380  48.068  49.520  1.00  0.00     0.004 A 
HETATM   21  C   UNL     1      26.340  48.927  49.001  1.00  0.00     0.033 A 
HETATM   22  C   UNL     1      27.799  49.076  49.212  1.00  0.00     0.070 C 
HETATM   23  N   UNL     1      25.671  49.760  48.145  1.00  0.00    -0.282 N 
HETATM   24  H   UNL     1      26.047  50.522  47.590  1.00  0.00     0.189 HD
HETATM   25  N   UNL     1      24.364  49.507  48.051  1.00  0.00    -0.179 NA
HETATM   26  C   UNL     1      24.167  48.482  48.885  1.00  0.00     0.060 A 
HETATM   27  C   UNL     1      22.803  47.914  49.050  1.00  0.00     0.073 C 
ENDBRANCH  18  20
ENDBRANCH   1  18
TORSDOF 5
ENDMDL
MODEL 3
REMARK VINA RESULT:      -7.7      2.845      5.728
REMARK  5 active torsions:
REMARK  status: ('A' for Active; 'I' for Inactive)
REMARK    1  A    between atoms: C_8  and  C_9 
REMARK    2  A    between atoms: C_9  and  C_10 
REMARK       I    between atoms: C_10  and  N_11 
REMARK    3  A    between atoms: N_11  and  C_12 
REMARK    4  A    between atoms: C_12  and  C_13 
REMARK    5  A    between atoms: C_13  and  C_14 
ROOT
HETATM    1  C   UNL     1      31.505  52.415  42.493  1.00  0.00     0.226 C 
HETATM    2  N   UNL     1      31.608  52.810  41.174  1.00  0.00    -0.360 N 
HETATM    3  O   UNL     1      30.491  52.593  43.165  1.00  0.00    -0.273 OA
HETATM    4  H   UNL     1      32.543  52.905  40.802  1.00  0.00     0.162 HD
ENDROOT
BRANCH   2   5
HETATM    5  C   UNL     1      30.557  53.574  40.526  1.00  0.00     0.127 C 
BRANCH   5   6
HETATM    6  C   UNL     1      29.759  52.764  39.498  1.00  0.00     0.060 C 
BRANCH   6   7
HETATM    7  C   UNL     1      28.857  51.758  40.148  1.00  0.00    -0.029 A 
HETATM    8  C   UNL     1      28.928  50.334  40.013  1.00  0.00    -0.002 A 
HETATM    9  C   UNL     1      27.909  49.789  40.794  1.00  0.00     0.044 A 
HETATM   10  C   UNL     1      29.772  49.459  39.297  1.00  0.00     0.016 A 
HETATM   11  C   UNL     1      27.693  48.409  40.903  1.00  0.00     0.054 A 
HETATM   12  N   UNL     1      27.234  50.840  41.369  1.00  0.00    -0.365 N 
HETATM   13  C   UNL     1      28.549  47.567  40.188  1.00  0.00     0.036 A 
HETATM   14 CL   UNL     1      28.329  45.860  40.293  1.00  0.00    -0.084 Cl
HETATM   15  C   UNL     1      29.574  48.076  39.395  1.00  0.00     0.025 A 
HETATM   16  H   UNL     1      26.435  50.742  41.983  1.00  0.00     0.165 HD
HETATM   17  C   UNL     1      27.798  52.028  40.992  1.00  0.00     0.096 A 
ENDBRANCH   6   7
ENDBRANCH   5   6
ENDBRANCH   2   5
BRANCH   1  18
HETATM   18  C   UNL     1      32.748  51.733  43.075  1.00  0.00     0.111 C 
HETATM   19  C   UNL     1      32.704  51.697  44.600  1.00  0.00     0.025 C 
BRANCH  18  20
HETATM   20  C   UNL     1      32.993  50.406  42.402  1.00  0.00     0.004 A 
HETATM   21  C   UNL     1      32.210  49.262  42.324  1.00  0.00     0.033 A 
HETATM   22  C   UNL     1      30.874  48.900  42.855  1.00  0.00     0.070 C 
HETATM   23  N   UNL     1      32.936  48.361  41.592  1.00  0.00    -0.282 N 
HETATM   24  H   UNL     1      32.683  47.412  41.337  1.00  0.00     0.189 HD
HETATM   25  N   UNL     1      34.116  48.826  41.176  1.00  0.00    -0.179 NA
HETATM   26  C   UNL     1      34.170  50.068  41.663  1.00  0.00     0.060 A 
HETATM   27  C   UNL     1      35.364  50.915  41.400  1.00  0.00     0.073 C 
ENDBRANCH  18  20
ENDBRANCH   1  18
TORSDOF 5
ENDMDL
MODEL 4
REMARK VINA RESULT:      -7.6      2.695      5.331
REMARK  5 active torsions:
REMARK  status: ('A' for Active; 'I' for Inactive)
REMARK    1  A    between atoms: C_8  and  C_9 
REMARK    2  A    between atoms: C_9  and  C_10 
REMARK       I    between atoms: C_10  and  N_11 
REMARK    3  A    between atoms: N_11  and  C_12 
REMARK    4  A    between atoms: C_12  and  C_13 
REMARK    5  A    between atoms: C_13  and  C_14 
ROOT
HETATM    1  C   UNL     1      31.477  52.421  42.444  1.00  0.00     0.226 C 
HETATM    2  N   UNL     1      31.724  53.034  41.231  1.00  0.00    -0.360 N 
HETATM    3  O   UNL     1      30.365  52.407  42.969  1.00  0.00    -0.273 OA
HETATM    4  H   UNL     1      32.688  53.262  41.028  1.00  0.00     0.162 HD
ENDROOT
BRANCH   2   5
HETATM    5  C   UNL     1      30.702  53.809  40.550  1.00  0.00     0.127 C 
BRANCH   5   6
HETATM    6  C   UNL     1      29.826  52.971  39.611  1.00  0.00     0.060 C 
BRANCH   6   7
HETATM    7  C   UNL     1      30.487  51.685  39.219  1.00  0.00    -0.029 A 
HETATM    8  C   UNL     1      29.980  50.363  39.435  1.00  0.00    -0.002 A 
HETATM    9  C   UNL     1      30.909  49.467  38.906  1.00  0.00     0.044 A 
HETATM   10  C   UNL     1      28.810  49.849  40.032  1.00  0.00     0.016 A 
HETATM   11  C   UNL     1      30.726  48.078  38.936  1.00  0.00     0.054 A 
HETATM   12  N   UNL     1      31.949  50.213  38.402  1.00  0.00    -0.365 N 
HETATM   13  C   UNL     1      29.553  47.599  39.527  1.00  0.00     0.036 A 
HETATM   14 CL   UNL     1      29.278  45.898  39.583  1.00  0.00    -0.084 Cl
HETATM   15  C   UNL     1      28.607  48.463  40.069  1.00  0.00     0.025 A 
HETATM   16  H   UNL     1      32.774  49.825  37.964  1.00  0.00     0.165 HD
HETATM   17  C   UNL     1      31.705  51.548  38.581  1.00  0.00     0.096 A 
ENDBRANCH   6   7
ENDBRANCH   5   6
ENDBRANCH   2   5
BRANCH   1  18
HETATM   18  C   UNL     1      32.689  51.753  43.103  1.00  0.00     0.111 C 
HETATM   19  C   UNL     1      32.537  51.691  44.620  1.00  0.00     0.025 C 
BRANCH  18  20
HETATM   20  C   UNL     1      33.008  50.443  42.428  1.00  0.00     0.004 A 
HETATM   21  C   UNL     1      32.285  49.262  42.337  1.00  0.00     0.033 A 
HETATM   22  C   UNL     1      30.964  48.830  42.853  1.00  0.00     0.070 C 
HETATM   23  N   UNL     1      33.064  48.401  41.611  1.00  0.00    -0.282 N 
HETATM   24  H   UNL     1      32.862  47.441  41.350  1.00  0.00     0.189 HD
HETATM   25  N   UNL     1      34.223  48.926  41.209  1.00  0.00    -0.179 NA
HETATM   26  C   UNL     1      34.209  50.168  41.701  1.00  0.00     0.060 A 
HETATM   27  C   UNL     1      35.361  51.075  41.453  1.00  0.00     0.073 C 
ENDBRANCH  18  20
ENDBRANCH   1  18
TORSDOF 5
ENDMDL
MODEL 5
REMARK VINA RESULT:      -7.4      1.220      2.376
REMARK  5 active torsions:
REMARK  status: ('A' for Active; 'I' for Inactive)
REMARK    1  A    between atoms: C_8  and  C_9 
REMARK    2  A    between atoms: C_9  and  C_10 
REMARK       I    between atoms: C_10  and  N_11 
REMARK    3  A    between atoms: N_11  and  C_12 
REMARK    4  A    between atoms: C_12  and  C_13 
REMARK    5  A    between atoms: C_13  and  C_14 
ROOT
HETATM    1  C   UNL     1      29.794  50.165  38.741  1.00  0.00     0.226 C 
HETATM    2  N   UNL     1      30.968  49.509  39.051  1.00  0.00    -0.360 N 
HETATM    3  O   UNL     1      28.718  49.583  38.612  1.00  0.00    -0.273 OA
HETATM    4  H   UNL     1      31.828  49.996  38.839  1.00  0.00     0.162 HD
ENDROOT
BRANCH   2   5
HETATM    5  C   UNL     1      31.029  48.059  39.128  1.00  0.00     0.127 C 
BRANCH   5   6
HETATM    6  C   UNL     1      31.621  47.544  40.445  1.00  0.00     0.060 C 
BRANCH   6   7
HETATM    7  C   UNL     1      31.779  48.635  41.459  1.00  0.00    -0.029 A 
HETATM    8  C   UNL     1      32.964  49.397  41.716  1.00  0.00    -0.002 A 
HETATM    9  C   UNL     1      32.664  50.308  42.729  1.00  0.00     0.044 A 
HETATM   10  C   UNL     1      34.267  49.394  41.175  1.00  0.00     0.016 A 
HETATM   11  C   UNL     1      33.599  51.225  43.226  1.00  0.00     0.054 A 
HETATM   12  N   UNL     1      31.352  50.099  43.086  1.00  0.00    -0.365 N 
HETATM   13  C   UNL     1      34.879  51.204  42.664  1.00  0.00     0.036 A 
HETATM   14 CL   UNL     1      36.064  52.317  43.237  1.00  0.00    -0.084 Cl
HETATM   15  C   UNL     1      35.215  50.306  41.656  1.00  0.00     0.025 A 
HETATM   16  H   UNL     1      30.865  50.613  43.808  1.00  0.00     0.165 HD
HETATM   17  C   UNL     1      30.809  49.098  42.326  1.00  0.00     0.096 A 
ENDBRANCH   6   7
ENDBRANCH   5   6
ENDBRANCH   2   5
BRANCH   1  18
HETATM   18  C   UNL     1      29.915  51.683  38.566  1.00  0.00     0.111 C 
HETATM   19  C   UNL     1      28.611  52.293  38.059  1.00  0.00     0.025 C 
BRANCH  18  20
HETATM   20  C   UNL     1      30.491  52.319  39.806  1.00  0.00     0.004 A 
HETATM   21  C   UNL     1      31.782  52.728  40.107  1.00  0.00     0.033 A 
HETATM   22  C   UNL     1      33.064  52.699  39.362  1.00  0.00     0.070 C 
HETATM   23  N   UNL     1      31.728  53.231  41.379  1.00  0.00    -0.282 N 
HETATM   24  H   UNL     1      32.485  53.616  41.934  1.00  0.00     0.189 HD
HETATM   25  N   UNL     1      30.510  53.198  41.924  1.00  0.00    -0.179 NA
HETATM   26  C   UNL     1      29.744  52.642  40.982  1.00  0.00     0.060 A 
HETATM   27  C   UNL     1      28.293  52.436  41.236  1.00  0.00     0.073 C 
ENDBRANCH  18  20
ENDBRANCH   1  18
TORSDOF 5
ENDMDL
MODEL 6
REMARK VINA RESULT:      -7.3     11.588     14.159
REMARK  5 active torsions:
REMARK  status: ('A' for Active; 'I' for Inactive)
REMARK    1  A    between atoms: C_8  and  C_9 
REMARK    2  A    between atoms: C_9  and  C_10 
REMARK       I    between atoms: C_10  and  N_11 
REMARK    3  A    between atoms: N_11  and  C_12 
REMARK    4  A    between atoms: C_12  and  C_13 
REMARK    5  A    between atoms: C_13  and  C_14 
ROOT
HETATM    1  C   UNL     1      25.963  44.965  53.202  1.00  0.00     0.226 C 
HETATM    2  N   UNL     1      26.595  46.078  52.684  1.00  0.00    -0.360 N 
HETATM    3  O   UNL     1      24.830  44.625  52.867  1.00  0.00    -0.273 OA
HETATM    4  H   UNL     1      27.367  46.451  53.220  1.00  0.00     0.162 HD
ENDROOT
BRANCH   2   5
HETATM    5  C   UNL     1      25.909  46.993  51.789  1.00  0.00     0.127 C 
BRANCH   5   6
HETATM    6  C   UNL     1      26.366  46.875  50.330  1.00  0.00     0.060 C 
BRANCH   6   7
HETATM    7  C   UNL     1      25.997  48.083  49.524  1.00  0.00    -0.029 A 
HETATM    8  C   UNL     1      24.674  48.517  49.191  1.00  0.00    -0.002 A 
HETATM    9  C   UNL     1      24.794  49.687  48.439  1.00  0.00     0.044 A 
HETATM   10  C   UNL     1      23.383  48.021  49.466  1.00  0.00     0.016 A 
HETATM   11  C   UNL     1      23.686  50.392  47.953  1.00  0.00     0.054 A 
HETATM   12  N   UNL     1      26.138  49.946  48.305  1.00  0.00    -0.365 N 
HETATM   13  C   UNL     1      22.419  49.880  48.248  1.00  0.00     0.036 A 
HETATM   14 CL   UNL     1      21.023  50.715  47.676  1.00  0.00    -0.084 Cl
HETATM   15  C   UNL     1      22.262  48.714  48.991  1.00  0.00     0.025 A 
HETATM   16  H   UNL     1      26.523  50.730  47.797  1.00  0.00     0.165 HD
HETATM   17  C   UNL     1      26.871  48.991  48.956  1.00  0.00     0.096 A 
ENDBRANCH   6   7
ENDBRANCH   5   6
ENDBRANCH   2   5
BRANCH   1  18
HETATM   18  C   UNL     1      26.770  44.171  54.235  1.00  0.00     0.111 C 
HETATM   19  C   UNL     1      25.865  43.302  55.104  1.00  0.00     0.025 C 
BRANCH  18  20
HETATM   20  C   UNL     1      27.921  43.453  53.575  1.00  0.00     0.004 A 
HETATM   21  C   UNL     1      27.965  42.631  52.457  1.00  0.00     0.033 A 
HETATM   22  C   UNL     1      26.938  42.145  51.505  1.00  0.00     0.070 C 
HETATM   23  N   UNL     1      29.274  42.254  52.322  1.00  0.00    -0.282 N 
HETATM   24  H   UNL     1      29.682  41.647  51.619  1.00  0.00     0.189 HD
HETATM   25  N   UNL     1      30.086  42.771  53.247  1.00  0.00    -0.179 NA
HETATM   26  C   UNL     1      29.279  43.501  54.021  1.00  0.00     0.060 A 
HETATM   27  C   UNL     1      29.839  44.241  55.183  1.00  0.00     0.073 C 
ENDBRANCH  18  20
ENDBRANCH   1  18
TORSDOF 5
ENDMDL
MODEL 7
REMARK VINA RESULT:      -7.1     12.427     14.014
REMARK  5 active torsions:
REMARK  status: ('A' for Active; 'I' for Inactive)
REMARK    1  A    between atoms: C_8  and  C_9 
REMARK    2  A    between atoms: C_9  and  C_10 
REMARK       I    between atoms: C_10  and  N_11 
REMARK    3  A    between atoms: N_11  and  C_12 
REMARK    4  A    between atoms: C_12  and  C_13 
REMARK    5  A    between atoms: C_13  and  C_14 
ROOT
HETATM    1  C   UNL     1      26.200  44.464  49.810  1.00  0.00     0.226 C 
HETATM    2  N   UNL     1      26.670  43.665  50.833  1.00  0.00    -0.360 N 
HETATM    3  O   UNL     1      26.936  45.165  49.118  1.00  0.00    -0.273 OA
HETATM    4  H   UNL     1      25.994  43.374  51.527  1.00  0.00     0.162 HD
ENDROOT
BRANCH   2   5
HETATM    5  C   UNL     1      28.064  43.694  51.239  1.00  0.00     0.127 C 
BRANCH   5   6
HETATM    6  C   UNL     1      28.314  43.053  52.609  1.00  0.00     0.060 C 
BRANCH   6   7
HETATM    7  C   UNL     1      28.393  44.072  53.704  1.00  0.00    -0.029 A 
HETATM    8  C   UNL     1      29.313  44.077  54.801  1.00  0.00    -0.002 A 
HETATM    9  C   UNL     1      29.040  45.209  55.570  1.00  0.00     0.044 A 
HETATM   10  C   UNL     1      30.356  43.220  55.208  1.00  0.00     0.016 A 
HETATM   11  C   UNL     1      29.764  45.534  56.725  1.00  0.00     0.054 A 
HETATM   12  N   UNL     1      27.986  45.859  54.974  1.00  0.00    -0.365 N 
HETATM   13  C   UNL     1      30.798  44.669  57.098  1.00  0.00     0.036 A 
HETATM   14 CL   UNL     1      31.723  45.029  58.508  1.00  0.00    -0.084 Cl
HETATM   15  C   UNL     1      31.094  43.529  56.358  1.00  0.00     0.025 A 
HETATM   16  H   UNL     1      27.566  46.711  55.322  1.00  0.00     0.165 HD
HETATM   17  C   UNL     1      27.590  45.187  53.849  1.00  0.00     0.096 A 
ENDBRANCH   6   7
ENDBRANCH   5   6
ENDBRANCH   2   5
BRANCH   1  18
HETATM   18  C   UNL     1      24.684  44.422  49.586  1.00  0.00     0.111 C 
HETATM   19  C   UNL     1      24.009  43.415  50.512  1.00  0.00     0.025 C 
BRANCH  18  20
HETATM   20  C   UNL     1      24.103  45.814  49.606  1.00  0.00     0.004 A 
HETATM   21  C   UNL     1      24.372  46.904  50.423  1.00  0.00     0.033 A 
HETATM   22  C   UNL     1      25.297  47.126  51.560  1.00  0.00     0.070 C 
HETATM   23  N   UNL     1      23.543  47.906  49.993  1.00  0.00    -0.282 N 
HETATM   24  H   UNL     1      23.456  48.848  50.360  1.00  0.00     0.189 HD
HETATM   25  N   UNL     1      22.770  47.565  48.960  1.00  0.00    -0.179 NA
HETATM   26  C   UNL     1      23.094  46.293  48.712  1.00  0.00     0.060 A 
HETATM   27  C   UNL     1      22.423  45.560  47.606  1.00  0.00     0.073 C 
ENDBRANCH  18  20
ENDBRANCH   1  18
TORSDOF 5
ENDMDL
MODEL 8
REMARK VINA RESULT:      -7.1      2.055      4.734
REMARK  5 active torsions:
REMARK  status: ('A' for Active; 'I' for Inactive)
REMARK    1  A    between atoms: C_8  and  C_9 
REMARK    2  A    between atoms: C_9  and  C_10 
REMARK       I    between atoms: C_10  and  N_11 
REMARK    3  A    between atoms: N_11  and  C_12 
REMARK    4  A    between atoms: C_12  and  C_13 
REMARK    5  A    between atoms: C_13  and  C_14 
ROOT
HETATM    1  C   UNL     1      27.978  49.615  41.095  1.00  0.00     0.226 C 
HETATM    2  N   UNL     1      27.667  49.732  39.755  1.00  0.00    -0.360 N 
HETATM    3  O   UNL     1      27.693  50.478  41.924  1.00  0.00    -0.273 OA
HETATM    4  H   UNL     1      28.191  49.148  39.117  1.00  0.00     0.162 HD
ENDROOT
BRANCH   2   5
HETATM    5  C   UNL     1      27.085  50.948  39.214  1.00  0.00     0.127 C 
BRANCH   5   6
HETATM    6  C   UNL     1      28.075  51.787  38.399  1.00  0.00     0.060 C 
BRANCH   6   7
HETATM    7  C   UNL     1      29.214  52.288  39.235  1.00  0.00    -0.029 A 
HETATM    8  C   UNL     1      30.603  51.992  39.051  1.00  0.00    -0.002 A 
HETATM    9  C   UNL     1      31.310  52.672  40.043  1.00  0.00     0.044 A 
HETATM   10  C   UNL     1      31.323  51.207  38.126  1.00  0.00     0.016 A 
HETATM   11  C   UNL     1      32.705  52.615  40.154  1.00  0.00     0.054 A 
HETATM   12  N   UNL     1      30.387  53.343  40.810  1.00  0.00    -0.365 N 
HETATM   13  C   UNL     1      33.392  51.836  39.219  1.00  0.00     0.036 A 
HETATM   14 CL   UNL     1      35.111  51.737  39.309  1.00  0.00    -0.084 Cl
HETATM   15  C   UNL     1      32.719  51.140  38.219  1.00  0.00     0.025 A 
HETATM   16  H   UNL     1      30.614  53.916  41.612  1.00  0.00     0.165 HD
HETATM   17  C   UNL     1      29.123  53.123  40.331  1.00  0.00     0.096 A 
ENDBRANCH   6   7
ENDBRANCH   5   6
ENDBRANCH   2   5
BRANCH   1  18
HETATM   18  C   UNL     1      28.708  48.327  41.492  1.00  0.00     0.111 C 
HETATM   19  C   UNL     1      27.865  47.091  41.191  1.00  0.00     0.025 C 
BRANCH  18  20
HETATM   20  C   UNL     1      30.107  48.312  40.929  1.00  0.00     0.004 A 
HETATM   21  C   UNL     1      30.600  47.842  39.720  1.00  0.00     0.033 A 
HETATM   22  C   UNL     1      29.975  47.187  38.546  1.00  0.00     0.070 C 
HETATM   23  N   UNL     1      31.948  48.082  39.748  1.00  0.00    -0.282 N 
HETATM   24  H   UNL     1      32.638  47.865  39.036  1.00  0.00     0.189 HD
HETATM   25  N   UNL     1      32.370  48.679  40.864  1.00  0.00    -0.179 NA
HETATM   26  C   UNL     1      31.263  48.825  41.598  1.00  0.00     0.060 A 
HETATM   27  C   UNL     1      31.343  49.464  42.938  1.00  0.00     0.073 C 
ENDBRANCH  18  20
ENDBRANCH   1  18
TORSDOF 5
ENDMDL
MODEL 9
REMARK VINA RESULT:      -7.1      2.698      4.513
REMARK  5 active torsions:
REMARK  status: ('A' for Active; 'I' for Inactive)
REMARK    1  A    between atoms: C_8  and  C_9 
REMARK    2  A    between atoms: C_9  and  C_10 
REMARK       I    between atoms: C_10  and  N_11 
REMARK    3  A    between atoms: N_11  and  C_12 
REMARK    4  A    between atoms: C_12  and  C_13 
REMARK    5  A    between atoms: C_13  and  C_14 
ROOT
HETATM    1  C   UNL     1      30.847  52.913  41.210  1.00  0.00     0.226 C 
HETATM    2  N   UNL     1      30.746  52.305  42.445  1.00  0.00    -0.360 N 
HETATM    3  O   UNL     1      31.922  53.263  40.725  1.00  0.00    -0.273 OA
HETATM    4  H   UNL     1      29.839  52.332  42.890  1.00  0.00     0.162 HD
ENDROOT
BRANCH   2   5
HETATM    5  C   UNL     1      31.903  52.148  43.310  1.00  0.00     0.127 C 
BRANCH   5   6
HETATM    6  C   UNL     1      32.218  50.685  43.646  1.00  0.00     0.060 C 
BRANCH   6   7
HETATM    7  C   UNL     1      32.287  49.826  42.420  1.00  0.00    -0.029 A 
HETATM    8  C   UNL     1      31.235  49.015  41.885  1.00  0.00    -0.002 A 
HETATM    9  C   UNL     1      31.728  48.396  40.736  1.00  0.00     0.044 A 
HETATM   10  C   UNL     1      29.905  48.754  42.275  1.00  0.00     0.016 A 
HETATM   11  C   UNL     1      30.955  47.532  39.949  1.00  0.00     0.054 A 
HETATM   12  N   UNL     1      33.033  48.801  40.586  1.00  0.00    -0.365 N 
HETATM   13  C   UNL     1      29.638  47.299  40.357  1.00  0.00     0.036 A 
HETATM   14 CL   UNL     1      28.643  46.248  39.419  1.00  0.00    -0.084 Cl
HETATM   15  C   UNL     1      29.115  47.896  41.500  1.00  0.00     0.025 A 
HETATM   16  H   UNL     1      33.645  48.501  39.839  1.00  0.00     0.165 HD
HETATM   17  C   UNL     1      33.379  49.665  41.590  1.00  0.00     0.096 A 
ENDBRANCH   6   7
ENDBRANCH   5   6
ENDBRANCH   2   5
BRANCH   1  18
HETATM   18  C   UNL     1      29.522  53.127  40.471  1.00  0.00     0.111 C 
HETATM   19  C   UNL     1      29.531  54.425  39.670  1.00  0.00     0.025 C 
BRANCH  18  20
HETATM   20  C   UNL     1      29.136  51.890  39.699  1.00  0.00     0.004 A 
HETATM   21  C   UNL     1      29.725  51.277  38.602  1.00  0.00     0.033 A 
HETATM   22  C   UNL     1      30.919  51.583  37.779  1.00  0.00     0.070 C 
HETATM   23  N   UNL     1      28.943  50.189  38.317  1.00  0.00    -0.282 N 
HETATM   24  H   UNL     1      29.062  49.509  37.574  1.00  0.00     0.189 HD
HETATM   25  N   UNL     1      27.906  50.036  39.143  1.00  0.00    -0.179 NA
HETATM   26  C   UNL     1      28.004  51.064  39.989  1.00  0.00     0.060 A 
HETATM   27  C   UNL     1      26.999  51.230  41.073  1.00  0.00     0.073 C 
ENDBRANCH  18  20
ENDBRANCH   1  18
TORSDOF 5
ENDMDL
MODEL 10
REMARK VINA RESULT:      -7.1      3.196      4.948
REMARK  5 active torsions:
REMARK  status: ('A' for Active; 'I' for Inactive)
REMARK    1  A    between atoms: C_8  and  C_9 
REMARK    2  A    between atoms: C_9  and  C_10 
REMARK       I    between atoms: C_10  and  N_11 
REMARK    3  A    between atoms: N_11  and  C_12 
REMARK    4  A    between atoms: C_12  and  C_13 
REMARK    5  A    between atoms: C_13  and  C_14 
ROOT
HETATM    1  C   UNL     1      30.820  52.341  41.949  1.00  0.00     0.226 C 
HETATM    2  N   UNL     1      31.605  51.220  41.769  1.00  0.00    -0.360 N 
HETATM    3  O   UNL     1      30.417  52.703  43.053  1.00  0.00    -0.273 OA
HETATM    4  H   UNL     1      31.632  50.831  40.836  1.00  0.00     0.162 HD
ENDROOT
BRANCH   2   5
HETATM    5  C   UNL     1      31.909  50.321  42.870  1.00  0.00     0.127 C 
BRANCH   5   6
HETATM    6  C   UNL     1      31.225  48.955  42.747  1.00  0.00     0.060 C 
BRANCH   6   7
HETATM    7  C   UNL     1      30.917  48.602  41.323  1.00  0.00    -0.029 A 
HETATM    8  C   UNL     1      29.617  48.446  40.744  1.00  0.00    -0.002 A 
HETATM    9  C   UNL     1      29.794  48.129  39.397  1.00  0.00     0.044 A 
HETATM   10  C   UNL     1      28.303  48.550  41.246  1.00  0.00     0.016 A 
HETATM   11  C   UNL     1      28.723  47.916  38.520  1.00  0.00     0.054 A 
HETATM   12  N   UNL     1      31.149  48.078  39.169  1.00  0.00    -0.365 N 
HETATM   13  C   UNL     1      27.432  48.033  39.045  1.00  0.00     0.036 A 
HETATM   14 CL   UNL     1      26.079  47.787  38.005  1.00  0.00    -0.084 Cl
HETATM   15  C   UNL     1      27.217  48.344  40.384  1.00  0.00     0.025 A 
HETATM   16  H   UNL     1      31.573  47.858  38.277  1.00  0.00     0.165 HD
HETATM   17  C   UNL     1      31.835  48.365  40.318  1.00  0.00     0.096 A 
ENDBRANCH   6   7
ENDBRANCH   5   6
ENDBRANCH   2   5
BRANCH   1  18
HETATM   18  C   UNL     1      30.477  53.116  40.673  1.00  0.00     0.111 C 
HETATM   19  C   UNL     1      31.022  54.541  40.720  1.00  0.00     0.025 C 
BRANCH  18  20
HETATM   20  C   UNL     1      30.850  52.319  39.448  1.00  0.00     0.004 A 
HETATM   21  C   UNL     1      32.087  52.025  38.891  1.00  0.00     0.033 A 
HETATM   22  C   UNL     1      33.482  52.367  39.259  1.00  0.00     0.070 C 
HETATM   23  N   UNL     1      31.826  51.271  37.778  1.00  0.00    -0.282 N 
HETATM   24  H   UNL     1      32.488  50.880  37.116  1.00  0.00     0.189 HD
HETATM   25  N   UNL     1      30.528  51.038  37.573  1.00  0.00    -0.179 NA
HETATM   26  C   UNL     1      29.917  51.672  38.578  1.00  0.00     0.060 A 
HETATM   27  C   UNL     1      28.434  51.637  38.682  1.00  0.00     0.073 C 
ENDBRANCH  18  20
ENDBRANCH   1  18
TORSDOF 5
ENDMDL
