MODEL 1
REMARK VINA RESULT:      -8.7      0.000      0.000
REMARK  8 active torsions:
REMARK  status: ('A' for Active; 'I' for Inactive)
REMARK    1  A    between atoms: O_2  and  C_3 
REMARK    2  A    between atoms: C_4  and  O_5 
REMARK    3  A    between atoms: N_12  and  N_13 
REMARK    4  A    between atoms: N_13  and  C_14 
REMARK    5  A    between atoms: C_14  and  N_15 
REMARK    6  A    between atoms: N_15  and  C_16 
REMARK    7  A    between atoms: C_16  and  C_17 
REMARK    8  A    between atoms: C_17  and  C_18 
ROOT
HETATM    1  C   UNL     1      29.542  45.133  55.693  1.00  0.00     0.102 A 
HETATM    2  C   UNL     1      30.509  44.126  55.481  1.00  0.00     0.103 A 
HETATM    3  C   UNL     1      30.294  43.149  54.501  1.00  0.00     0.070 A 
HETATM    4  C   UNL     1      29.125  43.176  53.739  1.00  0.00     0.053 A 
HETATM    5  C   UNL     1      28.183  44.180  53.933  1.00  0.00     0.063 A 
HETATM    6  C   UNL     1      26.967  44.187  53.095  1.00  0.00     0.281 C 
HETATM    7  O   UNL     1      26.205  45.152  53.121  1.00  0.00    -0.265 OA
HETATM    8  N   UNL     1      26.790  43.066  52.277  1.00  0.00    -0.190 N 
HETATM    9  C   UNL     1      27.752  42.083  52.041  1.00  0.00     0.201 C 
HETATM   10  S   UNL     1      27.641  40.814  50.947  1.00  0.00    -0.039 SA
HETATM   11  N   UNL     1      28.906  42.183  52.779  1.00  0.00    -0.331 N 
HETATM   12  C   UNL     1      28.387  45.164  54.905  1.00  0.00     0.059 A 
HETATM   13  H   UNL     1      29.597  41.456  52.632  1.00  0.00     0.168 HD
ENDROOT
BRANCH   8  14
HETATM   14  N   UNL     1      25.549  42.991  51.587  1.00  0.00    -0.264 N 
HETATM   15  H   UNL     1      25.019  42.157  51.813  1.00  0.00     0.190 HD
BRANCH  14  16
HETATM   16  C   UNL     1      25.460  43.419  50.282  1.00  0.00     0.187 C 
HETATM   17  S   UNL     1      25.255  42.468  48.920  1.00  0.00    -0.040 SA
BRANCH  16  18
HETATM   18  N   UNL     1      25.602  44.769  50.095  1.00  0.00    -0.366 N 
HETATM   19  H   UNL     1      26.398  45.121  50.619  1.00  0.00     0.161 HD
BRANCH  18  20
HETATM   20  C   UNL     1      24.492  45.707  49.957  1.00  0.00     0.126 C 
BRANCH  20  21
HETATM   21  C   UNL     1      24.758  47.012  50.708  1.00  0.00     0.058 C 
BRANCH  21  22
HETATM   22  C   UNL     1      25.401  48.047  49.822  1.00  0.00    -0.057 A 
HETATM   23  C   UNL     1      26.797  48.179  49.796  1.00  0.00     0.007 A 
HETATM   24  C   UNL     1      27.403  49.151  48.999  1.00  0.00     0.001 A 
HETATM   25  C   UNL     1      26.621  50.005  48.226  1.00  0.00     0.000 A 
HETATM   26  C   UNL     1      25.232  49.886  48.248  1.00  0.00     0.001 A 
HETATM   27  C   UNL     1      24.623  48.913  49.043  1.00  0.00     0.007 A 
ENDBRANCH  21  22
ENDBRANCH  20  21
ENDBRANCH  18  20
ENDBRANCH  16  18
ENDBRANCH  14  16
ENDBRANCH   8  14
BRANCH   1  28
HETATM   28  O   UNL     1      29.825  46.048  56.676  1.00  0.00    -0.353 OA
HETATM   29  C   UNL     1      28.920  46.128  57.769  1.00  0.00     0.210 C 
ENDBRANCH   1  28
BRANCH   2  30
HETATM   30  O   UNL     1      31.619  44.181  56.288  1.00  0.00    -0.353 OA
HETATM   31  C   UNL     1      31.769  43.179  57.283  1.00  0.00     0.210 C 
ENDBRANCH   2  30
TORSDOF 8
ENDMDL
MODEL 2
REMARK VINA RESULT:      -8.2     11.847     13.097
REMARK  8 active torsions:
REMARK  status: ('A' for Active; 'I' for Inactive)
REMARK    1  A    between atoms: O_2  and  C_3 
REMARK    2  A    between atoms: C_4  and  O_5 
REMARK    3  A    between atoms: N_12  and  N_13 
REMARK    4  A    between atoms: N_13  and  C_14 
REMARK    5  A    between atoms: C_14  and  N_15 
REMARK    6  A    between atoms: N_15  and  C_16 
REMARK    7  A    between atoms: C_16  and  C_17 
REMARK    8  A    between atoms: C_17  and  C_18 
ROOT
HETATM    1  C   UNL     1      32.777  50.495  42.736  1.00  0.00     0.102 A 
HETATM    2  C   UNL     1      33.606  49.721  41.895  1.00  0.00     0.103 A 
HETATM    3  C   UNL     1      33.038  48.751  41.060  1.00  0.00     0.070 A 
HETATM    4  C   UNL     1      31.656  48.553  41.065  1.00  0.00     0.053 A 
HETATM    5  C   UNL     1      30.839  49.331  41.877  1.00  0.00     0.063 A 
HETATM    6  C   UNL     1      29.379  49.107  41.842  1.00  0.00     0.281 C 
HETATM    7  O   UNL     1      28.620  49.889  42.412  1.00  0.00    -0.265 OA
HETATM    8  N   UNL     1      28.955  47.999  41.101  1.00  0.00    -0.190 N 
HETATM    9  C   UNL     1      29.763  47.248  40.245  1.00  0.00     0.201 C 
HETATM   10  S   UNL     1      29.262  46.016  39.219  1.00  0.00    -0.039 SA
HETATM   11  N   UNL     1      31.098  47.566  40.247  1.00  0.00    -0.331 N 
HETATM   12  C   UNL     1      31.391  50.307  42.712  1.00  0.00     0.059 A 
HETATM   13  H   UNL     1      31.695  47.005  39.648  1.00  0.00     0.168 HD
ENDROOT
BRANCH   8  14
HETATM   14  N   UNL     1      27.572  47.686  41.190  1.00  0.00    -0.264 N 
HETATM   15  H   UNL     1      27.399  46.725  41.466  1.00  0.00     0.190 HD
BRANCH  14  16
HETATM   16  C   UNL     1      26.687  48.212  40.276  1.00  0.00     0.187 C 
HETATM   17  S   UNL     1      25.638  47.366  39.284  1.00  0.00    -0.040 SA
BRANCH  16  18
HETATM   18  N   UNL     1      26.714  49.577  40.150  1.00  0.00    -0.366 N 
HETATM   19  H   UNL     1      25.852  49.985  40.498  1.00  0.00     0.161 HD
BRANCH  18  20
HETATM   20  C   UNL     1      27.330  50.292  39.036  1.00  0.00     0.126 C 
BRANCH  20  21
HETATM   21  C   UNL     1      27.903  51.639  39.478  1.00  0.00     0.058 C 
BRANCH  21  22
HETATM   22  C   UNL     1      29.399  51.696  39.304  1.00  0.00    -0.057 A 
HETATM   23  C   UNL     1      30.036  50.816  38.416  1.00  0.00     0.007 A 
HETATM   24  C   UNL     1      31.423  50.841  38.266  1.00  0.00     0.001 A 
HETATM   25  C   UNL     1      32.187  51.740  39.006  1.00  0.00     0.000 A 
HETATM   26  C   UNL     1      31.565  52.616  39.895  1.00  0.00     0.001 A 
HETATM   27  C   UNL     1      30.176  52.593  40.045  1.00  0.00     0.007 A 
ENDBRANCH  21  22
ENDBRANCH  20  21
ENDBRANCH  18  20
ENDBRANCH  16  18
ENDBRANCH  14  16
ENDBRANCH   8  14
BRANCH   1  28
HETATM   28  O   UNL     1      33.412  51.420  43.528  1.00  0.00    -0.353 OA
HETATM   29  C   UNL     1      32.690  51.926  44.643  1.00  0.00     0.210 C 
ENDBRANCH   1  28
BRANCH   2  30
HETATM   30  O   UNL     1      34.951  49.984  41.971  1.00  0.00    -0.353 OA
HETATM   31  C   UNL     1      35.636  50.312  40.771  1.00  0.00     0.210 C 
ENDBRANCH   2  30
TORSDOF 8
ENDMDL
MODEL 3
REMARK VINA RESULT:      -8.1      3.610      7.735
REMARK  8 active torsions:
REMARK  status: ('A' for Active; 'I' for Inactive)
REMARK    1  A    between atoms: O_2  and  C_3 
REMARK    2  A    between atoms: C_4  and  O_5 
REMARK    3  A    between atoms: N_12  and  N_13 
REMARK    4  A    between atoms: N_13  and  C_14 
REMARK    5  A    between atoms: C_14  and  N_15 
REMARK    6  A    between atoms: N_15  and  C_16 
REMARK    7  A    between atoms: C_16  and  C_17 
REMARK    8  A    between atoms: C_17  and  C_18 
ROOT
HETATM    1  C   UNL     1      28.512  39.329  49.385  1.00  0.00     0.102 A 
HETATM    2  C   UNL     1      28.113  39.688  48.079  1.00  0.00     0.103 A 
HETATM    3  C   UNL     1      27.360  40.851  47.876  1.00  0.00     0.070 A 
HETATM    4  C   UNL     1      27.009  41.650  48.965  1.00  0.00     0.053 A 
HETATM    5  C   UNL     1      27.421  41.308  50.248  1.00  0.00     0.063 A 
HETATM    6  C   UNL     1      27.047  42.187  51.374  1.00  0.00     0.281 C 
HETATM    7  O   UNL     1      27.540  42.009  52.487  1.00  0.00    -0.265 OA
HETATM    8  N   UNL     1      26.154  43.219  51.065  1.00  0.00    -0.190 N 
HETATM    9  C   UNL     1      25.778  43.596  49.775  1.00  0.00     0.201 C 
HETATM   10  S   UNL     1      24.839  44.923  49.353  1.00  0.00    -0.039 SA
HETATM   11  N   UNL     1      26.237  42.797  48.757  1.00  0.00    -0.331 N 
HETATM   12  C   UNL     1      28.177  40.152  50.465  1.00  0.00     0.059 A 
HETATM   13  H   UNL     1      25.943  43.050  47.820  1.00  0.00     0.168 HD
ENDROOT
BRANCH   8  14
HETATM   14  N   UNL     1      25.668  43.970  52.169  1.00  0.00    -0.264 N 
HETATM   15  H   UNL     1      24.658  44.063  52.173  1.00  0.00     0.190 HD
BRANCH  14  16
HETATM   16  C   UNL     1      26.369  45.066  52.618  1.00  0.00     0.187 C 
HETATM   17  S   UNL     1      26.136  46.664  52.177  1.00  0.00    -0.040 SA
BRANCH  16  18
HETATM   18  N   UNL     1      27.395  44.793  53.486  1.00  0.00    -0.366 N 
HETATM   19  H   UNL     1      27.762  43.861  53.323  1.00  0.00     0.161 HD
BRANCH  18  20
HETATM   20  C   UNL     1      27.445  45.241  54.875  1.00  0.00     0.126 C 
BRANCH  20  21
HETATM   21  C   UNL     1      28.734  46.006  55.175  1.00  0.00     0.058 C 
BRANCH  21  22
HETATM   22  C   UNL     1      29.703  45.176  55.977  1.00  0.00    -0.057 A 
HETATM   23  C   UNL     1      30.079  45.583  57.265  1.00  0.00     0.007 A 
HETATM   24  C   UNL     1      30.996  44.837  58.006  1.00  0.00     0.001 A 
HETATM   25  C   UNL     1      31.551  43.680  57.465  1.00  0.00     0.000 A 
HETATM   26  C   UNL     1      31.189  43.268  56.184  1.00  0.00     0.001 A 
HETATM   27  C   UNL     1      30.270  44.013  55.441  1.00  0.00     0.007 A 
ENDBRANCH  21  22
ENDBRANCH  20  21
ENDBRANCH  18  20
ENDBRANCH  16  18
ENDBRANCH  14  16
ENDBRANCH   8  14
BRANCH   1  28
HETATM   28  O   UNL     1      29.241  38.172  49.499  1.00  0.00    -0.353 OA
HETATM   29  C   UNL     1      29.884  37.929  50.744  1.00  0.00     0.210 C 
ENDBRANCH   1  28
BRANCH   2  30
HETATM   30  O   UNL     1      28.499  38.831  47.077  1.00  0.00    -0.353 OA
HETATM   31  C   UNL     1      27.830  38.922  45.828  1.00  0.00     0.210 C 
ENDBRANCH   2  30
TORSDOF 8
ENDMDL
MODEL 4
REMARK VINA RESULT:      -8.0      2.464      7.448
REMARK  8 active torsions:
REMARK  status: ('A' for Active; 'I' for Inactive)
REMARK    1  A    between atoms: O_2  and  C_3 
REMARK    2  A    between atoms: C_4  and  O_5 
REMARK    3  A    between atoms: N_12  and  N_13 
REMARK    4  A    between atoms: N_13  and  C_14 
REMARK    5  A    between atoms: C_14  and  N_15 
REMARK    6  A    between atoms: N_15  and  C_16 
REMARK    7  A    between atoms: C_16  and  C_17 
REMARK    8  A    between atoms: C_17  and  C_18 
ROOT
HETATM    1  C   UNL     1      25.937  48.594  49.243  1.00  0.00     0.102 A 
HETATM    2  C   UNL     1      24.538  48.731  49.382  1.00  0.00     0.103 A 
HETATM    3  C   UNL     1      23.746  47.598  49.605  1.00  0.00     0.070 A 
HETATM    4  C   UNL     1      24.342  46.339  49.687  1.00  0.00     0.053 A 
HETATM    5  C   UNL     1      25.721  46.207  49.572  1.00  0.00     0.063 A 
HETATM    6  C   UNL     1      26.320  44.862  49.684  1.00  0.00     0.281 C 
HETATM    7  O   UNL     1      27.541  44.732  49.761  1.00  0.00    -0.265 OA
HETATM    8  N   UNL     1      25.412  43.798  49.733  1.00  0.00    -0.190 N 
HETATM    9  C   UNL     1      24.032  43.927  49.899  1.00  0.00     0.201 C 
HETATM   10  S   UNL     1      22.929  42.680  50.123  1.00  0.00    -0.039 SA
HETATM   11  N   UNL     1      23.542  45.210  49.885  1.00  0.00    -0.331 N 
HETATM   12  C   UNL     1      26.526  47.330  49.354  1.00  0.00     0.059 A 
HETATM   13  H   UNL     1      22.537  45.308  49.977  1.00  0.00     0.168 HD
ENDROOT
BRANCH   8  14
HETATM   14  N   UNL     1      25.978  42.495  49.683  1.00  0.00    -0.264 N 
HETATM   15  H   UNL     1      25.385  41.822  49.210  1.00  0.00     0.190 HD
BRANCH  14  16
HETATM   16  C   UNL     1      26.690  42.012  50.757  1.00  0.00     0.187 C 
HETATM   17  S   UNL     1      27.652  40.643  50.798  1.00  0.00    -0.040 SA
BRANCH  16  18
HETATM   18  N   UNL     1      26.546  42.719  51.923  1.00  0.00    -0.366 N 
HETATM   19  H   UNL     1      25.978  43.547  51.771  1.00  0.00     0.161 HD
BRANCH  18  20
HETATM   20  C   UNL     1      27.586  42.862  52.938  1.00  0.00     0.126 C 
BRANCH  20  21
HETATM   21  C   UNL     1      27.659  44.292  53.474  1.00  0.00     0.058 C 
BRANCH  21  22
HETATM   22  C   UNL     1      28.738  44.446  54.515  1.00  0.00    -0.057 A 
HETATM   23  C   UNL     1      29.739  43.471  54.636  1.00  0.00     0.007 A 
HETATM   24  C   UNL     1      30.728  43.589  55.614  1.00  0.00     0.001 A 
HETATM   25  C   UNL     1      30.722  44.677  56.483  1.00  0.00     0.000 A 
HETATM   26  C   UNL     1      29.729  45.648  56.374  1.00  0.00     0.001 A 
HETATM   27  C   UNL     1      28.739  45.534  55.396  1.00  0.00     0.007 A 
ENDBRANCH  21  22
ENDBRANCH  20  21
ENDBRANCH  18  20
ENDBRANCH  16  18
ENDBRANCH  14  16
ENDBRANCH   8  14
BRANCH   1  28
HETATM   28  O   UNL     1      26.640  49.751  49.020  1.00  0.00    -0.353 OA
HETATM   29  C   UNL     1      28.052  49.695  49.181  1.00  0.00     0.210 C 
ENDBRANCH   1  28
BRANCH   2  30
HETATM   30  O   UNL     1      24.048  50.009  49.274  1.00  0.00    -0.353 OA
HETATM   31  C   UNL     1      22.640  50.178  49.185  1.00  0.00     0.210 C 
ENDBRANCH   2  30
TORSDOF 8
ENDMDL
MODEL 5
REMARK VINA RESULT:      -8.0      3.950      9.442
REMARK  8 active torsions:
REMARK  status: ('A' for Active; 'I' for Inactive)
REMARK    1  A    between atoms: O_2  and  C_3 
REMARK    2  A    between atoms: C_4  and  O_5 
REMARK    3  A    between atoms: N_12  and  N_13 
REMARK    4  A    between atoms: N_13  and  C_14 
REMARK    5  A    between atoms: C_14  and  N_15 
REMARK    6  A    between atoms: N_15  and  C_16 
REMARK    7  A    between atoms: C_16  and  C_17 
REMARK    8  A    between atoms: C_17  and  C_18 
ROOT
HETATM    1  C   UNL     1      20.875  48.673  48.421  1.00  0.00     0.102 A 
HETATM    2  C   UNL     1      21.412  49.921  48.039  1.00  0.00     0.103 A 
HETATM    3  C   UNL     1      22.793  50.139  48.118  1.00  0.00     0.070 A 
HETATM    4  C   UNL     1      23.631  49.120  48.576  1.00  0.00     0.053 A 
HETATM    5  C   UNL     1      23.104  47.884  48.931  1.00  0.00     0.063 A 
HETATM    6  C   UNL     1      24.022  46.824  49.392  1.00  0.00     0.281 C 
HETATM    7  O   UNL     1      23.613  45.674  49.546  1.00  0.00    -0.265 OA
HETATM    8  N   UNL     1      25.350  47.219  49.590  1.00  0.00    -0.190 N 
HETATM    9  C   UNL     1      25.894  48.440  49.188  1.00  0.00     0.201 C 
HETATM   10  S   UNL     1      27.510  48.889  49.261  1.00  0.00    -0.039 SA
HETATM   11  N   UNL     1      25.006  49.353  48.675  1.00  0.00    -0.331 N 
HETATM   12  C   UNL     1      21.727  47.651  48.853  1.00  0.00     0.059 A 
HETATM   13  H   UNL     1      25.391  50.252  48.408  1.00  0.00     0.168 HD
ENDROOT
BRANCH   8  14
HETATM   14  N   UNL     1      26.204  46.248  50.182  1.00  0.00    -0.264 N 
HETATM   15  H   UNL     1      26.275  45.396  49.636  1.00  0.00     0.190 HD
BRANCH  14  16
HETATM   16  C   UNL     1      26.218  46.085  51.548  1.00  0.00     0.187 C 
HETATM   17  S   UNL     1      25.710  47.185  52.702  1.00  0.00    -0.040 SA
BRANCH  16  18
HETATM   18  N   UNL     1      26.750  44.902  51.993  1.00  0.00    -0.366 N 
HETATM   19  H   UNL     1      26.921  44.273  51.215  1.00  0.00     0.161 HD
BRANCH  18  20
HETATM   20  C   UNL     1      26.383  44.249  53.246  1.00  0.00     0.126 C 
BRANCH  20  21
HETATM   21  C   UNL     1      27.357  43.127  53.605  1.00  0.00     0.058 C 
BRANCH  21  22
HETATM   22  C   UNL     1      28.505  43.629  54.443  1.00  0.00    -0.057 A 
HETATM   23  C   UNL     1      28.428  44.888  55.056  1.00  0.00     0.007 A 
HETATM   24  C   UNL     1      29.495  45.375  55.812  1.00  0.00     0.001 A 
HETATM   25  C   UNL     1      30.651  44.611  55.958  1.00  0.00     0.000 A 
HETATM   26  C   UNL     1      30.740  43.361  55.349  1.00  0.00     0.001 A 
HETATM   27  C   UNL     1      29.673  42.871  54.592  1.00  0.00     0.007 A 
ENDBRANCH  21  22
ENDBRANCH  20  21
ENDBRANCH  18  20
ENDBRANCH  16  18
ENDBRANCH  14  16
ENDBRANCH   8  14
BRANCH   1  28
HETATM   28  O   UNL     1      19.511  48.543  48.320  1.00  0.00    -0.353 OA
HETATM   29  C   UNL     1      19.009  47.810  47.211  1.00  0.00     0.210 C 
ENDBRANCH   1  28
BRANCH   2  30
HETATM   30  O   UNL     1      20.504  50.860  47.614  1.00  0.00    -0.353 OA
HETATM   31  C   UNL     1      20.088  51.852  48.540  1.00  0.00     0.210 C 
ENDBRANCH   2  30
TORSDOF 8
ENDMDL
MODEL 6
REMARK VINA RESULT:      -7.9      3.100      8.736
REMARK  8 active torsions:
REMARK  status: ('A' for Active; 'I' for Inactive)
REMARK    1  A    between atoms: O_2  and  C_3 
REMARK    2  A    between atoms: C_4  and  O_5 
REMARK    3  A    between atoms: N_12  and  N_13 
REMARK    4  A    between atoms: N_13  and  C_14 
REMARK    5  A    between atoms: C_14  and  N_15 
REMARK    6  A    between atoms: N_15  and  C_16 
REMARK    7  A    between atoms: C_16  and  C_17 
REMARK    8  A    between atoms: C_17  and  C_18 
ROOT
HETATM    1  C   UNL     1      22.474  49.037  48.834  1.00  0.00     0.102 A 
HETATM    2  C   UNL     1      21.763  48.084  48.073  1.00  0.00     0.103 A 
HETATM    3  C   UNL     1      22.166  46.742  48.084  1.00  0.00     0.070 A 
HETATM    4  C   UNL     1      23.269  46.355  48.846  1.00  0.00     0.053 A 
HETATM    5  C   UNL     1      23.955  47.290  49.613  1.00  0.00     0.063 A 
HETATM    6  C   UNL     1      25.106  46.841  50.423  1.00  0.00     0.281 C 
HETATM    7  O   UNL     1      25.621  47.602  51.240  1.00  0.00    -0.265 OA
HETATM    8  N   UNL     1      25.512  45.518  50.215  1.00  0.00    -0.190 N 
HETATM    9  C   UNL     1      24.799  44.563  49.487  1.00  0.00     0.201 C 
HETATM   10  S   UNL     1      25.166  42.931  49.347  1.00  0.00    -0.039 SA
HETATM   11  N   UNL     1      23.680  45.019  48.833  1.00  0.00    -0.331 N 
HETATM   12  C   UNL     1      23.562  48.632  49.615  1.00  0.00     0.059 A 
HETATM   13  H   UNL     1      23.174  44.336  48.280  1.00  0.00     0.168 HD
ENDROOT
BRANCH   8  14
HETATM   14  N   UNL     1      26.710  45.126  50.871  1.00  0.00    -0.264 N 
HETATM   15  H   UNL     1      27.445  44.853  50.227  1.00  0.00     0.190 HD
BRANCH  14  16
HETATM   16  C   UNL     1      26.650  44.410  52.044  1.00  0.00     0.187 C 
HETATM   17  S   UNL     1      25.581  44.637  53.312  1.00  0.00    -0.040 SA
BRANCH  16  18
HETATM   18  N   UNL     1      27.606  43.438  52.190  1.00  0.00    -0.366 N 
HETATM   19  H   UNL     1      27.586  42.797  51.402  1.00  0.00     0.161 HD
BRANCH  18  20
HETATM   20  C   UNL     1      27.987  42.836  53.464  1.00  0.00     0.126 C 
BRANCH  20  21
HETATM   21  C   UNL     1      29.499  42.894  53.686  1.00  0.00     0.058 C 
BRANCH  21  22
HETATM   22  C   UNL     1      29.855  43.700  54.908  1.00  0.00    -0.057 A 
HETATM   23  C   UNL     1      29.216  44.925  55.152  1.00  0.00     0.007 A 
HETATM   24  C   UNL     1      29.557  45.693  56.266  1.00  0.00     0.001 A 
HETATM   25  C   UNL     1      30.543  45.248  57.144  1.00  0.00     0.000 A 
HETATM   26  C   UNL     1      31.188  44.035  56.908  1.00  0.00     0.001 A 
HETATM   27  C   UNL     1      30.848  43.264  55.794  1.00  0.00     0.007 A 
ENDBRANCH  21  22
ENDBRANCH  20  21
ENDBRANCH  18  20
ENDBRANCH  16  18
ENDBRANCH  14  16
ENDBRANCH   8  14
BRANCH   1  28
HETATM   28  O   UNL     1      22.020  50.330  48.764  1.00  0.00    -0.353 OA
HETATM   29  C   UNL     1      21.377  50.857  49.917  1.00  0.00     0.210 C 
ENDBRANCH   1  28
BRANCH   2  30
HETATM   30  O   UNL     1      20.701  48.566  47.348  1.00  0.00    -0.353 OA
HETATM   31  C   UNL     1      19.391  48.262  47.803  1.00  0.00     0.210 C 
ENDBRANCH   2  30
TORSDOF 8
ENDMDL
MODEL 7
REMARK VINA RESULT:      -7.9      4.249      6.026
REMARK  8 active torsions:
REMARK  status: ('A' for Active; 'I' for Inactive)
REMARK    1  A    between atoms: O_2  and  C_3 
REMARK    2  A    between atoms: C_4  and  O_5 
REMARK    3  A    between atoms: N_12  and  N_13 
REMARK    4  A    between atoms: N_13  and  C_14 
REMARK    5  A    between atoms: C_14  and  N_15 
REMARK    6  A    between atoms: N_15  and  C_16 
REMARK    7  A    between atoms: C_16  and  C_17 
REMARK    8  A    between atoms: C_17  and  C_18 
ROOT
HETATM    1  C   UNL     1      26.470  46.365  53.402  1.00  0.00     0.102 A 
HETATM    2  C   UNL     1      26.238  44.976  53.501  1.00  0.00     0.103 A 
HETATM    3  C   UNL     1      25.453  44.331  52.538  1.00  0.00     0.070 A 
HETATM    4  C   UNL     1      24.902  45.064  51.486  1.00  0.00     0.053 A 
HETATM    5  C   UNL     1      25.148  46.428  51.377  1.00  0.00     0.063 A 
HETATM    6  C   UNL     1      24.565  47.169  50.240  1.00  0.00     0.281 C 
HETATM    7  O   UNL     1      24.904  48.331  50.020  1.00  0.00    -0.265 OA
HETATM    8  N   UNL     1      23.663  46.449  49.449  1.00  0.00    -0.190 N 
HETATM    9  C   UNL     1      23.451  45.071  49.522  1.00  0.00     0.201 C 
HETATM   10  S   UNL     1      22.503  44.147  48.490  1.00  0.00    -0.039 SA
HETATM   11  N   UNL     1      24.098  44.418  50.542  1.00  0.00    -0.331 N 
HETATM   12  C   UNL     1      25.934  47.085  52.329  1.00  0.00     0.059 A 
HETATM   13  H   UNL     1      23.926  43.421  50.618  1.00  0.00     0.168 HD
ENDROOT
BRANCH   8  14
HETATM   14  N   UNL     1      22.980  47.196  48.451  1.00  0.00    -0.264 N 
HETATM   15  H   UNL     1      23.605  47.735  47.861  1.00  0.00     0.190 HD
BRANCH  14  16
HETATM   16  C   UNL     1      21.773  47.790  48.741  1.00  0.00     0.187 C 
HETATM   17  S   UNL     1      20.284  47.433  48.067  1.00  0.00    -0.040 SA
BRANCH  16  18
HETATM   18  N   UNL     1      21.825  48.813  49.653  1.00  0.00    -0.366 N 
HETATM   19  H   UNL     1      21.292  48.577  50.485  1.00  0.00     0.161 HD
BRANCH  18  20
HETATM   20  C   UNL     1      21.834  50.231  49.306  1.00  0.00     0.126 C 
BRANCH  20  21
HETATM   21  C   UNL     1      20.805  51.017  50.120  1.00  0.00     0.058 C 
BRANCH  21  22
HETATM   22  C   UNL     1      19.630  51.440  49.277  1.00  0.00    -0.057 A 
HETATM   23  C   UNL     1      18.550  52.114  49.866  1.00  0.00     0.007 A 
HETATM   24  C   UNL     1      17.444  52.487  49.101  1.00  0.00     0.001 A 
HETATM   25  C   UNL     1      17.403  52.185  47.743  1.00  0.00     0.000 A 
HETATM   26  C   UNL     1      18.468  51.510  47.148  1.00  0.00     0.001 A 
HETATM   27  C   UNL     1      19.577  51.137  47.911  1.00  0.00     0.007 A 
ENDBRANCH  21  22
ENDBRANCH  20  21
ENDBRANCH  18  20
ENDBRANCH  16  18
ENDBRANCH  14  16
ENDBRANCH   8  14
BRANCH   1  28
HETATM   28  O   UNL     1      27.245  46.923  54.389  1.00  0.00    -0.353 OA
HETATM   29  C   UNL     1      26.618  47.856  55.258  1.00  0.00     0.210 C 
ENDBRANCH   1  28
BRANCH   2  30
HETATM   30  O   UNL     1      26.815  44.347  54.577  1.00  0.00    -0.353 OA
HETATM   31  C   UNL     1      27.363  43.052  54.378  1.00  0.00     0.210 C 
ENDBRANCH   2  30
TORSDOF 8
ENDMDL
MODEL 8
REMARK VINA RESULT:      -7.7      3.525      6.788
REMARK  8 active torsions:
REMARK  status: ('A' for Active; 'I' for Inactive)
REMARK    1  A    between atoms: O_2  and  C_3 
REMARK    2  A    between atoms: C_4  and  O_5 
REMARK    3  A    between atoms: N_12  and  N_13 
REMARK    4  A    between atoms: N_13  and  C_14 
REMARK    5  A    between atoms: C_14  and  N_15 
REMARK    6  A    between atoms: N_15  and  C_16 
REMARK    7  A    between atoms: C_16  and  C_17 
REMARK    8  A    between atoms: C_17  and  C_18 
ROOT
HETATM    1  C   UNL     1      28.667  45.617  55.062  1.00  0.00     0.102 A 
HETATM    2  C   UNL     1      27.662  46.532  54.679  1.00  0.00     0.103 A 
HETATM    3  C   UNL     1      26.678  46.141  53.762  1.00  0.00     0.070 A 
HETATM    4  C   UNL     1      26.696  44.850  53.232  1.00  0.00     0.053 A 
HETATM    5  C   UNL     1      27.673  43.943  53.627  1.00  0.00     0.063 A 
HETATM    6  C   UNL     1      27.650  42.579  53.060  1.00  0.00     0.281 C 
HETATM    7  O   UNL     1      28.389  41.707  53.516  1.00  0.00    -0.265 OA
HETATM    8  N   UNL     1      26.726  42.368  52.031  1.00  0.00    -0.190 N 
HETATM    9  C   UNL     1      25.712  43.255  51.667  1.00  0.00     0.201 C 
HETATM   10  S   UNL     1      24.488  42.975  50.552  1.00  0.00    -0.039 SA
HETATM   11  N   UNL     1      25.725  44.474  52.299  1.00  0.00    -0.331 N 
HETATM   12  C   UNL     1      28.659  44.317  54.544  1.00  0.00     0.059 A 
HETATM   13  H   UNL     1      25.008  45.134  52.018  1.00  0.00     0.168 HD
ENDROOT
BRANCH   8  14
HETATM   14  N   UNL     1      26.804  41.109  51.375  1.00  0.00    -0.264 N 
HETATM   15  H   UNL     1      26.731  40.324  52.013  1.00  0.00     0.190 HD
BRANCH  14  16
HETATM   16  C   UNL     1      27.665  40.938  50.315  1.00  0.00     0.187 C 
HETATM   17  S   UNL     1      27.346  41.230  48.698  1.00  0.00    -0.040 SA
BRANCH  16  18
HETATM   18  N   UNL     1      28.898  40.432  50.635  1.00  0.00    -0.366 N 
HETATM   19  H   UNL     1      29.571  40.644  49.904  1.00  0.00     0.161 HD
BRANCH  18  20
HETATM   20  C   UNL     1      29.119  39.166  51.328  1.00  0.00     0.126 C 
BRANCH  20  21
HETATM   21  C   UNL     1      29.718  38.110  50.399  1.00  0.00     0.058 C 
BRANCH  21  22
HETATM   22  C   UNL     1      28.736  37.672  49.343  1.00  0.00    -0.057 A 
HETATM   23  C   UNL     1      29.042  37.846  47.985  1.00  0.00     0.007 A 
HETATM   24  C   UNL     1      28.130  37.469  46.999  1.00  0.00     0.001 A 
HETATM   25  C   UNL     1      26.901  36.920  47.360  1.00  0.00     0.000 A 
HETATM   26  C   UNL     1      26.585  36.747  48.706  1.00  0.00     0.001 A 
HETATM   27  C   UNL     1      27.498  37.123  49.695  1.00  0.00     0.007 A 
ENDBRANCH  21  22
ENDBRANCH  20  21
ENDBRANCH  18  20
ENDBRANCH  16  18
ENDBRANCH  14  16
ENDBRANCH   8  14
BRANCH   1  28
HETATM   28  O   UNL     1      29.598  46.080  55.959  1.00  0.00    -0.353 OA
HETATM   29  C   UNL     1      30.534  45.140  56.467  1.00  0.00     0.210 C 
ENDBRANCH   1  28
BRANCH   2  30
HETATM   30  O   UNL     1      27.737  47.779  55.247  1.00  0.00    -0.353 OA
HETATM   31  C   UNL     1      26.522  48.442  55.565  1.00  0.00     0.210 C 
ENDBRANCH   2  30
TORSDOF 8
ENDMDL
MODEL 9
REMARK VINA RESULT:      -7.7     11.749     13.500
REMARK  8 active torsions:
REMARK  status: ('A' for Active; 'I' for Inactive)
REMARK    1  A    between atoms: O_2  and  C_3 
REMARK    2  A    between atoms: C_4  and  O_5 
REMARK    3  A    between atoms: N_12  and  N_13 
REMARK    4  A    between atoms: N_13  and  C_14 
REMARK    5  A    between atoms: C_14  and  N_15 
REMARK    6  A    between atoms: N_15  and  C_16 
REMARK    7  A    between atoms: C_16  and  C_17 
REMARK    8  A    between atoms: C_17  and  C_18 
ROOT
HETATM    1  C   UNL     1      32.932  50.930  41.341  1.00  0.00     0.102 A 
HETATM    2  C   UNL     1      32.541  50.613  42.660  1.00  0.00     0.103 A 
HETATM    3  C   UNL     1      31.473  49.734  42.877  1.00  0.00     0.070 A 
HETATM    4  C   UNL     1      30.800  49.176  41.789  1.00  0.00     0.053 A 
HETATM    5  C   UNL     1      31.199  49.472  40.490  1.00  0.00     0.063 A 
HETATM    6  C   UNL     1      30.477  48.849  39.363  1.00  0.00     0.281 C 
HETATM    7  O   UNL     1      30.912  48.951  38.217  1.00  0.00    -0.265 OA
HETATM    8  N   UNL     1      29.326  48.130  39.706  1.00  0.00    -0.190 N 
HETATM    9  C   UNL     1      28.950  47.789  41.007  1.00  0.00     0.201 C 
HETATM   10  S   UNL     1      27.670  46.796  41.451  1.00  0.00    -0.039 SA
HETATM   11  N   UNL     1      29.719  48.319  42.013  1.00  0.00    -0.331 N 
HETATM   12  C   UNL     1      32.267  50.344  40.258  1.00  0.00     0.059 A 
HETATM   13  H   UNL     1      29.433  48.097  42.961  1.00  0.00     0.168 HD
ENDROOT
BRANCH   8  14
HETATM   14  N   UNL     1      28.540  47.661  38.619  1.00  0.00    -0.264 N 
HETATM   15  H   UNL     1      29.096  47.265  37.869  1.00  0.00     0.190 HD
BRANCH  14  16
HETATM   16  C   UNL     1      27.420  48.359  38.227  1.00  0.00     0.187 C 
HETATM   17  S   UNL     1      25.854  47.779  38.124  1.00  0.00    -0.040 SA
BRANCH  16  18
HETATM   18  N   UNL     1      27.642  49.656  37.841  1.00  0.00    -0.366 N 
HETATM   19  H   UNL     1      28.620  49.798  37.610  1.00  0.00     0.161 HD
BRANCH  18  20
HETATM   20  C   UNL     1      26.970  50.817  38.418  1.00  0.00     0.126 C 
BRANCH  20  21
HETATM   21  C   UNL     1      27.164  50.887  39.933  1.00  0.00     0.058 C 
BRANCH  21  22
HETATM   22  C   UNL     1      28.319  51.779  40.309  1.00  0.00    -0.057 A 
HETATM   23  C   UNL     1      28.651  51.967  41.659  1.00  0.00     0.007 A 
HETATM   24  C   UNL     1      29.701  52.812  42.020  1.00  0.00     0.001 A 
HETATM   25  C   UNL     1      30.425  53.482  41.038  1.00  0.00     0.000 A 
HETATM   26  C   UNL     1      30.101  53.306  39.693  1.00  0.00     0.001 A 
HETATM   27  C   UNL     1      29.052  52.460  39.329  1.00  0.00     0.007 A 
ENDBRANCH  21  22
ENDBRANCH  20  21
ENDBRANCH  18  20
ENDBRANCH  16  18
ENDBRANCH  14  16
ENDBRANCH   8  14
BRANCH   1  28
HETATM   28  O   UNL     1      33.983  51.804  41.214  1.00  0.00    -0.353 OA
HETATM   29  C   UNL     1      34.303  52.249  39.902  1.00  0.00     0.210 C 
ENDBRANCH   1  28
BRANCH   2  30
HETATM   30  O   UNL     1      33.258  51.221  43.661  1.00  0.00    -0.353 OA
HETATM   31  C   UNL     1      32.538  51.901  44.679  1.00  0.00     0.210 C 
ENDBRANCH   2  30
TORSDOF 8
ENDMDL
MODEL 10
REMARK VINA RESULT:      -7.6      4.166      8.009
REMARK  8 active torsions:
REMARK  status: ('A' for Active; 'I' for Inactive)
REMARK    1  A    between atoms: O_2  and  C_3 
REMARK    2  A    between atoms: C_4  and  O_5 
REMARK    3  A    between atoms: N_12  and  N_13 
REMARK    4  A    between atoms: N_13  and  C_14 
REMARK    5  A    between atoms: C_14  and  N_15 
REMARK    6  A    between atoms: N_15  and  C_16 
REMARK    7  A    between atoms: C_16  and  C_17 
REMARK    8  A    between atoms: C_17  and  C_18 
ROOT
HETATM    1  C   UNL     1      26.558  40.022  47.423  1.00  0.00     0.102 A 
HETATM    2  C   UNL     1      27.855  39.504  47.631  1.00  0.00     0.103 A 
HETATM    3  C   UNL     1      28.522  39.760  48.836  1.00  0.00     0.070 A 
HETATM    4  C   UNL     1      27.901  40.527  49.823  1.00  0.00     0.053 A 
HETATM    5  C   UNL     1      26.616  41.018  49.626  1.00  0.00     0.063 A 
HETATM    6  C   UNL     1      25.983  41.809  50.701  1.00  0.00     0.281 C 
HETATM    7  O   UNL     1      24.791  42.107  50.629  1.00  0.00    -0.265 OA
HETATM    8  N   UNL     1      26.813  42.139  51.778  1.00  0.00    -0.190 N 
HETATM    9  C   UNL     1      28.084  41.609  52.005  1.00  0.00     0.201 C 
HETATM   10  S   UNL     1      29.044  41.853  53.360  1.00  0.00    -0.039 SA
HETATM   11  N   UNL     1      28.583  40.800  51.014  1.00  0.00    -0.331 N 
HETATM   12  C   UNL     1      25.936  40.766  48.431  1.00  0.00     0.059 A 
HETATM   13  H   UNL     1      29.517  40.434  51.160  1.00  0.00     0.168 HD
ENDROOT
BRANCH   8  14
HETATM   14  N   UNL     1      26.259  43.029  52.738  1.00  0.00    -0.264 N 
HETATM   15  H   UNL     1      25.321  42.771  53.024  1.00  0.00     0.190 HD
BRANCH  14  16
HETATM   16  C   UNL     1      26.504  44.380  52.645  1.00  0.00     0.187 C 
HETATM   17  S   UNL     1      26.405  45.333  51.273  1.00  0.00    -0.040 SA
BRANCH  16  18
HETATM   18  N   UNL     1      26.915  44.984  53.806  1.00  0.00    -0.366 N 
HETATM   19  H   UNL     1      26.187  45.593  54.168  1.00  0.00     0.161 HD
BRANCH  18  20
HETATM   20  C   UNL     1      28.280  45.431  54.068  1.00  0.00     0.126 C 
BRANCH  20  21
HETATM   21  C   UNL     1      28.407  46.078  55.448  1.00  0.00     0.058 C 
BRANCH  21  22
HETATM   22  C   UNL     1      29.498  45.438  56.267  1.00  0.00    -0.057 A 
HETATM   23  C   UNL     1      30.267  44.398  55.723  1.00  0.00     0.007 A 
HETATM   24  C   UNL     1      31.262  43.780  56.481  1.00  0.00     0.001 A 
HETATM   25  C   UNL     1      31.495  44.190  57.792  1.00  0.00     0.000 A 
HETATM   26  C   UNL     1      30.733  45.218  58.344  1.00  0.00     0.001 A 
HETATM   27  C   UNL     1      29.738  45.840  57.586  1.00  0.00     0.007 A 
ENDBRANCH  21  22
ENDBRANCH  20  21
ENDBRANCH  18  20
ENDBRANCH  16  18
ENDBRANCH  14  16
ENDBRANCH   8  14
BRANCH   1  28
HETATM   28  O   UNL     1      25.977  39.731  46.214  1.00  0.00    -0.353 OA
HETATM   29  C   UNL     1      26.028  40.735  45.209  1.00  0.00     0.210 C 
ENDBRANCH   1  28
BRANCH   2  30
HETATM   30  O   UNL     1      28.383  38.772  46.596  1.00  0.00    -0.353 OA
HETATM   31  C   UNL     1      28.844  37.458  46.875  1.00  0.00     0.210 C 
ENDBRANCH   2  30
TORSDOF 8
ENDMDL
