MODEL 1
REMARK VINA RESULT:      -9.3      0.000      0.000
REMARK  3 active torsions:
REMARK  status: ('A' for Active; 'I' for Inactive)
REMARK    1  A    between atoms: O_2  and  C_3 
REMARK    2  A    between atoms: C_7  and  C_8 
REMARK    3  A    between atoms: C_19  and  N_20 
ROOT
HETATM    1  C   UNL     1      27.196  42.693  52.801  1.00  0.00     0.244 A 
HETATM    2  N   UNL     1      27.032  43.533  51.637  1.00  0.00    -0.151 N 
HETATM    3  C   UNL     1      27.193  43.019  50.376  1.00  0.00     0.734 A 
HETATM    4  N   UNL     1      26.990  43.967  49.487  1.00  0.00    -0.060 NA
HETATM    5  C   UNL     1      26.675  45.102  50.193  1.00  0.00     0.103 A 
HETATM    6  C   UNL     1      26.674  44.851  51.561  1.00  0.00     0.083 A 
HETATM    7  C   UNL     1      26.372  46.388  49.727  1.00  0.00     0.034 A 
HETATM    8  C   UNL     1      26.072  47.387  50.658  1.00  0.00     0.002 A 
HETATM    9  C   UNL     1      26.070  47.111  52.027  1.00  0.00     0.002 A 
HETATM   10  C   UNL     1      26.370  45.833  52.512  1.00  0.00     0.033 A 
HETATM   11  N   UNL     1      27.513  41.726  50.146  1.00  0.00    -0.033 NA
HETATM   12  C   UNL     1      27.652  40.930  51.143  1.00  0.00     0.193 A 
HETATM   13  N   UNL     1      27.507  41.300  52.485  1.00  0.00    -0.339 N 
HETATM   14  H   UNL     1      27.743  40.655  53.222  1.00  0.00     0.164 HD
ENDROOT
BRANCH   1  15
HETATM   15  C   UNL     1      28.294  43.203  53.718  1.00  0.00    -0.014 A 
HETATM   16  C   UNL     1      28.059  44.264  54.613  1.00  0.00     0.033 A 
HETATM   17  C   UNL     1      29.071  44.712  55.468  1.00  0.00     0.044 A 
HETATM   18  C   UNL     1      30.326  44.102  55.449  1.00  0.00     0.085 A 
HETATM   19 BR   UNL     1      28.679  46.139  56.654  1.00  0.00    -0.048 Br
HETATM   20  C   UNL     1      30.584  43.077  54.537  1.00  0.00     0.039 A 
HETATM   21  C   UNL     1      29.576  42.629  53.677  1.00  0.00     0.014 A 
BRANCH  18  22
HETATM   22  O   UNL     1      31.318  44.563  56.272  1.00  0.00    -0.355 OA
HETATM   23  C   UNL     1      31.665  43.611  57.279  1.00  0.00     0.210 C 
ENDBRANCH  18  22
ENDBRANCH   1  15
BRANCH  12  24
HETATM   24  N   UNL     1      27.976  39.629  50.999  1.00  0.00    -0.272 NA
HETATM   25  H   UNL     1      28.782  39.389  51.573  1.00  0.00     0.127 HD
HETATM   26  H   UNL     1      28.094  39.291  50.053  1.00  0.00     0.127 HD
ENDBRANCH  12  24
TORSDOF 3
ENDMDL
MODEL 2
REMARK VINA RESULT:      -8.4      3.922      6.910
REMARK  3 active torsions:
REMARK  status: ('A' for Active; 'I' for Inactive)
REMARK    1  A    between atoms: O_2  and  C_3 
REMARK    2  A    between atoms: C_7  and  C_8 
REMARK    3  A    between atoms: C_19  and  N_20 
ROOT
HETATM    1  C   UNL     1      25.964  45.929  54.350  1.00  0.00     0.244 A 
HETATM    2  N   UNL     1      27.319  45.496  54.602  1.00  0.00    -0.151 N 
HETATM    3  C   UNL     1      28.220  46.335  55.206  1.00  0.00     0.734 A 
HETATM    4  N   UNL     1      29.376  45.720  55.331  1.00  0.00    -0.060 NA
HETATM    5  C   UNL     1      29.205  44.459  54.816  1.00  0.00     0.103 A 
HETATM    6  C   UNL     1      27.901  44.281  54.363  1.00  0.00     0.083 A 
HETATM    7  C   UNL     1      30.123  43.407  54.705  1.00  0.00     0.034 A 
HETATM    8  C   UNL     1      29.697  42.199  54.142  1.00  0.00     0.002 A 
HETATM    9  C   UNL     1      28.382  42.041  53.702  1.00  0.00     0.002 A 
HETATM   10  C   UNL     1      27.450  43.079  53.804  1.00  0.00     0.033 A 
HETATM   11  N   UNL     1      27.908  47.593  55.591  1.00  0.00    -0.033 NA
HETATM   12  C   UNL     1      26.713  48.023  55.408  1.00  0.00     0.193 A 
HETATM   13  N   UNL     1      25.680  47.284  54.820  1.00  0.00    -0.339 N 
HETATM   14  H   UNL     1      24.798  47.720  54.602  1.00  0.00     0.164 HD
ENDROOT
BRANCH   1  15
HETATM   15  C   UNL     1      25.619  45.882  52.872  1.00  0.00    -0.014 A 
HETATM   16  C   UNL     1      26.088  46.870  51.985  1.00  0.00     0.033 A 
HETATM   17  C   UNL     1      25.782  46.807  50.622  1.00  0.00     0.044 A 
HETATM   18  C   UNL     1      25.014  45.752  50.125  1.00  0.00     0.085 A 
HETATM   19 BR   UNL     1      26.456  48.166  49.485  1.00  0.00    -0.048 Br
HETATM   20  C   UNL     1      24.509  44.790  51.001  1.00  0.00     0.039 A 
HETATM   21  C   UNL     1      24.809  44.852  52.365  1.00  0.00     0.014 A 
BRANCH  18  22
HETATM   22  O   UNL     1      24.699  45.711  48.793  1.00  0.00    -0.355 OA
HETATM   23  C   UNL     1      23.777  44.663  48.492  1.00  0.00     0.210 C 
ENDBRANCH  18  22
ENDBRANCH   1  15
BRANCH  12  24
HETATM   24  N   UNL     1      26.323  49.266  55.758  1.00  0.00    -0.272 NA
HETATM   25  H   UNL     1      27.121  49.833  56.036  1.00  0.00     0.127 HD
HETATM   26  H   UNL     1      25.578  49.334  56.438  1.00  0.00     0.127 HD
ENDBRANCH  12  24
TORSDOF 3
ENDMDL
MODEL 3
REMARK VINA RESULT:      -8.2      8.891     11.099
REMARK  3 active torsions:
REMARK  status: ('A' for Active; 'I' for Inactive)
REMARK    1  A    between atoms: O_2  and  C_3 
REMARK    2  A    between atoms: C_7  and  C_8 
REMARK    3  A    between atoms: C_19  and  N_20 
ROOT
HETATM    1  C   UNL     1      19.708  50.257  49.467  1.00  0.00     0.244 A 
HETATM    2  N   UNL     1      18.766  49.570  48.615  1.00  0.00    -0.151 N 
HETATM    3  C   UNL     1      17.911  48.630  49.131  1.00  0.00     0.734 A 
HETATM    4  N   UNL     1      17.154  48.150  48.168  1.00  0.00    -0.060 NA
HETATM    5  C   UNL     1      17.518  48.809  47.021  1.00  0.00     0.103 A 
HETATM    6  C   UNL     1      18.527  49.733  47.277  1.00  0.00     0.083 A 
HETATM    7  C   UNL     1      17.024  48.672  45.717  1.00  0.00     0.034 A 
HETATM    8  C   UNL     1      17.561  49.476  44.706  1.00  0.00     0.002 A 
HETATM    9  C   UNL     1      18.567  50.401  44.988  1.00  0.00     0.002 A 
HETATM   10  C   UNL     1      19.074  50.553  46.283  1.00  0.00     0.033 A 
HETATM   11  N   UNL     1      17.898  48.291  50.440  1.00  0.00    -0.033 NA
HETATM   12  C   UNL     1      18.700  48.884  51.246  1.00  0.00     0.193 A 
HETATM   13  N   UNL     1      19.620  49.872  50.875  1.00  0.00    -0.339 N 
HETATM   14  H   UNL     1      20.299  50.214  51.536  1.00  0.00     0.164 HD
ENDROOT
BRANCH   1  15
HETATM   15  C   UNL     1      21.143  50.031  49.026  1.00  0.00    -0.014 A 
HETATM   16  C   UNL     1      21.773  48.786  49.214  1.00  0.00     0.033 A 
HETATM   17  C   UNL     1      23.089  48.582  48.785  1.00  0.00     0.044 A 
HETATM   18  C   UNL     1      23.788  49.613  48.156  1.00  0.00     0.085 A 
HETATM   19 BR   UNL     1      23.870  46.877  49.062  1.00  0.00    -0.048 Br
HETATM   20  C   UNL     1      23.189  50.864  48.001  1.00  0.00     0.039 A 
HETATM   21  C   UNL     1      21.875  51.073  48.433  1.00  0.00     0.014 A 
BRANCH  18  22
HETATM   22  O   UNL     1      25.084  49.412  47.761  1.00  0.00    -0.355 OA
HETATM   23  C   UNL     1      26.019  49.860  48.743  1.00  0.00     0.210 C 
ENDBRANCH  18  22
ENDBRANCH   1  15
BRANCH  12  24
HETATM   24  N   UNL     1      18.753  48.600  52.563  1.00  0.00    -0.272 NA
HETATM   25  H   UNL     1      17.963  48.023  52.844  1.00  0.00     0.127 HD
HETATM   26  H   UNL     1      18.870  49.383  53.194  1.00  0.00     0.127 HD
ENDBRANCH  12  24
TORSDOF 3
ENDMDL
MODEL 4
REMARK VINA RESULT:      -8.2     13.132     14.730
REMARK  3 active torsions:
REMARK  status: ('A' for Active; 'I' for Inactive)
REMARK    1  A    between atoms: O_2  and  C_3 
REMARK    2  A    between atoms: C_7  and  C_8 
REMARK    3  A    between atoms: C_19  and  N_20 
ROOT
HETATM    1  C   UNL     1      30.912  48.743  39.614  1.00  0.00     0.244 A 
HETATM    2  N   UNL     1      30.989  50.054  40.216  1.00  0.00    -0.151 N 
HETATM    3  C   UNL     1      31.851  50.298  41.254  1.00  0.00     0.734 A 
HETATM    4  N   UNL     1      31.743  51.554  41.627  1.00  0.00    -0.060 NA
HETATM    5  C   UNL     1      30.811  52.128  40.799  1.00  0.00     0.103 A 
HETATM    6  C   UNL     1      30.328  51.204  39.878  1.00  0.00     0.083 A 
HETATM    7  C   UNL     1      30.328  53.444  40.774  1.00  0.00     0.034 A 
HETATM    8  C   UNL     1      29.371  53.790  39.815  1.00  0.00     0.002 A 
HETATM    9  C   UNL     1      28.907  52.848  38.896  1.00  0.00     0.002 A 
HETATM   10  C   UNL     1      29.377  51.530  38.904  1.00  0.00     0.033 A 
HETATM   11  N   UNL     1      32.661  49.348  41.773  1.00  0.00    -0.033 NA
HETATM   12  C   UNL     1      32.648  48.170  41.264  1.00  0.00     0.193 A 
HETATM   13  N   UNL     1      31.836  47.771  40.195  1.00  0.00    -0.339 N 
HETATM   14  H   UNL     1      31.792  46.803  39.920  1.00  0.00     0.164 HD
ENDROOT
BRANCH   1  15
HETATM   15  C   UNL     1      29.516  48.153  39.714  1.00  0.00    -0.014 A 
HETATM   16  C   UNL     1      28.754  47.888  38.560  1.00  0.00     0.033 A 
HETATM   17  C   UNL     1      27.478  47.325  38.664  1.00  0.00     0.044 A 
HETATM   18  C   UNL     1      26.950  47.011  39.917  1.00  0.00     0.085 A 
HETATM   19 BR   UNL     1      26.514  46.987  37.067  1.00  0.00    -0.048 Br
HETATM   20  C   UNL     1      27.679  47.308  41.070  1.00  0.00     0.039 A 
HETATM   21  C   UNL     1      28.953  47.874  40.971  1.00  0.00     0.014 A 
BRANCH  18  22
HETATM   22  O   UNL     1      25.690  46.483  40.010  1.00  0.00    -0.355 OA
HETATM   23  C   UNL     1      24.828  47.290  40.812  1.00  0.00     0.210 C 
ENDBRANCH  18  22
ENDBRANCH   1  15
BRANCH  12  24
HETATM   24  N   UNL     1      33.421  47.166  41.726  1.00  0.00    -0.272 NA
HETATM   25  H   UNL     1      32.916  46.602  42.407  1.00  0.00     0.127 HD
HETATM   26  H   UNL     1      34.336  47.420  42.077  1.00  0.00     0.127 HD
ENDBRANCH  12  24
TORSDOF 3
ENDMDL
MODEL 5
REMARK VINA RESULT:      -8.0     12.882     14.179
REMARK  3 active torsions:
REMARK  status: ('A' for Active; 'I' for Inactive)
REMARK    1  A    between atoms: O_2  and  C_3 
REMARK    2  A    between atoms: C_7  and  C_8 
REMARK    3  A    between atoms: C_19  and  N_20 
ROOT
HETATM    1  C   UNL     1      30.106  49.394  41.133  1.00  0.00     0.244 A 
HETATM    2  N   UNL     1      29.662  50.106  39.957  1.00  0.00    -0.151 N 
HETATM    3  C   UNL     1      29.341  49.430  38.808  1.00  0.00     0.734 A 
HETATM    4  N   UNL     1      28.963  50.287  37.886  1.00  0.00    -0.060 NA
HETATM    5  C   UNL     1      29.024  51.532  38.461  1.00  0.00     0.103 A 
HETATM    6  C   UNL     1      29.446  51.447  39.784  1.00  0.00     0.083 A 
HETATM    7  C   UNL     1      28.729  52.786  37.911  1.00  0.00     0.034 A 
HETATM    8  C   UNL     1      28.864  53.922  38.716  1.00  0.00     0.002 A 
HETATM    9  C   UNL     1      29.282  53.812  40.043  1.00  0.00     0.002 A 
HETATM   10  C   UNL     1      29.582  52.569  40.611  1.00  0.00     0.033 A 
HETATM   11  N   UNL     1      29.423  48.084  38.703  1.00  0.00    -0.033 NA
HETATM   12  C   UNL     1      29.793  47.399  39.722  1.00  0.00     0.193 A 
HETATM   13  N   UNL     1      30.140  47.942  40.965  1.00  0.00    -0.339 N 
HETATM   14  H   UNL     1      30.533  47.359  41.687  1.00  0.00     0.164 HD
ENDROOT
BRANCH   1  15
HETATM   15  C   UNL     1      31.494  49.830  41.569  1.00  0.00    -0.014 A 
HETATM   16  C   UNL     1      31.680  50.609  42.728  1.00  0.00     0.033 A 
HETATM   17  C   UNL     1      32.964  50.987  43.132  1.00  0.00     0.044 A 
HETATM   18  C   UNL     1      34.078  50.586  42.394  1.00  0.00     0.085 A 
HETATM   19 BR   UNL     1      33.139  52.028  44.708  1.00  0.00    -0.048 Br
HETATM   20  C   UNL     1      33.904  49.848  41.221  1.00  0.00     0.039 A 
HETATM   21  C   UNL     1      32.621  49.472  40.811  1.00  0.00     0.014 A 
BRANCH  18  22
HETATM   22  O   UNL     1      35.330  50.981  42.784  1.00  0.00    -0.355 OA
HETATM   23  C   UNL     1      36.327  50.626  41.826  1.00  0.00     0.210 C 
ENDBRANCH  18  22
ENDBRANCH   1  15
BRANCH  12  24
HETATM   24  N   UNL     1      29.906  46.056  39.697  1.00  0.00    -0.272 NA
HETATM   25  H   UNL     1      29.031  45.611  39.967  1.00  0.00     0.127 HD
HETATM   26  H   UNL     1      30.685  45.655  40.204  1.00  0.00     0.127 HD
ENDBRANCH  12  24
TORSDOF 3
ENDMDL
MODEL 6
REMARK VINA RESULT:      -7.7     12.751     14.451
REMARK  3 active torsions:
REMARK  status: ('A' for Active; 'I' for Inactive)
REMARK    1  A    between atoms: O_2  and  C_3 
REMARK    2  A    between atoms: C_7  and  C_8 
REMARK    3  A    between atoms: C_19  and  N_20 
ROOT
HETATM    1  C   UNL     1      27.770  48.934  40.445  1.00  0.00     0.244 A 
HETATM    2  N   UNL     1      28.866  49.871  40.534  1.00  0.00    -0.151 N 
HETATM    3  C   UNL     1      28.890  50.997  39.752  1.00  0.00     0.734 A 
HETATM    4  N   UNL     1      29.976  51.690  40.014  1.00  0.00    -0.060 NA
HETATM    5  C   UNL     1      30.648  51.006  40.996  1.00  0.00     0.103 A 
HETATM    6  C   UNL     1      29.956  49.855  41.362  1.00  0.00     0.083 A 
HETATM    7  C   UNL     1      31.860  51.312  41.629  1.00  0.00     0.034 A 
HETATM    8  C   UNL     1      32.339  50.447  42.619  1.00  0.00     0.002 A 
HETATM    9  C   UNL     1      31.624  49.302  42.974  1.00  0.00     0.002 A 
HETATM   10  C   UNL     1      30.412  48.979  42.354  1.00  0.00     0.033 A 
HETATM   11  N   UNL     1      27.915  51.293  38.863  1.00  0.00    -0.033 NA
HETATM   12  C   UNL     1      26.908  50.505  38.755  1.00  0.00     0.193 A 
HETATM   13  N   UNL     1      26.733  49.328  39.492  1.00  0.00    -0.339 N 
HETATM   14  H   UNL     1      25.978  48.697  39.277  1.00  0.00     0.164 HD
ENDROOT
BRANCH   1  15
HETATM   15  C   UNL     1      28.241  47.546  40.050  1.00  0.00    -0.014 A 
HETATM   16  C   UNL     1      27.652  46.393  40.603  1.00  0.00     0.033 A 
HETATM   17  C   UNL     1      28.080  45.119  40.217  1.00  0.00     0.044 A 
HETATM   18  C   UNL     1      29.093  44.978  39.266  1.00  0.00     0.085 A 
HETATM   19 BR   UNL     1      27.235  43.612  40.997  1.00  0.00    -0.048 Br
HETATM   20  C   UNL     1      29.713  46.113  38.741  1.00  0.00     0.039 A 
HETATM   21  C   UNL     1      29.291  47.389  39.128  1.00  0.00     0.014 A 
BRANCH  18  22
HETATM   22  O   UNL     1      29.522  43.727  38.912  1.00  0.00    -0.355 OA
HETATM   23  C   UNL     1      29.419  43.504  37.505  1.00  0.00     0.210 C 
ENDBRANCH  18  22
ENDBRANCH   1  15
BRANCH  12  24
HETATM   24  N   UNL     1      25.898  50.726  37.889  1.00  0.00    -0.272 NA
HETATM   25  H   UNL     1      26.233  51.197  37.051  1.00  0.00     0.127 HD
HETATM   26  H   UNL     1      25.075  51.186  38.257  1.00  0.00     0.127 HD
ENDBRANCH  12  24
TORSDOF 3
ENDMDL
MODEL 7
REMARK VINA RESULT:      -7.6      6.052      9.013
REMARK  3 active torsions:
REMARK  status: ('A' for Active; 'I' for Inactive)
REMARK    1  A    between atoms: O_2  and  C_3 
REMARK    2  A    between atoms: C_7  and  C_8 
REMARK    3  A    between atoms: C_19  and  N_20 
ROOT
HETATM    1  C   UNL     1      22.614  46.507  47.970  1.00  0.00     0.244 A 
HETATM    2  N   UNL     1      23.150  45.784  49.100  1.00  0.00    -0.151 N 
HETATM    3  C   UNL     1      22.690  44.530  49.410  1.00  0.00     0.734 A 
HETATM    4  N   UNL     1      23.328  44.078  50.469  1.00  0.00    -0.060 NA
HETATM    5  C   UNL     1      24.225  45.053  50.828  1.00  0.00     0.103 A 
HETATM    6  C   UNL     1      24.150  46.141  49.964  1.00  0.00     0.083 A 
HETATM    7  C   UNL     1      25.144  45.074  51.886  1.00  0.00     0.034 A 
HETATM    8  C   UNL     1      25.966  46.196  52.039  1.00  0.00     0.002 A 
HETATM    9  C   UNL     1      25.878  47.273  51.156  1.00  0.00     0.002 A 
HETATM   10  C   UNL     1      24.967  47.270  50.094  1.00  0.00     0.033 A 
HETATM   11  N   UNL     1      21.724  43.906  48.699  1.00  0.00    -0.033 NA
HETATM   12  C   UNL     1      21.226  44.494  47.673  1.00  0.00     0.193 A 
HETATM   13  N   UNL     1      21.600  45.766  47.223  1.00  0.00    -0.339 N 
HETATM   14  H   UNL     1      21.088  46.217  46.480  1.00  0.00     0.164 HD
ENDROOT
BRANCH   1  15
HETATM   15  C   UNL     1      21.993  47.829  48.385  1.00  0.00    -0.014 A 
HETATM   16  C   UNL     1      20.809  47.867  49.147  1.00  0.00     0.033 A 
HETATM   17  C   UNL     1      20.256  49.090  49.541  1.00  0.00     0.044 A 
HETATM   18  C   UNL     1      20.882  50.288  49.191  1.00  0.00     0.085 A 
HETATM   19 BR   UNL     1      18.666  49.066  50.574  1.00  0.00    -0.048 Br
HETATM   20  C   UNL     1      22.033  50.263  48.401  1.00  0.00     0.039 A 
HETATM   21  C   UNL     1      22.586  49.043  48.001  1.00  0.00     0.014 A 
BRANCH  18  22
HETATM   22  O   UNL     1      20.320  51.481  49.561  1.00  0.00    -0.355 OA
HETATM   23  C   UNL     1      19.624  52.103  48.481  1.00  0.00     0.210 C 
ENDBRANCH  18  22
ENDBRANCH   1  15
BRANCH  12  24
HETATM   24  N   UNL     1      20.256  43.944  46.915  1.00  0.00    -0.272 NA
HETATM   25  H   UNL     1      20.646  43.523  46.074  1.00  0.00     0.127 HD
HETATM   26  H   UNL     1      19.464  44.532  46.691  1.00  0.00     0.127 HD
ENDBRANCH  12  24
TORSDOF 3
ENDMDL
MODEL 8
REMARK VINA RESULT:      -7.6      3.968      6.496
REMARK  3 active torsions:
REMARK  status: ('A' for Active; 'I' for Inactive)
REMARK    1  A    between atoms: O_2  and  C_3 
REMARK    2  A    between atoms: C_7  and  C_8 
REMARK    3  A    between atoms: C_19  and  N_20 
ROOT
HETATM    1  C   UNL     1      25.279  42.341  51.281  1.00  0.00     0.244 A 
HETATM    2  N   UNL     1      26.109  43.285  51.992  1.00  0.00    -0.151 N 
HETATM    3  C   UNL     1      25.825  44.627  51.965  1.00  0.00     0.734 A 
HETATM    4  N   UNL     1      26.712  45.278  52.685  1.00  0.00    -0.060 NA
HETATM    5  C   UNL     1      27.566  44.334  53.198  1.00  0.00     0.103 A 
HETATM    6  C   UNL     1      27.196  43.055  52.791  1.00  0.00     0.083 A 
HETATM    7  C   UNL     1      28.685  44.497  54.026  1.00  0.00     0.034 A 
HETATM    8  C   UNL     1      29.397  43.362  54.426  1.00  0.00     0.002 A 
HETATM    9  C   UNL     1      29.003  42.088  54.012  1.00  0.00     0.002 A 
HETATM   10  C   UNL     1      27.889  41.904  53.184  1.00  0.00     0.033 A 
HETATM   11  N   UNL     1      24.778  45.140  51.281  1.00  0.00    -0.033 NA
HETATM   12  C   UNL     1      23.996  44.345  50.647  1.00  0.00     0.193 A 
HETATM   13  N   UNL     1      24.145  42.955  50.591  1.00  0.00    -0.339 N 
HETATM   14  H   UNL     1      23.565  42.401  49.981  1.00  0.00     0.164 HD
ENDROOT
BRANCH   1  15
HETATM   15  C   UNL     1      26.069  41.561  50.244  1.00  0.00    -0.014 A 
HETATM   16  C   UNL     1      26.178  40.159  50.318  1.00  0.00     0.033 A 
HETATM   17  C   UNL     1      26.890  39.448  49.347  1.00  0.00     0.044 A 
HETATM   18  C   UNL     1      27.493  40.125  48.284  1.00  0.00     0.085 A 
HETATM   19 BR   UNL     1      26.987  37.562  49.505  1.00  0.00    -0.048 Br
HETATM   20  C   UNL     1      27.426  41.518  48.223  1.00  0.00     0.039 A 
HETATM   21  C   UNL     1      26.719  42.232  49.195  1.00  0.00     0.014 A 
BRANCH  18  22
HETATM   22  O   UNL     1      28.208  39.423  47.352  1.00  0.00    -0.355 OA
HETATM   23  C   UNL     1      27.537  39.367  46.092  1.00  0.00     0.210 C 
ENDBRANCH  18  22
ENDBRANCH   1  15
BRANCH  12  24
HETATM   24  N   UNL     1      22.934  44.778  49.937  1.00  0.00    -0.272 NA
HETATM   25  H   UNL     1      22.112  44.872  50.531  1.00  0.00     0.127 HD
HETATM   26  H   UNL     1      22.711  44.266  49.093  1.00  0.00     0.127 HD
ENDBRANCH  12  24
TORSDOF 3
ENDMDL
MODEL 9
REMARK VINA RESULT:      -7.5      6.668      8.368
REMARK  3 active torsions:
REMARK  status: ('A' for Active; 'I' for Inactive)
REMARK    1  A    between atoms: O_2  and  C_3 
REMARK    2  A    between atoms: C_7  and  C_8 
REMARK    3  A    between atoms: C_19  and  N_20 
ROOT
HETATM    1  C   UNL     1      22.656  47.480  49.300  1.00  0.00     0.244 A 
HETATM    2  N   UNL     1      23.557  48.468  48.754  1.00  0.00    -0.151 N 
HETATM    3  C   UNL     1      23.095  49.453  47.921  1.00  0.00     0.734 A 
HETATM    4  N   UNL     1      24.094  50.228  47.560  1.00  0.00    -0.060 NA
HETATM    5  C   UNL     1      25.212  49.741  48.191  1.00  0.00     0.103 A 
HETATM    6  C   UNL     1      24.898  48.634  48.973  1.00  0.00     0.083 A 
HETATM    7  C   UNL     1      26.536  50.199  48.143  1.00  0.00     0.034 A 
HETATM    8  C   UNL     1      27.507  49.527  48.893  1.00  0.00     0.002 A 
HETATM    9  C   UNL     1      27.167  48.424  49.677  1.00  0.00     0.002 A 
HETATM   10  C   UNL     1      25.852  47.951  49.737  1.00  0.00     0.033 A 
HETATM   11  N   UNL     1      21.796  49.558  47.559  1.00  0.00    -0.033 NA
HETATM   12  C   UNL     1      20.947  48.719  48.030  1.00  0.00     0.193 A 
HETATM   13  N   UNL     1      21.262  47.669  48.900  1.00  0.00    -0.339 N 
HETATM   14  H   UNL     1      20.569  46.978  49.140  1.00  0.00     0.164 HD
ENDROOT
BRANCH   1  15
HETATM   15  C   UNL     1      23.052  46.069  48.903  1.00  0.00    -0.014 A 
HETATM   16  C   UNL     1      23.724  45.222  49.804  1.00  0.00     0.033 A 
HETATM   17  C   UNL     1      24.066  43.917  49.435  1.00  0.00     0.044 A 
HETATM   18  C   UNL     1      23.732  43.437  48.167  1.00  0.00     0.085 A 
HETATM   19 BR   UNL     1      24.962  42.830  50.703  1.00  0.00    -0.048 Br
HETATM   20  C   UNL     1      23.103  44.282  47.250  1.00  0.00     0.039 A 
HETATM   21  C   UNL     1      22.764  45.588  47.614  1.00  0.00     0.014 A 
BRANCH  18  22
HETATM   22  O   UNL     1      24.093  42.167  47.806  1.00  0.00    -0.355 OA
HETATM   23  C   UNL     1      22.984  41.267  47.833  1.00  0.00     0.210 C 
ENDBRANCH  18  22
ENDBRANCH   1  15
BRANCH  12  24
HETATM   24  N   UNL     1      19.637  48.752  47.715  1.00  0.00    -0.272 NA
HETATM   25  H   UNL     1      19.061  48.779  48.554  1.00  0.00     0.127 HD
HETATM   26  H   UNL     1      19.305  48.043  47.073  1.00  0.00     0.127 HD
ENDBRANCH  12  24
TORSDOF 3
ENDMDL
MODEL 10
REMARK VINA RESULT:      -7.4     12.166     15.112
REMARK  3 active torsions:
REMARK  status: ('A' for Active; 'I' for Inactive)
REMARK    1  A    between atoms: O_2  and  C_3 
REMARK    2  A    between atoms: C_7  and  C_8 
REMARK    3  A    between atoms: C_19  and  N_20 
ROOT
HETATM    1  C   UNL     1      16.187  50.647  46.897  1.00  0.00     0.244 A 
HETATM    2  N   UNL     1      17.266  49.955  47.562  1.00  0.00    -0.151 N 
HETATM    3  C   UNL     1      17.203  48.602  47.776  1.00  0.00     0.734 A 
HETATM    4  N   UNL     1      18.296  48.203  48.390  1.00  0.00    -0.060 NA
HETATM    5  C   UNL     1      19.080  49.318  48.553  1.00  0.00     0.103 A 
HETATM    6  C   UNL     1      18.461  50.444  48.018  1.00  0.00     0.083 A 
HETATM    7  C   UNL     1      20.342  49.443  49.148  1.00  0.00     0.034 A 
HETATM    8  C   UNL     1      20.947  50.704  49.184  1.00  0.00     0.002 A 
HETATM    9  C   UNL     1      20.310  51.818  48.634  1.00  0.00     0.002 A 
HETATM   10  C   UNL     1      19.049  51.713  48.035  1.00  0.00     0.033 A 
HETATM   11  N   UNL     1      16.149  47.847  47.393  1.00  0.00    -0.033 NA
HETATM   12  C   UNL     1      15.170  48.407  46.781  1.00  0.00     0.193 A 
HETATM   13  N   UNL     1      15.094  49.771  46.478  1.00  0.00    -0.339 N 
HETATM   14  H   UNL     1      14.247  50.165  46.099  1.00  0.00     0.164 HD
ENDROOT
BRANCH   1  15
HETATM   15  C   UNL     1      15.584  51.732  47.773  1.00  0.00    -0.014 A 
HETATM   16  C   UNL     1      15.016  52.890  47.207  1.00  0.00     0.033 A 
HETATM   17  C   UNL     1      14.446  53.873  48.022  1.00  0.00     0.044 A 
HETATM   18  C   UNL     1      14.424  53.710  49.408  1.00  0.00     0.085 A 
HETATM   19 BR   UNL     1      13.691  55.401  47.191  1.00  0.00    -0.048 Br
HETATM   20  C   UNL     1      15.021  52.586  49.982  1.00  0.00     0.039 A 
HETATM   21  C   UNL     1      15.597  51.603  49.172  1.00  0.00     0.014 A 
BRANCH  18  22
HETATM   22  O   UNL     1      13.885  54.689  50.199  1.00  0.00    -0.355 OA
HETATM   23  C   UNL     1      14.345  54.603  51.548  1.00  0.00     0.210 C 
ENDBRANCH  18  22
ENDBRANCH   1  15
BRANCH  12  24
HETATM   24  N   UNL     1      14.080  47.727  46.371  1.00  0.00    -0.272 NA
HETATM   25  H   UNL     1      13.422  47.597  47.138  1.00  0.00     0.127 HD
HETATM   26  H   UNL     1      14.244  46.854  45.885  1.00  0.00     0.127 HD
ENDBRANCH  12  24
TORSDOF 3
ENDMDL
