MODEL 1
REMARK VINA RESULT:      -8.9      0.000      0.000
REMARK  3 active torsions:
REMARK  status: ('A' for Active; 'I' for Inactive)
REMARK    1  A    between atoms: C_9  and  C_10 
REMARK    2  A    between atoms: C_16  and  C_17 
REMARK       I    between atoms: C_17  and  N_18 
REMARK    3  A    between atoms: N_18  and  C_19 
ROOT
HETATM    1  C   UNL     1      28.687  40.846  52.310  1.00  0.00     0.070 C 
HETATM    2  C   UNL     1      27.528  41.542  51.638  1.00  0.00     0.037 C 
HETATM    3  N   UNL     1      27.075  40.949  50.461  1.00  0.00    -0.191 N 
HETATM    4  C   UNL     1      25.908  41.288  49.874  1.00  0.00     0.735 A 
HETATM    5  N   UNL     1      25.206  42.356  50.354  1.00  0.00    -0.092 N 
HETATM    6  N   UNL     1      24.048  42.488  49.692  1.00  0.00     0.012 NA
HETATM    7  N   UNL     1      24.074  41.517  48.782  1.00  0.00     0.033 NA
HETATM    8  N   UNL     1      25.228  40.762  48.886  1.00  0.00     0.030 NA
HETATM    9  C   UNL     1      25.637  43.205  51.462  1.00  0.00     0.199 C 
HETATM   10  C   UNL     1      26.882  42.627  52.134  1.00  0.00     0.062 C 
HETATM   11  H   UNL     1      27.531  40.088  50.164  1.00  0.00     0.184 HD
ENDROOT
BRANCH  10  12
HETATM   12  C   UNL     1      27.224  43.288  53.424  1.00  0.00     0.256 C 
HETATM   13  N   UNL     1      28.523  43.740  53.486  1.00  0.00    -0.323 N 
HETATM   14  H   UNL     1      29.096  43.622  52.659  1.00  0.00     0.169 HD
HETATM   15  O   UNL     1      26.342  43.414  54.264  1.00  0.00    -0.267 OA
BRANCH  13  16
HETATM   16  C   UNL     1      29.167  44.336  54.590  1.00  0.00     0.035 A 
HETATM   17  C   UNL     1      28.792  45.560  55.146  1.00  0.00     0.029 A 
HETATM   18  C   UNL     1      29.469  46.073  56.257  1.00  0.00     0.002 A 
HETATM   19  C   UNL     1      30.524  45.365  56.825  1.00  0.00     0.000 A 
HETATM   20  C   UNL     1      30.909  44.143  56.278  1.00  0.00     0.002 A 
HETATM   21  C   UNL     1      30.237  43.634  55.163  1.00  0.00     0.029 A 
ENDBRANCH  13  16
ENDBRANCH  10  12
BRANCH   9  22
HETATM   22  C   UNL     1      25.856  44.629  50.984  1.00  0.00    -0.011 A 
HETATM   23  C   UNL     1      26.723  44.937  49.937  1.00  0.00     0.125 A 
HETATM   24  N   UNL     1      26.974  46.191  49.501  1.00  0.00    -0.272 NA
HETATM   25  C   UNL     1      26.319  47.195  50.122  1.00  0.00     0.116 A 
HETATM   26  C   UNL     1      25.439  47.002  51.173  1.00  0.00     0.020 A 
HETATM   27  C   UNL     1      25.213  45.702  51.614  1.00  0.00     0.012 A 
ENDBRANCH   9  22
TORSDOF 3
ENDMDL
MODEL 2
REMARK VINA RESULT:      -8.8      0.848      1.508
REMARK  3 active torsions:
REMARK  status: ('A' for Active; 'I' for Inactive)
REMARK    1  A    between atoms: C_9  and  C_10 
REMARK    2  A    between atoms: C_16  and  C_17 
REMARK       I    between atoms: C_17  and  N_18 
REMARK    3  A    between atoms: N_18  and  C_19 
ROOT
HETATM    1  C   UNL     1      28.010  40.909  51.959  1.00  0.00     0.070 C 
HETATM    2  C   UNL     1      26.897  41.784  51.437  1.00  0.00     0.037 C 
HETATM    3  N   UNL     1      26.277  41.333  50.273  1.00  0.00    -0.191 N 
HETATM    4  C   UNL     1      25.118  41.851  49.815  1.00  0.00     0.735 A 
HETATM    5  N   UNL     1      24.599  42.961  50.417  1.00  0.00    -0.092 N 
HETATM    6  N   UNL     1      23.416  43.278  49.871  1.00  0.00     0.012 NA
HETATM    7  N   UNL     1      23.244  42.376  48.909  1.00  0.00     0.033 NA
HETATM    8  N   UNL     1      24.297  41.480  48.864  1.00  0.00     0.030 NA
HETATM    9  C   UNL     1      25.225  43.673  51.529  1.00  0.00     0.199 C 
HETATM   10  C   UNL     1      26.438  42.904  52.051  1.00  0.00     0.062 C 
HETATM   11  H   UNL     1      26.593  40.446  49.887  1.00  0.00     0.184 HD
ENDROOT
BRANCH  10  12
HETATM   12  C   UNL     1      26.966  43.428  53.340  1.00  0.00     0.256 C 
HETATM   13  N   UNL     1      28.311  43.718  53.309  1.00  0.00    -0.323 N 
HETATM   14  H   UNL     1      28.793  43.592  52.428  1.00  0.00     0.169 HD
HETATM   15  O   UNL     1      26.181  43.598  54.264  1.00  0.00    -0.267 OA
BRANCH  13  16
HETATM   16  C   UNL     1      29.115  44.156  54.382  1.00  0.00     0.035 A 
HETATM   17  C   UNL     1      30.175  43.421  54.915  1.00  0.00     0.029 A 
HETATM   18  C   UNL     1      30.940  43.937  55.967  1.00  0.00     0.002 A 
HETATM   19  C   UNL     1      30.655  45.194  56.491  1.00  0.00     0.000 A 
HETATM   20  C   UNL     1      29.599  45.937  55.968  1.00  0.00     0.002 A 
HETATM   21  C   UNL     1      28.830  45.418  54.923  1.00  0.00     0.029 A 
ENDBRANCH  13  16
ENDBRANCH  10  12
BRANCH   9  22
HETATM   22  C   UNL     1      25.583  45.090  51.116  1.00  0.00    -0.011 A 
HETATM   23  C   UNL     1      25.028  46.208  51.737  1.00  0.00     0.125 A 
HETATM   24  N   UNL     1      25.291  47.484  51.381  1.00  0.00    -0.272 NA
HETATM   25  C   UNL     1      26.164  47.667  50.367  1.00  0.00     0.116 A 
HETATM   26  C   UNL     1      26.771  46.629  49.680  1.00  0.00     0.020 A 
HETATM   27  C   UNL     1      26.468  45.324  50.056  1.00  0.00     0.012 A 
ENDBRANCH   9  22
TORSDOF 3
ENDMDL
MODEL 3
REMARK VINA RESULT:      -8.4      1.695      4.240
REMARK  3 active torsions:
REMARK  status: ('A' for Active; 'I' for Inactive)
REMARK    1  A    between atoms: C_9  and  C_10 
REMARK    2  A    between atoms: C_16  and  C_17 
REMARK       I    between atoms: C_17  and  N_18 
REMARK    3  A    between atoms: N_18  and  C_19 
ROOT
HETATM    1  C   UNL     1      25.809  47.076  54.872  1.00  0.00     0.070 C 
HETATM    2  C   UNL     1      26.090  46.569  53.479  1.00  0.00     0.037 C 
HETATM    3  N   UNL     1      25.525  47.314  52.445  1.00  0.00    -0.191 N 
HETATM    4  C   UNL     1      25.875  47.153  51.152  1.00  0.00     0.735 A 
HETATM    5  N   UNL     1      26.700  46.120  50.808  1.00  0.00    -0.092 N 
HETATM    6  N   UNL     1      26.989  46.170  49.499  1.00  0.00     0.012 NA
HETATM    7  N   UNL     1      26.301  47.215  49.049  1.00  0.00     0.033 NA
HETATM    8  N   UNL     1      25.603  47.837  50.068  1.00  0.00     0.030 NA
HETATM    9  C   UNL     1      27.228  45.130  51.744  1.00  0.00     0.199 C 
HETATM   10  C   UNL     1      26.889  45.512  53.184  1.00  0.00     0.062 C 
HETATM   11  H   UNL     1      25.002  48.148  52.701  1.00  0.00     0.184 HD
ENDROOT
BRANCH  10  12
HETATM   12  C   UNL     1      27.611  44.700  54.202  1.00  0.00     0.256 C 
HETATM   13  N   UNL     1      28.752  45.303  54.681  1.00  0.00    -0.323 N 
HETATM   14  H   UNL     1      28.966  46.232  54.339  1.00  0.00     0.169 HD
HETATM   15  O   UNL     1      27.121  43.634  54.550  1.00  0.00    -0.267 OA
BRANCH  13  16
HETATM   16  C   UNL     1      29.686  44.763  55.591  1.00  0.00     0.035 A 
HETATM   17  C   UNL     1      30.455  43.626  55.337  1.00  0.00     0.029 A 
HETATM   18  C   UNL     1      31.377  43.166  56.284  1.00  0.00     0.002 A 
HETATM   19  C   UNL     1      31.541  43.842  57.489  1.00  0.00     0.000 A 
HETATM   20  C   UNL     1      30.778  44.977  57.754  1.00  0.00     0.002 A 
HETATM   21  C   UNL     1      29.851  45.431  56.811  1.00  0.00     0.029 A 
ENDBRANCH  13  16
ENDBRANCH  10  12
BRANCH   9  22
HETATM   22  C   UNL     1      26.723  43.743  51.388  1.00  0.00    -0.011 A 
HETATM   23  C   UNL     1      27.584  42.659  51.219  1.00  0.00     0.125 A 
HETATM   24  N   UNL     1      27.183  41.417  50.870  1.00  0.00    -0.272 NA
HETATM   25  C   UNL     1      25.858  41.231  50.695  1.00  0.00     0.116 A 
HETATM   26  C   UNL     1      24.916  42.236  50.834  1.00  0.00     0.020 A 
HETATM   27  C   UNL     1      25.358  43.511  51.177  1.00  0.00     0.012 A 
ENDBRANCH   9  22
TORSDOF 3
ENDMDL
MODEL 4
REMARK VINA RESULT:      -8.2      2.060      3.028
REMARK  3 active torsions:
REMARK  status: ('A' for Active; 'I' for Inactive)
REMARK    1  A    between atoms: C_9  and  C_10 
REMARK    2  A    between atoms: C_16  and  C_17 
REMARK       I    between atoms: C_17  and  N_18 
REMARK    3  A    between atoms: N_18  and  C_19 
ROOT
HETATM    1  C   UNL     1      30.067  42.481  53.318  1.00  0.00     0.070 C 
HETATM    2  C   UNL     1      28.887  42.071  52.470  1.00  0.00     0.037 C 
HETATM    3  N   UNL     1      29.154  41.104  51.502  1.00  0.00    -0.191 N 
HETATM    4  C   UNL     1      28.180  40.450  50.836  1.00  0.00     0.735 A 
HETATM    5  N   UNL     1      26.882  40.846  50.992  1.00  0.00    -0.092 N 
HETATM    6  N   UNL     1      26.061  40.034  50.311  1.00  0.00     0.012 NA
HETATM    7  N   UNL     1      26.875  39.170  49.710  1.00  0.00     0.033 NA
HETATM    8  N   UNL     1      28.197  39.418  50.029  1.00  0.00     0.030 NA
HETATM    9  C   UNL     1      26.450  41.968  51.821  1.00  0.00     0.199 C 
HETATM   10  C   UNL     1      27.618  42.521  52.637  1.00  0.00     0.062 C 
HETATM   11  H   UNL     1      30.099  40.729  51.462  1.00  0.00     0.184 HD
ENDROOT
BRANCH  10  12
HETATM   12  C   UNL     1      27.204  43.485  53.693  1.00  0.00     0.256 C 
HETATM   13  N   UNL     1      27.416  44.802  53.352  1.00  0.00    -0.323 N 
HETATM   14  H   UNL     1      27.783  44.989  52.427  1.00  0.00     0.169 HD
HETATM   15  O   UNL     1      26.684  43.045  54.711  1.00  0.00    -0.267 OA
BRANCH  13  16
HETATM   16  C   UNL     1      27.199  45.938  54.160  1.00  0.00     0.035 A 
HETATM   17  C   UNL     1      27.949  46.243  55.297  1.00  0.00     0.029 A 
HETATM   18  C   UNL     1      27.686  47.403  56.032  1.00  0.00     0.002 A 
HETATM   19  C   UNL     1      26.673  48.272  55.634  1.00  0.00     0.000 A 
HETATM   20  C   UNL     1      25.917  47.978  54.501  1.00  0.00     0.002 A 
HETATM   21  C   UNL     1      26.176  46.814  53.772  1.00  0.00     0.029 A 
ENDBRANCH  13  16
ENDBRANCH  10  12
BRANCH   9  22
HETATM   22  C   UNL     1      25.796  43.038  50.965  1.00  0.00    -0.011 A 
HETATM   23  C   UNL     1      24.422  43.275  50.992  1.00  0.00     0.125 A 
HETATM   24  N   UNL     1      23.794  44.193  50.224  1.00  0.00    -0.272 NA
HETATM   25  C   UNL     1      24.567  44.928  49.398  1.00  0.00     0.116 A 
HETATM   26  C   UNL     1      25.938  44.774  49.290  1.00  0.00     0.020 A 
HETATM   27  C   UNL     1      26.558  43.810  50.079  1.00  0.00     0.012 A 
ENDBRANCH   9  22
TORSDOF 3
ENDMDL
MODEL 5
REMARK VINA RESULT:      -8.0      4.924      8.544
REMARK  3 active torsions:
REMARK  status: ('A' for Active; 'I' for Inactive)
REMARK    1  A    between atoms: C_9  and  C_10 
REMARK    2  A    between atoms: C_16  and  C_17 
REMARK       I    between atoms: C_17  and  N_18 
REMARK    3  A    between atoms: N_18  and  C_19 
ROOT
HETATM    1  C   UNL     1      25.693  49.232  48.910  1.00  0.00     0.070 C 
HETATM    2  C   UNL     1      25.150  47.903  49.374  1.00  0.00     0.037 C 
HETATM    3  N   UNL     1      26.074  47.064  49.997  1.00  0.00    -0.191 N 
HETATM    4  C   UNL     1      25.711  45.962  50.686  1.00  0.00     0.735 A 
HETATM    5  N   UNL     1      24.408  45.554  50.654  1.00  0.00    -0.092 N 
HETATM    6  N   UNL     1      24.233  44.492  51.453  1.00  0.00     0.012 NA
HETATM    7  N   UNL     1      25.446  44.237  51.935  1.00  0.00     0.033 NA
HETATM    8  N   UNL     1      26.376  45.146  51.466  1.00  0.00     0.030 NA
HETATM    9  C   UNL     1      23.349  46.212  49.892  1.00  0.00     0.199 C 
HETATM   10  C   UNL     1      23.850  47.523  49.288  1.00  0.00     0.062 C 
HETATM   11  H   UNL     1      27.020  47.417  50.118  1.00  0.00     0.184 HD
ENDROOT
BRANCH  10  12
HETATM   12  C   UNL     1      22.766  48.373  48.724  1.00  0.00     0.256 C 
HETATM   13  N   UNL     1      22.169  49.194  49.652  1.00  0.00    -0.323 N 
HETATM   14  H   UNL     1      22.537  49.176  50.595  1.00  0.00     0.169 HD
HETATM   15  O   UNL     1      22.544  48.309  47.522  1.00  0.00    -0.267 OA
BRANCH  13  16
HETATM   16  C   UNL     1      21.070  50.057  49.448  1.00  0.00     0.035 A 
HETATM   17  C   UNL     1      21.108  51.190  48.634  1.00  0.00     0.029 A 
HETATM   18  C   UNL     1      19.967  51.982  48.465  1.00  0.00     0.002 A 
HETATM   19  C   UNL     1      18.777  51.644  49.105  1.00  0.00     0.000 A 
HETATM   20  C   UNL     1      18.728  50.516  49.920  1.00  0.00     0.002 A 
HETATM   21  C   UNL     1      19.871  49.730  50.095  1.00  0.00     0.029 A 
ENDBRANCH  13  16
ENDBRANCH  10  12
BRANCH   9  22
HETATM   22  C   UNL     1      22.795  45.273  48.835  1.00  0.00    -0.011 A 
HETATM   23  C   UNL     1      21.446  44.928  48.781  1.00  0.00     0.125 A 
HETATM   24  N   UNL     1      20.915  44.071  47.881  1.00  0.00    -0.272 NA
HETATM   25  C   UNL     1      21.762  43.540  46.973  1.00  0.00     0.116 A 
HETATM   26  C   UNL     1      23.118  43.811  46.938  1.00  0.00     0.020 A 
HETATM   27  C   UNL     1      23.642  44.683  47.888  1.00  0.00     0.012 A 
ENDBRANCH   9  22
TORSDOF 3
ENDMDL
MODEL 6
REMARK VINA RESULT:      -7.8     12.548     15.432
REMARK  3 active torsions:
REMARK  status: ('A' for Active; 'I' for Inactive)
REMARK    1  A    between atoms: C_9  and  C_10 
REMARK    2  A    between atoms: C_16  and  C_17 
REMARK       I    between atoms: C_17  and  N_18 
REMARK    3  A    between atoms: N_18  and  C_19 
ROOT
HETATM    1  C   UNL     1      32.044  48.345  42.421  1.00  0.00     0.070 C 
HETATM    2  C   UNL     1      32.258  49.487  41.458  1.00  0.00     0.037 C 
HETATM    3  N   UNL     1      33.225  50.416  41.837  1.00  0.00    -0.191 N 
HETATM    4  C   UNL     1      33.716  51.347  40.992  1.00  0.00     0.735 A 
HETATM    5  N   UNL     1      33.143  51.499  39.762  1.00  0.00    -0.092 N 
HETATM    6  N   UNL     1      33.811  52.415  39.047  1.00  0.00     0.012 NA
HETATM    7  N   UNL     1      34.765  52.845  39.868  1.00  0.00     0.033 NA
HETATM    8  N   UNL     1      34.716  52.187  41.083  1.00  0.00     0.030 NA
HETATM    9  C   UNL     1      31.994  50.735  39.279  1.00  0.00     0.199 C 
HETATM   10  C   UNL     1      31.637  49.617  40.258  1.00  0.00     0.062 C 
HETATM   11  H   UNL     1      33.730  50.240  42.704  1.00  0.00     0.184 HD
ENDROOT
BRANCH  10  12
HETATM   12  C   UNL     1      30.653  48.641  39.715  1.00  0.00     0.256 C 
HETATM   13  N   UNL     1      29.376  48.818  40.196  1.00  0.00    -0.323 N 
HETATM   14  H   UNL     1      29.219  49.596  40.824  1.00  0.00     0.169 HD
HETATM   15  O   UNL     1      31.038  47.831  38.881  1.00  0.00    -0.267 OA
BRANCH  13  16
HETATM   16  C   UNL     1      28.246  48.015  39.932  1.00  0.00     0.035 A 
HETATM   17  C   UNL     1      27.454  48.132  38.789  1.00  0.00     0.029 A 
HETATM   18  C   UNL     1      26.361  47.281  38.591  1.00  0.00     0.002 A 
HETATM   19  C   UNL     1      26.055  46.302  39.532  1.00  0.00     0.000 A 
HETATM   20  C   UNL     1      26.837  46.176  40.677  1.00  0.00     0.002 A 
HETATM   21  C   UNL     1      27.924  47.032  40.878  1.00  0.00     0.029 A 
ENDBRANCH  13  16
ENDBRANCH  10  12
BRANCH   9  22
HETATM   22  C   UNL     1      30.819  51.658  39.015  1.00  0.00    -0.011 A 
HETATM   23  C   UNL     1      30.183  51.717  37.775  1.00  0.00     0.125 A 
HETATM   24  N   UNL     1      29.157  52.546  37.485  1.00  0.00    -0.272 NA
HETATM   25  C   UNL     1      28.723  53.349  38.479  1.00  0.00     0.116 A 
HETATM   26  C   UNL     1      29.281  53.375  39.745  1.00  0.00     0.020 A 
HETATM   27  C   UNL     1      30.349  52.523  40.012  1.00  0.00     0.012 A 
ENDBRANCH   9  22
TORSDOF 3
ENDMDL
MODEL 7
REMARK VINA RESULT:      -7.5     12.621     13.449
REMARK  3 active torsions:
REMARK  status: ('A' for Active; 'I' for Inactive)
REMARK    1  A    between atoms: C_9  and  C_10 
REMARK    2  A    between atoms: C_16  and  C_17 
REMARK       I    between atoms: C_17  and  N_18 
REMARK    3  A    between atoms: N_18  and  C_19 
ROOT
HETATM    1  C   UNL     1      31.255  46.973  39.864  1.00  0.00     0.070 C 
HETATM    2  C   UNL     1      30.028  47.851  39.844  1.00  0.00     0.037 C 
HETATM    3  N   UNL     1      29.075  47.526  38.879  1.00  0.00    -0.191 N 
HETATM    4  C   UNL     1      27.827  48.038  38.883  1.00  0.00     0.735 A 
HETATM    5  N   UNL     1      27.516  49.031  39.768  1.00  0.00    -0.092 N 
HETATM    6  N   UNL     1      26.219  49.355  39.668  1.00  0.00     0.012 NA
HETATM    7  N   UNL     1      25.759  48.580  38.690  1.00  0.00     0.033 NA
HETATM    8  N   UNL     1      26.751  47.754  38.193  1.00  0.00     0.030 NA
HETATM    9  C   UNL     1      28.455  49.621  40.719  1.00  0.00     0.199 C 
HETATM   10  C   UNL     1      29.777  48.854  40.723  1.00  0.00     0.062 C 
HETATM   11  H   UNL     1      29.260  46.715  38.293  1.00  0.00     0.184 HD
ENDROOT
BRANCH  10  12
HETATM   12  C   UNL     1      30.681  49.230  41.844  1.00  0.00     0.256 C 
HETATM   13  N   UNL     1      31.504  50.295  41.556  1.00  0.00    -0.323 N 
HETATM   14  H   UNL     1      31.394  50.737  40.652  1.00  0.00     0.169 HD
HETATM   15  O   UNL     1      30.582  48.619  42.900  1.00  0.00    -0.267 OA
BRANCH  13  16
HETATM   16  C   UNL     1      32.516  50.838  42.377  1.00  0.00     0.035 A 
HETATM   17  C   UNL     1      33.868  50.865  42.034  1.00  0.00     0.029 A 
HETATM   18  C   UNL     1      34.808  51.443  42.895  1.00  0.00     0.002 A 
HETATM   19  C   UNL     1      34.402  52.003  44.103  1.00  0.00     0.000 A 
HETATM   20  C   UNL     1      33.055  51.981  44.456  1.00  0.00     0.002 A 
HETATM   21  C   UNL     1      32.118  51.396  43.599  1.00  0.00     0.029 A 
ENDBRANCH  13  16
ENDBRANCH  10  12
BRANCH   9  22
HETATM   22  C   UNL     1      28.653  51.097  40.420  1.00  0.00    -0.011 A 
HETATM   23  C   UNL     1      28.416  52.087  41.373  1.00  0.00     0.125 A 
HETATM   24  N   UNL     1      28.547  53.412  41.142  1.00  0.00    -0.272 NA
HETATM   25  C   UNL     1      28.951  53.778  39.907  1.00  0.00     0.116 A 
HETATM   26  C   UNL     1      29.211  52.880  38.886  1.00  0.00     0.020 A 
HETATM   27  C   UNL     1      29.052  51.522  39.146  1.00  0.00     0.012 A 
ENDBRANCH   9  22
TORSDOF 3
ENDMDL
MODEL 8
REMARK VINA RESULT:      -7.4      5.565      8.772
REMARK  3 active torsions:
REMARK  status: ('A' for Active; 'I' for Inactive)
REMARK    1  A    between atoms: C_9  and  C_10 
REMARK    2  A    between atoms: C_16  and  C_17 
REMARK       I    between atoms: C_17  and  N_18 
REMARK    3  A    between atoms: N_18  and  C_19 
ROOT
HETATM    1  C   UNL     1      24.836  48.382  49.361  1.00  0.00     0.070 C 
HETATM    2  C   UNL     1      24.098  47.066  49.341  1.00  0.00     0.037 C 
HETATM    3  N   UNL     1      24.815  45.971  49.820  1.00  0.00    -0.191 N 
HETATM    4  C   UNL     1      24.235  44.786  50.104  1.00  0.00     0.735 A 
HETATM    5  N   UNL     1      22.926  44.587  49.771  1.00  0.00    -0.092 N 
HETATM    6  N   UNL     1      22.514  43.384  50.197  1.00  0.00     0.012 NA
HETATM    7  N   UNL     1      23.595  42.842  50.753  1.00  0.00     0.033 NA
HETATM    8  N   UNL     1      24.674  43.706  50.702  1.00  0.00     0.030 NA
HETATM    9  C   UNL     1      22.084  45.566  49.089  1.00  0.00     0.199 C 
HETATM   10  C   UNL     1      22.804  46.908  48.965  1.00  0.00     0.062 C 
HETATM   11  H   UNL     1      25.755  46.143  50.171  1.00  0.00     0.184 HD
ENDROOT
BRANCH  10  12
HETATM   12  C   UNL     1      21.920  48.021  48.521  1.00  0.00     0.256 C 
HETATM   13  N   UNL     1      21.325  48.701  49.559  1.00  0.00    -0.323 N 
HETATM   14  H   UNL     1      21.567  48.418  50.501  1.00  0.00     0.169 HD
HETATM   15  O   UNL     1      21.843  48.259  47.323  1.00  0.00    -0.267 OA
BRANCH  13  16
HETATM   16  C   UNL     1      20.384  49.749  49.465  1.00  0.00     0.035 A 
HETATM   17  C   UNL     1      19.105  49.701  50.020  1.00  0.00     0.029 A 
HETATM   18  C   UNL     1      18.238  50.793  49.901  1.00  0.00     0.002 A 
HETATM   19  C   UNL     1      18.646  51.944  49.232  1.00  0.00     0.000 A 
HETATM   20  C   UNL     1      19.920  52.002  48.673  1.00  0.00     0.002 A 
HETATM   21  C   UNL     1      20.782  50.908  48.785  1.00  0.00     0.029 A 
ENDBRANCH  13  16
ENDBRANCH  10  12
BRANCH   9  22
HETATM   22  C   UNL     1      21.638  45.032  47.739  1.00  0.00    -0.011 A 
HETATM   23  C   UNL     1      22.538  44.787  46.702  1.00  0.00     0.125 A 
HETATM   24  N   UNL     1      22.183  44.345  45.476  1.00  0.00    -0.272 NA
HETATM   25  C   UNL     1      20.869  44.115  45.268  1.00  0.00     0.116 A 
HETATM   26  C   UNL     1      19.892  44.326  46.224  1.00  0.00     0.020 A 
HETATM   27  C   UNL     1      20.283  44.799  47.473  1.00  0.00     0.012 A 
ENDBRANCH   9  22
TORSDOF 3
ENDMDL
MODEL 9
REMARK VINA RESULT:      -7.4      2.607      5.050
REMARK  3 active torsions:
REMARK  status: ('A' for Active; 'I' for Inactive)
REMARK    1  A    between atoms: C_9  and  C_10 
REMARK    2  A    between atoms: C_16  and  C_17 
REMARK       I    between atoms: C_17  and  N_18 
REMARK    3  A    between atoms: N_18  and  C_19 
ROOT
HETATM    1  C   UNL     1      23.704  42.866  50.341  1.00  0.00     0.070 C 
HETATM    2  C   UNL     1      24.419  42.008  49.327  1.00  0.00     0.037 C 
HETATM    3  N   UNL     1      23.595  41.310  48.446  1.00  0.00    -0.191 N 
HETATM    4  C   UNL     1      24.061  40.702  47.335  1.00  0.00     0.735 A 
HETATM    5  N   UNL     1      25.408  40.628  47.131  1.00  0.00    -0.092 N 
HETATM    6  N   UNL     1      25.670  40.057  45.945  1.00  0.00     0.012 NA
HETATM    7  N   UNL     1      24.472  39.751  45.455  1.00  0.00     0.033 NA
HETATM    8  N   UNL     1      23.461  40.148  46.311  1.00  0.00     0.030 NA
HETATM    9  C   UNL     1      26.419  41.140  48.053  1.00  0.00     0.199 C 
HETATM   10  C   UNL     1      25.767  41.936  49.183  1.00  0.00     0.062 C 
HETATM   11  H   UNL     1      22.591  41.454  48.530  1.00  0.00     0.184 HD
ENDROOT
BRANCH  10  12
HETATM   12  C   UNL     1      26.738  42.704  50.009  1.00  0.00     0.256 C 
HETATM   13  N   UNL     1      27.023  42.114  51.219  1.00  0.00    -0.323 N 
HETATM   14  H   UNL     1      26.590  41.219  51.414  1.00  0.00     0.169 HD
HETATM   15  O   UNL     1      27.221  43.726  49.538  1.00  0.00    -0.267 OA
BRANCH  13  16
HETATM   16  C   UNL     1      27.840  42.628  52.249  1.00  0.00     0.035 A 
HETATM   17  C   UNL     1      27.412  43.560  53.195  1.00  0.00     0.029 A 
HETATM   18  C   UNL     1      28.279  44.003  54.199  1.00  0.00     0.002 A 
HETATM   19  C   UNL     1      29.581  43.514  54.269  1.00  0.00     0.000 A 
HETATM   20  C   UNL     1      30.020  42.584  53.329  1.00  0.00     0.002 A 
HETATM   21  C   UNL     1      29.155  42.148  52.321  1.00  0.00     0.029 A 
ENDBRANCH  13  16
ENDBRANCH  10  12
BRANCH   9  22
HETATM   22  C   UNL     1      27.281  40.006  48.578  1.00  0.00    -0.011 A 
HETATM   23  C   UNL     1      26.740  38.910  49.249  1.00  0.00     0.125 A 
HETATM   24  N   UNL     1      27.470  37.896  49.762  1.00  0.00    -0.272 NA
HETATM   25  C   UNL     1      28.807  37.959  49.587  1.00  0.00     0.116 A 
HETATM   26  C   UNL     1      29.449  39.000  48.940  1.00  0.00     0.020 A 
HETATM   27  C   UNL     1      28.674  40.041  48.436  1.00  0.00     0.012 A 
ENDBRANCH   9  22
TORSDOF 3
ENDMDL
MODEL 10
REMARK VINA RESULT:      -7.3     16.614     17.888
REMARK  3 active torsions:
REMARK  status: ('A' for Active; 'I' for Inactive)
REMARK    1  A    between atoms: C_9  and  C_10 
REMARK    2  A    between atoms: C_16  and  C_17 
REMARK       I    between atoms: C_17  and  N_18 
REMARK    3  A    between atoms: N_18  and  C_19 
ROOT
HETATM    1  C   UNL     1      35.741  43.745  65.978  1.00  0.00     0.070 C 
HETATM    2  C   UNL     1      36.965  43.208  65.278  1.00  0.00     0.037 C 
HETATM    3  N   UNL     1      37.122  41.824  65.324  1.00  0.00    -0.191 N 
HETATM    4  C   UNL     1      38.009  41.163  64.551  1.00  0.00     0.735 A 
HETATM    5  N   UNL     1      38.900  41.874  63.801  1.00  0.00    -0.092 N 
HETATM    6  N   UNL     1      39.643  41.047  63.051  1.00  0.00     0.012 NA
HETATM    7  N   UNL     1      39.222  39.831  63.384  1.00  0.00     0.033 NA
HETATM    8  N   UNL     1      38.203  39.889  64.317  1.00  0.00     0.030 NA
HETATM    9  C   UNL     1      38.997  43.332  63.785  1.00  0.00     0.199 C 
HETATM   10  C   UNL     1      37.848  43.960  64.573  1.00  0.00     0.062 C 
HETATM   11  H   UNL     1      36.395  41.285  65.791  1.00  0.00     0.184 HD
ENDROOT
BRANCH  10  12
HETATM   12  C   UNL     1      37.730  45.432  64.384  1.00  0.00     0.256 C 
HETATM   13  N   UNL     1      38.475  46.165  65.279  1.00  0.00    -0.323 N 
HETATM   14  H   UNL     1      39.050  45.652  65.936  1.00  0.00     0.169 HD
HETATM   15  O   UNL     1      37.050  45.846  63.454  1.00  0.00    -0.267 OA
BRANCH  13  16
HETATM   16  C   UNL     1      38.517  47.570  65.406  1.00  0.00     0.035 A 
HETATM   17  C   UNL     1      39.546  48.369  64.906  1.00  0.00     0.029 A 
HETATM   18  C   UNL     1      39.502  49.760  65.054  1.00  0.00     0.002 A 
HETATM   19  C   UNL     1      38.425  50.363  65.699  1.00  0.00     0.000 A 
HETATM   20  C   UNL     1      37.393  49.575  66.203  1.00  0.00     0.002 A 
HETATM   21  C   UNL     1      37.442  48.185  66.062  1.00  0.00     0.029 A 
ENDBRANCH  13  16
ENDBRANCH  10  12
BRANCH   9  22
HETATM   22  C   UNL     1      40.353  43.778  64.302  1.00  0.00    -0.011 A 
HETATM   23  C   UNL     1      40.809  43.447  65.577  1.00  0.00     0.125 A 
HETATM   24  N   UNL     1      41.992  43.849  66.091  1.00  0.00    -0.272 NA
HETATM   25  C   UNL     1      42.776  44.606  65.295  1.00  0.00     0.116 A 
HETATM   26  C   UNL     1      42.422  44.995  64.015  1.00  0.00     0.020 A 
HETATM   27  C   UNL     1      41.190  44.581  63.517  1.00  0.00     0.012 A 
ENDBRANCH   9  22
TORSDOF 3
ENDMDL
