MODEL 1
REMARK VINA RESULT:     -11.0      0.000      0.000
REMARK  6 active torsions:
REMARK  status: ('A' for Active; 'I' for Inactive)
REMARK    1  A    between atoms: C_6  and  N_7 
REMARK       I    between atoms: N_7  and  C_8 
REMARK    2  A    between atoms: C_8  and  C_9 
REMARK    3  A    between atoms: C_11  and  N_12 
REMARK    4  A    between atoms: N_12  and  N_13 
REMARK       I    between atoms: N_13  and  C_14 
REMARK    5  A    between atoms: C_14  and  C_15 
REMARK    6  A    between atoms: C_16  and  C_17 
ROOT
HETATM    1  C   UNL     1      25.124  45.186  51.578  1.00  0.00     0.151 A 
HETATM    2  N   UNL     1      25.146  46.537  51.342  1.00  0.00    -0.210 NA
HETATM    3  C   UNL     1      24.543  46.972  50.231  1.00  0.00     0.220 A 
HETATM    4  N   UNL     1      23.907  46.162  49.365  1.00  0.00    -0.228 NA
HETATM    5  C   UNL     1      23.901  44.841  49.644  1.00  0.00     0.146 A 
HETATM    6  C   UNL     1      24.501  44.276  50.747  1.00  0.00     0.086 A 
HETATM    7 CL   UNL     1      24.401  42.577  50.948  1.00  0.00    -0.080 Cl
ENDROOT
BRANCH   3   8
HETATM    8  N   UNL     1      24.600  48.345  49.955  1.00  0.00    -0.169 NA
HETATM    9  H   UNL     1      25.044  48.837  50.732  1.00  0.00     0.156 HD
BRANCH   8  10
HETATM   10  N   UNL     1      23.357  48.887  49.581  1.00  0.00    -0.281 N 
HETATM   11  C   UNL     1      23.299  49.632  48.427  1.00  0.00     0.255 C 
HETATM   12  O   UNL     1      24.253  49.800  47.675  1.00  0.00    -0.267 OA
HETATM   13  H   UNL     1      22.614  48.810  50.271  1.00  0.00     0.184 HD
BRANCH  11  14
HETATM   14  C   UNL     1      21.958  50.225  48.192  1.00  0.00     0.076 C 
HETATM   15  C   UNL     1      21.232  50.665  49.232  1.00  0.00     0.017 C 
BRANCH  15  16
HETATM   16  C   UNL     1      19.886  51.257  49.151  1.00  0.00    -0.036 A 
HETATM   17  C   UNL     1      18.885  50.749  49.994  1.00  0.00     0.013 A 
HETATM   18  C   UNL     1      17.590  51.279  49.976  1.00  0.00     0.024 A 
HETATM   19  C   UNL     1      17.287  52.329  49.115  1.00  0.00     0.034 A 
HETATM   20 CL   UNL     1      15.696  52.981  49.086  1.00  0.00    -0.084 Cl
HETATM   21  C   UNL     1      18.267  52.856  48.279  1.00  0.00     0.024 A 
HETATM   22  C   UNL     1      19.563  52.326  48.302  1.00  0.00     0.013 A 
ENDBRANCH  15  16
ENDBRANCH  11  14
ENDBRANCH   8  10
ENDBRANCH   3   8
BRANCH   1  23
HETATM   23  C   UNL     1      25.861  44.783  52.832  1.00  0.00     0.276 C 
HETATM   24  N   UNL     1      27.238  44.869  52.700  1.00  0.00    -0.322 N 
HETATM   25  H   UNL     1      27.556  45.200  51.793  1.00  0.00     0.169 HD
HETATM   26  O   UNL     1      25.259  44.424  53.834  1.00  0.00    -0.266 OA
BRANCH  24  27
HETATM   27  C   UNL     1      28.227  44.556  53.652  1.00  0.00     0.035 A 
HETATM   28  C   UNL     1      28.509  45.338  54.773  1.00  0.00     0.037 A 
HETATM   29  C   UNL     1      29.505  44.964  55.695  1.00  0.00    -0.054 A 
HETATM   30  C   UNL     1      30.257  43.796  55.467  1.00  0.00    -0.056 A 
HETATM   31  C   UNL     1      29.767  45.855  56.881  1.00  0.00     0.049 C 
HETATM   32  C   UNL     1      31.341  43.359  56.413  1.00  0.00     0.049 C 
HETATM   33  C   UNL     1      29.963  43.008  54.348  1.00  0.00     0.009 A 
HETATM   34  C   UNL     1      28.959  43.383  53.451  1.00  0.00     0.030 A 
ENDBRANCH  24  27
ENDBRANCH   1  23
TORSDOF 6
ENDMDL
MODEL 2
REMARK VINA RESULT:     -10.8      2.868     11.643
REMARK  6 active torsions:
REMARK  status: ('A' for Active; 'I' for Inactive)
REMARK    1  A    between atoms: C_6  and  N_7 
REMARK       I    between atoms: N_7  and  C_8 
REMARK    2  A    between atoms: C_8  and  C_9 
REMARK    3  A    between atoms: C_11  and  N_12 
REMARK    4  A    between atoms: N_12  and  N_13 
REMARK       I    between atoms: N_13  and  C_14 
REMARK    5  A    between atoms: C_14  and  C_15 
REMARK    6  A    between atoms: C_16  and  C_17 
ROOT
HETATM    1  C   UNL     1      24.485  48.938  49.018  1.00  0.00     0.151 A 
HETATM    2  N   UNL     1      24.016  47.972  49.873  1.00  0.00    -0.210 NA
HETATM    3  C   UNL     1      24.922  47.282  50.571  1.00  0.00     0.220 A 
HETATM    4  N   UNL     1      26.247  47.505  50.493  1.00  0.00    -0.228 NA
HETATM    5  C   UNL     1      26.663  48.473  49.647  1.00  0.00     0.146 A 
HETATM    6  C   UNL     1      25.824  49.236  48.867  1.00  0.00     0.086 A 
HETATM    7 CL   UNL     1      26.521  50.423  47.844  1.00  0.00    -0.080 Cl
ENDROOT
BRANCH   3   8
HETATM    8  N   UNL     1      24.458  46.261  51.411  1.00  0.00    -0.169 NA
HETATM    9  H   UNL     1      23.604  46.563  51.885  1.00  0.00     0.156 HD
BRANCH   8  10
HETATM   10  N   UNL     1      25.445  45.771  52.285  1.00  0.00    -0.281 N 
HETATM   11  C   UNL     1      25.431  44.429  52.586  1.00  0.00     0.255 C 
HETATM   12  O   UNL     1      24.647  43.627  52.091  1.00  0.00    -0.267 OA
HETATM   13  H   UNL     1      26.015  46.474  52.749  1.00  0.00     0.184 HD
BRANCH  11  14
HETATM   14  C   UNL     1      26.461  44.054  53.588  1.00  0.00     0.076 C 
HETATM   15  C   UNL     1      27.623  44.724  53.632  1.00  0.00     0.017 C 
BRANCH  15  16
HETATM   16  C   UNL     1      28.737  44.452  54.556  1.00  0.00    -0.036 A 
HETATM   17  C   UNL     1      29.437  43.243  54.417  1.00  0.00     0.013 A 
HETATM   18  C   UNL     1      30.514  42.933  55.253  1.00  0.00     0.024 A 
HETATM   19  C   UNL     1      30.906  43.837  56.236  1.00  0.00     0.034 A 
HETATM   20 CL   UNL     1      32.228  43.458  57.270  1.00  0.00    -0.084 Cl
HETATM   21  C   UNL     1      30.235  45.047  56.384  1.00  0.00     0.024 A 
HETATM   22  C   UNL     1      29.159  45.356  55.543  1.00  0.00     0.013 A 
ENDBRANCH  15  16
ENDBRANCH  11  14
ENDBRANCH   8  10
ENDBRANCH   3   8
BRANCH   1  23
HETATM   23  C   UNL     1      23.395  49.637  48.244  1.00  0.00     0.276 C 
HETATM   24  N   UNL     1      22.170  49.611  48.894  1.00  0.00    -0.322 N 
HETATM   25  H   UNL     1      22.179  49.142  49.795  1.00  0.00     0.169 HD
HETATM   26  O   UNL     1      23.619  50.157  47.161  1.00  0.00    -0.266 OA
BRANCH  24  27
HETATM   27  C   UNL     1      20.941  50.144  48.459  1.00  0.00     0.035 A 
HETATM   28  C   UNL     1      20.033  49.457  47.652  1.00  0.00     0.037 A 
HETATM   29  C   UNL     1      18.814  50.042  47.259  1.00  0.00    -0.054 A 
HETATM   30  C   UNL     1      18.516  51.358  47.660  1.00  0.00    -0.056 A 
HETATM   31  C   UNL     1      17.879  49.253  46.381  1.00  0.00     0.049 C 
HETATM   32  C   UNL     1      17.235  52.035  47.257  1.00  0.00     0.049 C 
HETATM   33  C   UNL     1      19.425  52.039  48.479  1.00  0.00     0.009 A 
HETATM   34  C   UNL     1      20.623  51.438  48.875  1.00  0.00     0.030 A 
ENDBRANCH  24  27
ENDBRANCH   1  23
TORSDOF 6
ENDMDL
MODEL 3
REMARK VINA RESULT:     -10.2      1.918      2.866
REMARK  6 active torsions:
REMARK  status: ('A' for Active; 'I' for Inactive)
REMARK    1  A    between atoms: C_6  and  N_7 
REMARK       I    between atoms: N_7  and  C_8 
REMARK    2  A    between atoms: C_8  and  C_9 
REMARK    3  A    between atoms: C_11  and  N_12 
REMARK    4  A    between atoms: N_12  and  N_13 
REMARK       I    between atoms: N_13  and  C_14 
REMARK    5  A    between atoms: C_14  and  C_15 
REMARK    6  A    between atoms: C_16  and  C_17 
ROOT
HETATM    1  C   UNL     1      27.341  43.451  51.822  1.00  0.00     0.151 A 
HETATM    2  N   UNL     1      27.243  44.735  51.347  1.00  0.00    -0.210 NA
HETATM    3  C   UNL     1      26.888  44.887  50.068  1.00  0.00     0.220 A 
HETATM    4  N   UNL     1      26.605  43.857  49.248  1.00  0.00    -0.228 NA
HETATM    5  C   UNL     1      26.704  42.612  49.762  1.00  0.00     0.146 A 
HETATM    6  C   UNL     1      27.075  42.333  51.057  1.00  0.00     0.086 A 
HETATM    7 CL   UNL     1      27.154  40.691  51.546  1.00  0.00    -0.080 Cl
ENDROOT
BRANCH   3   8
HETATM    8  N   UNL     1      26.831  46.191  49.559  1.00  0.00    -0.169 NA
HETATM    9  H   UNL     1      27.478  46.792  50.071  1.00  0.00     0.156 HD
BRANCH   8  10
HETATM   10  N   UNL     1      25.522  46.701  49.489  1.00  0.00    -0.281 N 
HETATM   11  C   UNL     1      25.366  48.049  49.263  1.00  0.00     0.255 C 
HETATM   12  O   UNL     1      26.298  48.818  49.059  1.00  0.00    -0.267 OA
HETATM   13  H   UNL     1      24.780  46.059  49.757  1.00  0.00     0.184 HD
BRANCH  11  14
HETATM   14  C   UNL     1      23.945  48.479  49.305  1.00  0.00     0.076 C 
HETATM   15  C   UNL     1      23.621  49.740  48.983  1.00  0.00     0.017 C 
BRANCH  15  16
HETATM   16  C   UNL     1      22.262  50.309  48.998  1.00  0.00    -0.036 A 
HETATM   17  C   UNL     1      21.713  50.689  50.233  1.00  0.00     0.013 A 
HETATM   18  C   UNL     1      20.434  51.250  50.310  1.00  0.00     0.024 A 
HETATM   19  C   UNL     1      19.692  51.439  49.149  1.00  0.00     0.034 A 
HETATM   20 CL   UNL     1      18.117  52.124  49.240  1.00  0.00    -0.084 Cl
HETATM   21  C   UNL     1      20.221  51.081  47.913  1.00  0.00     0.024 A 
HETATM   22  C   UNL     1      21.504  50.524  47.837  1.00  0.00     0.013 A 
ENDBRANCH  15  16
ENDBRANCH  11  14
ENDBRANCH   8  10
ENDBRANCH   3   8
BRANCH   1  23
HETATM   23  C   UNL     1      27.784  43.375  53.263  1.00  0.00     0.276 C 
HETATM   24  N   UNL     1      28.635  44.410  53.621  1.00  0.00    -0.322 N 
HETATM   25  H   UNL     1      28.829  45.074  52.877  1.00  0.00     0.169 HD
HETATM   26  O   UNL     1      27.404  42.474  53.996  1.00  0.00    -0.266 OA
BRANCH  24  27
HETATM   27  C   UNL     1      29.251  44.641  54.866  1.00  0.00     0.035 A 
HETATM   28  C   UNL     1      30.295  43.870  55.377  1.00  0.00     0.037 A 
HETATM   29  C   UNL     1      30.876  44.159  56.627  1.00  0.00    -0.054 A 
HETATM   30  C   UNL     1      30.374  45.227  57.394  1.00  0.00    -0.056 A 
HETATM   31  C   UNL     1      31.995  43.284  57.127  1.00  0.00     0.049 C 
HETATM   32  C   UNL     1      30.948  45.570  58.740  1.00  0.00     0.049 C 
HETATM   33  C   UNL     1      29.333  46.006  56.872  1.00  0.00     0.009 A 
HETATM   34  C   UNL     1      28.779  45.717  55.622  1.00  0.00     0.030 A 
ENDBRANCH  24  27
ENDBRANCH   1  23
TORSDOF 6
ENDMDL
MODEL 4
REMARK VINA RESULT:     -10.2      1.070      1.738
REMARK  6 active torsions:
REMARK  status: ('A' for Active; 'I' for Inactive)
REMARK    1  A    between atoms: C_6  and  N_7 
REMARK       I    between atoms: N_7  and  C_8 
REMARK    2  A    between atoms: C_8  and  C_9 
REMARK    3  A    between atoms: C_11  and  N_12 
REMARK    4  A    between atoms: N_12  and  N_13 
REMARK       I    between atoms: N_13  and  C_14 
REMARK    5  A    between atoms: C_14  and  C_15 
REMARK    6  A    between atoms: C_16  and  C_17 
ROOT
HETATM    1  C   UNL     1      25.654  45.269  50.923  1.00  0.00     0.151 A 
HETATM    2  N   UNL     1      25.487  46.612  50.704  1.00  0.00    -0.210 NA
HETATM    3  C   UNL     1      24.456  46.982  49.937  1.00  0.00     0.220 A 
HETATM    4  N   UNL     1      23.579  46.113  49.402  1.00  0.00    -0.228 NA
HETATM    5  C   UNL     1      23.776  44.801  49.654  1.00  0.00     0.146 A 
HETATM    6  C   UNL     1      24.810  44.302  50.414  1.00  0.00     0.086 A 
HETATM    7 CL   UNL     1      24.915  42.604  50.632  1.00  0.00    -0.080 Cl
ENDROOT
BRANCH   3   8
HETATM    8  N   UNL     1      24.303  48.348  49.667  1.00  0.00    -0.169 NA
HETATM    9  H   UNL     1      24.742  48.900  50.407  1.00  0.00     0.156 HD
BRANCH   8  10
HETATM   10  N   UNL     1      22.971  48.715  49.405  1.00  0.00    -0.281 N 
HETATM   11  C   UNL     1      22.719  49.477  48.288  1.00  0.00     0.255 C 
HETATM   12  O   UNL     1      23.578  49.803  47.477  1.00  0.00    -0.267 OA
HETATM   13  H   UNL     1      22.301  48.512  50.144  1.00  0.00     0.184 HD
BRANCH  11  14
HETATM   14  C   UNL     1      21.293  49.876  48.174  1.00  0.00     0.076 C 
HETATM   15  C   UNL     1      20.876  51.026  48.727  1.00  0.00     0.017 C 
BRANCH  15  16
HETATM   16  C   UNL     1      19.495  51.537  48.709  1.00  0.00    -0.036 A 
HETATM   17  C   UNL     1      18.818  51.578  47.480  1.00  0.00     0.013 A 
HETATM   18  C   UNL     1      17.499  52.038  47.400  1.00  0.00     0.024 A 
HETATM   19  C   UNL     1      16.843  52.458  48.553  1.00  0.00     0.034 A 
HETATM   20 CL   UNL     1      15.223  53.029  48.458  1.00  0.00    -0.084 Cl
HETATM   21  C   UNL     1      17.492  52.415  49.783  1.00  0.00     0.024 A 
HETATM   22  C   UNL     1      18.810  51.950  49.862  1.00  0.00     0.013 A 
ENDBRANCH  15  16
ENDBRANCH  11  14
ENDBRANCH   8  10
ENDBRANCH   3   8
BRANCH   1  23
HETATM   23  C   UNL     1      26.863  44.943  51.766  1.00  0.00     0.276 C 
HETATM   24  N   UNL     1      26.793  45.482  53.041  1.00  0.00    -0.322 N 
HETATM   25  H   UNL     1      25.942  46.004  53.234  1.00  0.00     0.169 HD
HETATM   26  O   UNL     1      27.783  44.270  51.322  1.00  0.00    -0.266 OA
BRANCH  24  27
HETATM   27  C   UNL     1      27.743  45.396  54.078  1.00  0.00     0.035 A 
HETATM   28  C   UNL     1      28.678  44.367  54.198  1.00  0.00     0.037 A 
HETATM   29  C   UNL     1      29.609  44.344  55.254  1.00  0.00    -0.054 A 
HETATM   30  C   UNL     1      29.578  45.359  56.228  1.00  0.00    -0.056 A 
HETATM   31  C   UNL     1      30.588  43.202  55.333  1.00  0.00     0.049 C 
HETATM   32  C   UNL     1      30.540  45.374  57.383  1.00  0.00     0.049 C 
HETATM   33  C   UNL     1      28.645  46.396  56.097  1.00  0.00     0.009 A 
HETATM   34  C   UNL     1      27.739  46.414  55.033  1.00  0.00     0.030 A 
ENDBRANCH  24  27
ENDBRANCH   1  23
TORSDOF 6
ENDMDL
MODEL 5
REMARK VINA RESULT:      -9.7      2.819      4.118
REMARK  6 active torsions:
REMARK  status: ('A' for Active; 'I' for Inactive)
REMARK    1  A    between atoms: C_6  and  N_7 
REMARK       I    between atoms: N_7  and  C_8 
REMARK    2  A    between atoms: C_8  and  C_9 
REMARK    3  A    between atoms: C_11  and  N_12 
REMARK    4  A    between atoms: N_12  and  N_13 
REMARK       I    between atoms: N_13  and  C_14 
REMARK    5  A    between atoms: C_14  and  C_15 
REMARK    6  A    between atoms: C_16  and  C_17 
ROOT
HETATM    1  C   UNL     1      27.464  42.335  51.584  1.00  0.00     0.151 A 
HETATM    2  N   UNL     1      26.674  42.976  50.663  1.00  0.00    -0.210 NA
HETATM    3  C   UNL     1      26.555  42.408  49.459  1.00  0.00     0.220 A 
HETATM    4  N   UNL     1      27.145  41.245  49.125  1.00  0.00    -0.228 NA
HETATM    5  C   UNL     1      27.903  40.643  50.067  1.00  0.00     0.146 A 
HETATM    6  C   UNL     1      28.112  41.141  51.333  1.00  0.00     0.086 A 
HETATM    7 CL   UNL     1      29.109  40.249  52.405  1.00  0.00    -0.080 Cl
ENDROOT
BRANCH   3   8
HETATM    8  N   UNL     1      25.790  43.079  48.496  1.00  0.00    -0.169 NA
HETATM    9  H   UNL     1      26.368  43.294  47.681  1.00  0.00     0.156 HD
BRANCH   8  10
HETATM   10  N   UNL     1      25.105  44.194  49.011  1.00  0.00    -0.281 N 
HETATM   11  C   UNL     1      23.870  44.492  48.484  1.00  0.00     0.255 C 
HETATM   12  O   UNL     1      23.308  43.808  47.636  1.00  0.00    -0.267 OA
HETATM   13  H   UNL     1      25.637  44.790  49.640  1.00  0.00     0.184 HD
BRANCH  11  14
HETATM   14  C   UNL     1      23.292  45.741  49.043  1.00  0.00     0.076 C 
HETATM   15  C   UNL     1      22.531  46.528  48.267  1.00  0.00     0.017 C 
BRANCH  15  16
HETATM   16  C   UNL     1      21.911  47.799  48.679  1.00  0.00    -0.036 A 
HETATM   17  C   UNL     1      20.513  47.850  48.794  1.00  0.00     0.013 A 
HETATM   18  C   UNL     1      19.866  49.023  49.196  1.00  0.00     0.024 A 
HETATM   19  C   UNL     1      20.615  50.157  49.493  1.00  0.00     0.034 A 
HETATM   20 CL   UNL     1      19.823  51.603  49.984  1.00  0.00    -0.084 Cl
HETATM   21  C   UNL     1      22.003  50.125  49.398  1.00  0.00     0.024 A 
HETATM   22  C   UNL     1      22.648  48.949  48.999  1.00  0.00     0.013 A 
ENDBRANCH  15  16
ENDBRANCH  11  14
ENDBRANCH   8  10
ENDBRANCH   3   8
BRANCH   1  23
HETATM   23  C   UNL     1      27.571  43.067  52.898  1.00  0.00     0.276 C 
HETATM   24  N   UNL     1      28.883  43.295  53.285  1.00  0.00    -0.322 N 
HETATM   25  H   UNL     1      29.582  42.953  52.630  1.00  0.00     0.169 HD
HETATM   26  O   UNL     1      26.574  43.402  53.521  1.00  0.00    -0.266 OA
BRANCH  24  27
HETATM   27  C   UNL     1      29.352  43.927  54.452  1.00  0.00     0.035 A 
HETATM   28  C   UNL     1      30.372  43.422  55.259  1.00  0.00     0.037 A 
HETATM   29  C   UNL     1      30.803  44.108  56.411  1.00  0.00    -0.054 A 
HETATM   30  C   UNL     1      30.172  45.312  56.777  1.00  0.00    -0.056 A 
HETATM   31  C   UNL     1      31.904  43.507  57.245  1.00  0.00     0.049 C 
HETATM   32  C   UNL     1      30.583  46.077  58.004  1.00  0.00     0.049 C 
HETATM   33  C   UNL     1      29.156  45.821  55.958  1.00  0.00     0.009 A 
HETATM   34  C   UNL     1      28.752  45.137  54.808  1.00  0.00     0.030 A 
ENDBRANCH  24  27
ENDBRANCH   1  23
TORSDOF 6
ENDMDL
MODEL 6
REMARK VINA RESULT:      -9.5      3.135     11.608
REMARK  6 active torsions:
REMARK  status: ('A' for Active; 'I' for Inactive)
REMARK    1  A    between atoms: C_6  and  N_7 
REMARK       I    between atoms: N_7  and  C_8 
REMARK    2  A    between atoms: C_8  and  C_9 
REMARK    3  A    between atoms: C_11  and  N_12 
REMARK    4  A    between atoms: N_12  and  N_13 
REMARK       I    between atoms: N_13  and  C_14 
REMARK    5  A    between atoms: C_14  and  C_15 
REMARK    6  A    between atoms: C_16  and  C_17 
ROOT
HETATM    1  C   UNL     1      23.592  47.597  48.864  1.00  0.00     0.151 A 
HETATM    2  N   UNL     1      23.854  46.325  49.305  1.00  0.00    -0.210 NA
HETATM    3  C   UNL     1      25.043  46.109  49.875  1.00  0.00     0.220 A 
HETATM    4  N   UNL     1      25.966  47.072  50.056  1.00  0.00    -0.228 NA
HETATM    5  C   UNL     1      25.660  48.312  49.616  1.00  0.00     0.146 A 
HETATM    6  C   UNL     1      24.477  48.648  49.000  1.00  0.00     0.086 A 
HETATM    7 CL   UNL     1      24.252  50.273  48.500  1.00  0.00    -0.080 Cl
ENDROOT
BRANCH   3   8
HETATM    8  N   UNL     1      25.340  44.803  50.286  1.00  0.00    -0.169 NA
HETATM    9  H   UNL     1      24.483  44.249  50.329  1.00  0.00     0.156 HD
BRANCH   8  10
HETATM   10  N   UNL     1      26.103  44.754  51.467  1.00  0.00    -0.281 N 
HETATM   11  C   UNL     1      26.395  43.518  51.996  1.00  0.00     0.255 C 
HETATM   12  O   UNL     1      26.081  42.458  51.465  1.00  0.00    -0.267 OA
HETATM   13  H   UNL     1      26.263  45.646  51.929  1.00  0.00     0.184 HD
BRANCH  11  14
HETATM   14  C   UNL     1      27.122  43.603  53.288  1.00  0.00     0.076 C 
HETATM   15  C   UNL     1      28.381  44.067  53.315  1.00  0.00     0.017 C 
BRANCH  15  16
HETATM   16  C   UNL     1      29.226  44.189  54.515  1.00  0.00    -0.036 A 
HETATM   17  C   UNL     1      29.018  45.286  55.366  1.00  0.00     0.013 A 
HETATM   18  C   UNL     1      29.778  45.449  56.530  1.00  0.00     0.024 A 
HETATM   19  C   UNL     1      30.751  44.510  56.855  1.00  0.00     0.034 A 
HETATM   20 CL   UNL     1      31.690  44.709  58.282  1.00  0.00    -0.084 Cl
HETATM   21  C   UNL     1      30.966  43.409  56.032  1.00  0.00     0.024 A 
HETATM   22  C   UNL     1      30.202  43.246  54.871  1.00  0.00     0.013 A 
ENDBRANCH  15  16
ENDBRANCH  11  14
ENDBRANCH   8  10
ENDBRANCH   3   8
BRANCH   1  23
HETATM   23  C   UNL     1      22.245  47.738  48.199  1.00  0.00     0.276 C 
HETATM   24  N   UNL     1      21.282  48.277  49.040  1.00  0.00    -0.322 N 
HETATM   25  H   UNL     1      21.616  48.511  49.970  1.00  0.00     0.169 HD
HETATM   26  O   UNL     1      22.071  47.397  47.038  1.00  0.00    -0.266 OA
BRANCH  24  27
HETATM   27  C   UNL     1      19.924  48.529  48.762  1.00  0.00     0.035 A 
HETATM   28  C   UNL     1      19.478  49.420  47.786  1.00  0.00     0.037 A 
HETATM   29  C   UNL     1      18.105  49.621  47.550  1.00  0.00    -0.054 A 
HETATM   30  C   UNL     1      17.160  48.935  48.334  1.00  0.00    -0.056 A 
HETATM   31  C   UNL     1      17.687  50.603  46.487  1.00  0.00     0.049 C 
HETATM   32  C   UNL     1      15.681  49.122  48.133  1.00  0.00     0.049 C 
HETATM   33  C   UNL     1      17.612  48.032  49.305  1.00  0.00     0.009 A 
HETATM   34  C   UNL     1      18.978  47.831  49.516  1.00  0.00     0.030 A 
ENDBRANCH  24  27
ENDBRANCH   1  23
TORSDOF 6
ENDMDL
MODEL 7
REMARK VINA RESULT:      -9.5      3.216      4.484
REMARK  6 active torsions:
REMARK  status: ('A' for Active; 'I' for Inactive)
REMARK    1  A    between atoms: C_6  and  N_7 
REMARK       I    between atoms: N_7  and  C_8 
REMARK    2  A    between atoms: C_8  and  C_9 
REMARK    3  A    between atoms: C_11  and  N_12 
REMARK    4  A    between atoms: N_12  and  N_13 
REMARK       I    between atoms: N_13  and  C_14 
REMARK    5  A    between atoms: C_14  and  C_15 
REMARK    6  A    between atoms: C_16  and  C_17 
ROOT
HETATM    1  C   UNL     1      25.817  45.021  50.805  1.00  0.00     0.151 A 
HETATM    2  N   UNL     1      25.848  45.972  49.817  1.00  0.00    -0.210 NA
HETATM    3  C   UNL     1      25.793  47.252  50.199  1.00  0.00     0.220 A 
HETATM    4  N   UNL     1      25.736  47.641  51.486  1.00  0.00    -0.228 NA
HETATM    5  C   UNL     1      25.719  46.670  52.425  1.00  0.00     0.146 A 
HETATM    6  C   UNL     1      25.755  45.322  52.151  1.00  0.00     0.086 A 
HETATM    7 CL   UNL     1      25.723  44.223  53.466  1.00  0.00    -0.080 Cl
ENDROOT
BRANCH   3   8
HETATM    8  N   UNL     1      25.776  48.231  49.196  1.00  0.00    -0.169 NA
HETATM    9  H   UNL     1      26.597  48.832  49.284  1.00  0.00     0.156 HD
BRANCH   8  10
HETATM   10  N   UNL     1      24.562  48.939  49.134  1.00  0.00    -0.281 N 
HETATM   11  C   UNL     1      24.428  49.907  48.167  1.00  0.00     0.255 C 
HETATM   12  O   UNL     1      25.281  50.147  47.320  1.00  0.00    -0.267 OA
HETATM   13  H   UNL     1      23.918  48.783  49.906  1.00  0.00     0.184 HD
BRANCH  11  14
HETATM   14  C   UNL     1      23.143  50.645  48.266  1.00  0.00     0.076 C 
HETATM   15  C   UNL     1      22.109  50.097  48.923  1.00  0.00     0.017 C 
BRANCH  15  16
HETATM   16  C   UNL     1      20.775  50.702  49.084  1.00  0.00    -0.036 A 
HETATM   17  C   UNL     1      19.894  50.130  50.016  1.00  0.00     0.013 A 
HETATM   18  C   UNL     1      18.620  50.669  50.226  1.00  0.00     0.024 A 
HETATM   19  C   UNL     1      18.218  51.791  49.508  1.00  0.00     0.034 A 
HETATM   20 CL   UNL     1      16.651  52.454  49.761  1.00  0.00    -0.084 Cl
HETATM   21  C   UNL     1      19.081  52.381  48.589  1.00  0.00     0.024 A 
HETATM   22  C   UNL     1      20.356  51.842  48.383  1.00  0.00     0.013 A 
ENDBRANCH  15  16
ENDBRANCH  11  14
ENDBRANCH   8  10
ENDBRANCH   3   8
BRANCH   1  23
HETATM   23  C   UNL     1      25.844  43.607  50.280  1.00  0.00     0.276 C 
HETATM   24  N   UNL     1      27.128  43.095  50.173  1.00  0.00    -0.322 N 
HETATM   25  H   UNL     1      27.863  43.730  50.473  1.00  0.00     0.169 HD
HETATM   26  O   UNL     1      24.813  43.018  49.990  1.00  0.00    -0.266 OA
BRANCH  24  27
HETATM   27  C   UNL     1      27.526  41.827  49.707  1.00  0.00     0.035 A 
HETATM   28  C   UNL     1      27.493  41.441  48.366  1.00  0.00     0.037 A 
HETATM   29  C   UNL     1      27.914  40.160  47.962  1.00  0.00    -0.054 A 
HETATM   30  C   UNL     1      28.347  39.236  48.931  1.00  0.00    -0.056 A 
HETATM   31  C   UNL     1      27.846  39.801  46.501  1.00  0.00     0.049 C 
HETATM   32  C   UNL     1      28.795  37.850  48.555  1.00  0.00     0.049 C 
HETATM   33  C   UNL     1      28.390  39.631  50.273  1.00  0.00     0.009 A 
HETATM   34  C   UNL     1      27.985  40.912  50.657  1.00  0.00     0.030 A 
ENDBRANCH  24  27
ENDBRANCH   1  23
TORSDOF 6
ENDMDL
MODEL 8
REMARK VINA RESULT:      -9.5      2.743      4.237
REMARK  6 active torsions:
REMARK  status: ('A' for Active; 'I' for Inactive)
REMARK    1  A    between atoms: C_6  and  N_7 
REMARK       I    between atoms: N_7  and  C_8 
REMARK    2  A    between atoms: C_8  and  C_9 
REMARK    3  A    between atoms: C_11  and  N_12 
REMARK    4  A    between atoms: N_12  and  N_13 
REMARK       I    between atoms: N_13  and  C_14 
REMARK    5  A    between atoms: C_14  and  C_15 
REMARK    6  A    between atoms: C_16  and  C_17 
ROOT
HETATM    1  C   UNL     1      24.463  48.466  49.285  1.00  0.00     0.151 A 
HETATM    2  N   UNL     1      23.202  48.059  49.641  1.00  0.00    -0.210 NA
HETATM    3  C   UNL     1      22.173  48.752  49.144  1.00  0.00     0.220 A 
HETATM    4  N   UNL     1      22.317  49.797  48.307  1.00  0.00    -0.228 NA
HETATM    5  C   UNL     1      23.576  50.155  47.976  1.00  0.00     0.146 A 
HETATM    6  C   UNL     1      24.710  49.527  48.437  1.00  0.00     0.086 A 
HETATM    7 CL   UNL     1      26.235  50.115  47.918  1.00  0.00    -0.080 Cl
ENDROOT
BRANCH   3   8
HETATM    8  N   UNL     1      20.883  48.375  49.538  1.00  0.00    -0.169 NA
HETATM    9  H   UNL     1      20.722  47.393  49.306  1.00  0.00     0.156 HD
BRANCH   8  10
HETATM   10  N   UNL     1      19.882  49.238  49.057  1.00  0.00    -0.281 N 
HETATM   11  C   UNL     1      18.930  49.681  49.945  1.00  0.00     0.255 C 
HETATM   12  O   UNL     1      18.939  49.415  51.142  1.00  0.00    -0.267 OA
HETATM   13  H   UNL     1      19.849  49.360  48.048  1.00  0.00     0.184 HD
BRANCH  11  14
HETATM   14  C   UNL     1      17.879  50.508  49.298  1.00  0.00     0.076 C 
HETATM   15  C   UNL     1      17.424  51.609  49.915  1.00  0.00     0.017 C 
BRANCH  15  16
HETATM   16  C   UNL     1      16.377  52.509  49.402  1.00  0.00    -0.036 A 
HETATM   17  C   UNL     1      15.879  52.283  48.109  1.00  0.00     0.013 A 
HETATM   18  C   UNL     1      14.873  53.094  47.573  1.00  0.00     0.024 A 
HETATM   19  C   UNL     1      14.351  54.138  48.330  1.00  0.00     0.034 A 
HETATM   20 CL   UNL     1      13.117  55.140  47.672  1.00  0.00    -0.084 Cl
HETATM   21  C   UNL     1      14.821  54.372  49.619  1.00  0.00     0.024 A 
HETATM   22  C   UNL     1      15.824  53.557  50.155  1.00  0.00     0.013 A 
ENDBRANCH  15  16
ENDBRANCH  11  14
ENDBRANCH   8  10
ENDBRANCH   3   8
BRANCH   1  23
HETATM   23  C   UNL     1      25.561  47.651  49.923  1.00  0.00     0.276 C 
HETATM   24  N   UNL     1      25.270  47.281  51.228  1.00  0.00    -0.322 N 
HETATM   25  H   UNL     1      24.364  47.596  51.564  1.00  0.00     0.169 HD
HETATM   26  O   UNL     1      26.582  47.373  49.311  1.00  0.00    -0.266 OA
BRANCH  24  27
HETATM   27  C   UNL     1      26.066  46.541  52.122  1.00  0.00     0.035 A 
HETATM   28  C   UNL     1      26.587  47.051  53.312  1.00  0.00     0.037 A 
HETATM   29  C   UNL     1      27.369  46.255  54.171  1.00  0.00    -0.054 A 
HETATM   30  C   UNL     1      27.662  44.927  53.808  1.00  0.00    -0.056 A 
HETATM   31  C   UNL     1      27.909  46.867  55.437  1.00  0.00     0.049 C 
HETATM   32  C   UNL     1      28.504  44.038  54.682  1.00  0.00     0.049 C 
HETATM   33  C   UNL     1      27.128  44.415  52.619  1.00  0.00     0.009 A 
HETATM   34  C   UNL     1      26.338  45.213  51.786  1.00  0.00     0.030 A 
ENDBRANCH  24  27
ENDBRANCH   1  23
TORSDOF 6
ENDMDL
MODEL 9
REMARK VINA RESULT:      -9.2      1.682      2.439
REMARK  6 active torsions:
REMARK  status: ('A' for Active; 'I' for Inactive)
REMARK    1  A    between atoms: C_6  and  N_7 
REMARK       I    between atoms: N_7  and  C_8 
REMARK    2  A    between atoms: C_8  and  C_9 
REMARK    3  A    between atoms: C_11  and  N_12 
REMARK    4  A    between atoms: N_12  and  N_13 
REMARK       I    between atoms: N_13  and  C_14 
REMARK    5  A    between atoms: C_14  and  C_15 
REMARK    6  A    between atoms: C_16  and  C_17 
ROOT
HETATM    1  C   UNL     1      23.552  45.629  49.492  1.00  0.00     0.151 A 
HETATM    2  N   UNL     1      23.646  46.997  49.445  1.00  0.00    -0.210 NA
HETATM    3  C   UNL     1      23.070  47.614  48.409  1.00  0.00     0.220 A 
HETATM    4  N   UNL     1      22.393  46.966  47.442  1.00  0.00    -0.228 NA
HETATM    5  C   UNL     1      22.316  45.621  47.535  1.00  0.00     0.146 A 
HETATM    6  C   UNL     1      22.883  44.878  48.546  1.00  0.00     0.086 A 
HETATM    7 CL   UNL     1      22.691  43.175  48.510  1.00  0.00    -0.080 Cl
ENDROOT
BRANCH   3   8
HETATM    8  N   UNL     1      23.201  49.006  48.325  1.00  0.00    -0.169 NA
HETATM    9  H   UNL     1      23.960  49.321  48.931  1.00  0.00     0.156 HD
BRANCH   8  10
HETATM   10  N   UNL     1      21.990  49.690  48.537  1.00  0.00    -0.281 N 
HETATM   11  C   UNL     1      21.943  50.619  49.549  1.00  0.00     0.255 C 
HETATM   12  O   UNL     1      22.909  50.928  50.237  1.00  0.00    -0.267 OA
HETATM   13  H   UNL     1      21.188  49.344  48.016  1.00  0.00     0.184 HD
BRANCH  11  14
HETATM   14  C   UNL     1      20.589  51.202  49.732  1.00  0.00     0.076 C 
HETATM   15  C   UNL     1      19.713  51.185  48.715  1.00  0.00     0.017 C 
BRANCH  15  16
HETATM   16  C   UNL     1      18.349  51.740  48.747  1.00  0.00    -0.036 A 
HETATM   17  C   UNL     1      17.946  52.448  49.890  1.00  0.00     0.013 A 
HETATM   18  C   UNL     1      16.668  53.013  49.974  1.00  0.00     0.024 A 
HETATM   19  C   UNL     1      15.783  52.877  48.909  1.00  0.00     0.034 A 
HETATM   20 CL   UNL     1      14.210  53.566  49.010  1.00  0.00    -0.084 Cl
HETATM   21  C   UNL     1      16.167  52.190  47.762  1.00  0.00     0.024 A 
HETATM   22  C   UNL     1      17.447  51.629  47.678  1.00  0.00     0.013 A 
ENDBRANCH  15  16
ENDBRANCH  11  14
ENDBRANCH   8  10
ENDBRANCH   3   8
BRANCH   1  23
HETATM   23  C   UNL     1      24.263  45.018  50.674  1.00  0.00     0.276 C 
HETATM   24  N   UNL     1      25.601  45.378  50.744  1.00  0.00    -0.322 N 
HETATM   25  H   UNL     1      25.909  46.006  50.007  1.00  0.00     0.169 HD
HETATM   26  O   UNL     1      23.677  44.286  51.458  1.00  0.00    -0.266 OA
BRANCH  24  27
HETATM   27  C   UNL     1      26.562  44.981  51.694  1.00  0.00     0.035 A 
HETATM   28  C   UNL     1      26.644  45.500  52.986  1.00  0.00     0.037 A 
HETATM   29  C   UNL     1      27.624  45.055  53.894  1.00  0.00    -0.054 A 
HETATM   30  C   UNL     1      28.562  44.090  53.482  1.00  0.00    -0.056 A 
HETATM   31  C   UNL     1      27.665  45.660  55.272  1.00  0.00     0.049 C 
HETATM   32  C   UNL     1      29.637  43.589  54.406  1.00  0.00     0.049 C 
HETATM   33  C   UNL     1      28.469  43.563  52.187  1.00  0.00     0.009 A 
HETATM   34  C   UNL     1      27.479  44.003  51.304  1.00  0.00     0.030 A 
ENDBRANCH  24  27
ENDBRANCH   1  23
TORSDOF 6
ENDMDL
MODEL 10
REMARK VINA RESULT:      -8.8      3.345     11.957
REMARK  6 active torsions:
REMARK  status: ('A' for Active; 'I' for Inactive)
REMARK    1  A    between atoms: C_6  and  N_7 
REMARK       I    between atoms: N_7  and  C_8 
REMARK    2  A    between atoms: C_8  and  C_9 
REMARK    3  A    between atoms: C_11  and  N_12 
REMARK    4  A    between atoms: N_12  and  N_13 
REMARK       I    between atoms: N_13  and  C_14 
REMARK    5  A    between atoms: C_14  and  C_15 
REMARK    6  A    between atoms: C_16  and  C_17 
ROOT
HETATM    1  C   UNL     1      21.695  48.557  48.958  1.00  0.00     0.151 A 
HETATM    2  N   UNL     1      22.226  47.303  49.125  1.00  0.00    -0.210 NA
HETATM    3  C   UNL     1      23.558  47.200  49.131  1.00  0.00     0.220 A 
HETATM    4  N   UNL     1      24.386  48.255  49.010  1.00  0.00    -0.228 NA
HETATM    5  C   UNL     1      23.818  49.471  48.859  1.00  0.00     0.146 A 
HETATM    6  C   UNL     1      22.462  49.697  48.821  1.00  0.00     0.086 A 
HETATM    7 CL   UNL     1      21.910  51.308  48.621  1.00  0.00    -0.080 Cl
ENDROOT
BRANCH   3   8
HETATM    8  N   UNL     1      24.112  45.918  49.252  1.00  0.00    -0.169 NA
HETATM    9  H   UNL     1      23.367  45.228  49.370  1.00  0.00     0.156 HD
BRANCH   8  10
HETATM   10  N   UNL     1      25.114  45.838  50.236  1.00  0.00    -0.281 N 
HETATM   11  C   UNL     1      24.891  45.023  51.320  1.00  0.00     0.255 C 
HETATM   12  O   UNL     1      23.897  44.317  51.449  1.00  0.00    -0.267 OA
HETATM   13  H   UNL     1      25.877  46.505  50.146  1.00  0.00     0.184 HD
BRANCH  11  14
HETATM   14  C   UNL     1      25.978  45.097  52.329  1.00  0.00     0.076 C 
HETATM   15  C   UNL     1      26.906  44.129  52.381  1.00  0.00     0.017 C 
BRANCH  15  16
HETATM   16  C   UNL     1      28.026  44.062  53.336  1.00  0.00    -0.036 A 
HETATM   17  C   UNL     1      28.061  44.993  54.386  1.00  0.00     0.013 A 
HETATM   18  C   UNL     1      29.089  44.972  55.334  1.00  0.00     0.024 A 
HETATM   19  C   UNL     1      30.092  44.011  55.242  1.00  0.00     0.034 A 
HETATM   20 CL   UNL     1      31.361  43.983  56.403  1.00  0.00    -0.084 Cl
HETATM   21  C   UNL     1      30.070  43.071  54.217  1.00  0.00     0.024 A 
HETATM   22  C   UNL     1      29.037  43.092  53.272  1.00  0.00     0.013 A 
ENDBRANCH  15  16
ENDBRANCH  11  14
ENDBRANCH   8  10
ENDBRANCH   3   8
BRANCH   1  23
HETATM   23  C   UNL     1      20.187  48.572  48.925  1.00  0.00     0.276 C 
HETATM   24  N   UNL     1      19.677  48.699  47.642  1.00  0.00    -0.322 N 
HETATM   25  H   UNL     1      20.380  48.751  46.910  1.00  0.00     0.169 HD
HETATM   26  O   UNL     1      19.528  48.480  49.951  1.00  0.00    -0.266 OA
BRANCH  24  27
HETATM   27  C   UNL     1      18.328  48.767  47.242  1.00  0.00     0.035 A 
HETATM   28  C   UNL     1      17.574  49.941  47.229  1.00  0.00     0.037 A 
HETATM   29  C   UNL     1      16.231  49.945  46.808  1.00  0.00    -0.054 A 
HETATM   30  C   UNL     1      15.622  48.736  46.423  1.00  0.00    -0.056 A 
HETATM   31  C   UNL     1      15.468  51.244  46.825  1.00  0.00     0.049 C 
HETATM   32  C   UNL     1      14.187  48.681  45.978  1.00  0.00     0.049 C 
HETATM   33  C   UNL     1      16.386  47.562  46.426  1.00  0.00     0.009 A 
HETATM   34  C   UNL     1      17.724  47.578  46.830  1.00  0.00     0.030 A 
ENDBRANCH  24  27
ENDBRANCH   1  23
TORSDOF 6
ENDMDL
