MODEL 1
REMARK VINA RESULT:      -9.5      0.000      0.000
REMARK  4 active torsions:
REMARK  status: ('A' for Active; 'I' for Inactive)
REMARK    1  A    between atoms: N_1  and  C_2 
REMARK    2  A    between atoms: C_2  and  C_3 
REMARK    3  A    between atoms: C_3  and  C_4 
REMARK    4  A    between atoms: N_13  and  C_16 
ROOT
HETATM    1  C   UNL     1      27.160  44.168  52.557  1.00  0.00     0.162 C 
HETATM    2  C   UNL     1      27.001  44.006  51.022  1.00  0.00     0.061 C 
HETATM    3  C   UNL     1      25.787  44.736  50.440  1.00  0.00     0.125 C 
HETATM    4  N   UNL     1      25.830  46.141  50.860  1.00  0.00    -0.380 N 
HETATM    5  C   UNL     1      25.773  46.316  52.322  1.00  0.00     0.125 C 
HETATM    6  C   UNL     1      27.002  45.656  52.944  1.00  0.00     0.061 C 
ENDROOT
BRANCH   1   7
HETATM    7  N   UNL     1      26.130  43.365  53.245  1.00  0.00     0.088 N 
HETATM    8  H   UNL     1      26.486  42.432  53.451  1.00  0.00     0.313 HD
HETATM    9  H   UNL     1      25.296  43.243  52.678  1.00  0.00     0.313 HD
ENDBRANCH   1   7
BRANCH   1  10
HETATM   10  C   UNL     1      28.582  43.643  52.946  1.00  0.00     0.079 C 
BRANCH  10  11
HETATM   11  C   UNL     1      29.156  44.125  54.262  1.00  0.00    -0.056 A 
HETATM   12  C   UNL     1      28.627  45.253  54.905  1.00  0.00     0.009 A 
HETATM   13  C   UNL     1      29.153  45.687  56.123  1.00  0.00     0.024 A 
HETATM   14  C   UNL     1      30.213  44.998  56.706  1.00  0.00     0.034 A 
HETATM   15 CL   UNL     1      30.864  45.534  58.205  1.00  0.00    -0.084 Cl
HETATM   16  C   UNL     1      30.751  43.876  56.080  1.00  0.00     0.024 A 
HETATM   17  C   UNL     1      30.223  43.439  54.863  1.00  0.00     0.009 A 
ENDBRANCH  10  11
ENDBRANCH   1  10
BRANCH   4  18
HETATM   18  C   UNL     1      25.214  47.126  50.101  1.00  0.00     0.045 A 
HETATM   19  C   UNL     1      23.839  47.106  49.795  1.00  0.00     0.047 A 
HETATM   20  C   UNL     1      23.247  48.082  49.000  1.00  0.00     0.092 A 
HETATM   21  N   UNL     1      23.967  49.084  48.487  1.00  0.00    -0.351 N 
HETATM   22  H   UNL     1      23.527  49.792  47.903  1.00  0.00     0.166 HD
HETATM   23  C   UNL     1      25.296  49.132  48.751  1.00  0.00     0.117 A 
HETATM   24  N   UNL     1      26.197  50.064  48.305  1.00  0.00    -0.352 N 
HETATM   25  C   UNL     1      25.957  48.195  49.533  1.00  0.00     0.036 A 
HETATM   26  H   UNL     1      26.006  50.867  47.718  1.00  0.00     0.166 HD
HETATM   27  C   UNL     1      27.445  49.733  48.769  1.00  0.00     0.090 A 
HETATM   28  C   UNL     1      27.329  48.581  49.517  1.00  0.00     0.034 A 
ENDBRANCH   4  18
TORSDOF 4
ENDMDL
MODEL 2
REMARK VINA RESULT:      -9.4      1.565      2.210
REMARK  4 active torsions:
REMARK  status: ('A' for Active; 'I' for Inactive)
REMARK    1  A    between atoms: N_1  and  C_2 
REMARK    2  A    between atoms: C_2  and  C_3 
REMARK    3  A    between atoms: C_3  and  C_4 
REMARK    4  A    between atoms: N_13  and  C_16 
ROOT
HETATM    1  C   UNL     1      27.511  43.495  52.996  1.00  0.00     0.162 C 
HETATM    2  C   UNL     1      27.209  42.853  51.615  1.00  0.00     0.061 C 
HETATM    3  C   UNL     1      25.736  42.923  51.204  1.00  0.00     0.125 C 
HETATM    4  N   UNL     1      25.282  44.315  51.293  1.00  0.00    -0.380 N 
HETATM    5  C   UNL     1      25.372  44.874  52.653  1.00  0.00     0.125 C 
HETATM    6  C   UNL     1      26.837  44.883  53.084  1.00  0.00     0.061 C 
ENDROOT
BRANCH   1   7
HETATM    7  N   UNL     1      26.992  42.622  54.067  1.00  0.00     0.088 N 
HETATM    8  H   UNL     1      27.043  43.097  54.968  1.00  0.00     0.313 HD
HETATM    9  H   UNL     1      27.526  41.763  54.155  1.00  0.00     0.313 HD
ENDBRANCH   1   7
BRANCH   1  10
HETATM   10  C   UNL     1      29.065  43.624  53.130  1.00  0.00     0.079 C 
BRANCH  10  11
HETATM   11  C   UNL     1      29.606  44.024  54.487  1.00  0.00    -0.056 A 
HETATM   12  C   UNL     1      29.149  45.185  55.127  1.00  0.00     0.009 A 
HETATM   13  C   UNL     1      29.644  45.543  56.383  1.00  0.00     0.024 A 
HETATM   14  C   UNL     1      30.599  44.745  57.006  1.00  0.00     0.034 A 
HETATM   15 CL   UNL     1      31.210  45.187  58.552  1.00  0.00    -0.084 Cl
HETATM   16  C   UNL     1      31.063  43.589  56.384  1.00  0.00     0.024 A 
HETATM   17  C   UNL     1      30.567  43.228  55.130  1.00  0.00     0.009 A 
ENDBRANCH  10  11
ENDBRANCH   1  10
BRANCH   4  18
HETATM   18  C   UNL     1      24.226  44.767  50.514  1.00  0.00     0.045 A 
HETATM   19  C   UNL     1      23.154  43.938  50.127  1.00  0.00     0.047 A 
HETATM   20  C   UNL     1      22.123  44.399  49.313  1.00  0.00     0.092 A 
HETATM   21  N   UNL     1      22.112  45.656  48.861  1.00  0.00    -0.351 N 
HETATM   22  H   UNL     1      21.356  45.984  48.262  1.00  0.00     0.166 HD
HETATM   23  C   UNL     1      23.131  46.481  49.203  1.00  0.00     0.117 A 
HETATM   24  N   UNL     1      23.303  47.788  48.827  1.00  0.00    -0.352 N 
HETATM   25  C   UNL     1      24.193  46.094  50.008  1.00  0.00     0.036 A 
HETATM   26  H   UNL     1      22.689  48.341  48.242  1.00  0.00     0.166 HD
HETATM   27  C   UNL     1      24.480  48.252  49.358  1.00  0.00     0.090 A 
HETATM   28  C   UNL     1      25.054  47.227  50.080  1.00  0.00     0.034 A 
ENDBRANCH   4  18
TORSDOF 4
ENDMDL
MODEL 3
REMARK VINA RESULT:      -9.0      4.204      5.089
REMARK  4 active torsions:
REMARK  status: ('A' for Active; 'I' for Inactive)
REMARK    1  A    between atoms: N_1  and  C_2 
REMARK    2  A    between atoms: C_2  and  C_3 
REMARK    3  A    between atoms: C_3  and  C_4 
REMARK    4  A    between atoms: N_13  and  C_16 
ROOT
HETATM    1  C   UNL     1      28.350  42.435  52.863  1.00  0.00     0.162 C 
HETATM    2  C   UNL     1      28.419  41.108  52.060  1.00  0.00     0.061 C 
HETATM    3  C   UNL     1      27.117  40.746  51.341  1.00  0.00     0.125 C 
HETATM    4  N   UNL     1      26.695  41.885  50.518  1.00  0.00    -0.380 N 
HETATM    5  C   UNL     1      26.425  43.104  51.301  1.00  0.00     0.125 C 
HETATM    6  C   UNL     1      27.717  43.541  51.989  1.00  0.00     0.061 C 
ENDROOT
BRANCH   1   7
HETATM    7  N   UNL     1      27.535  42.232  54.076  1.00  0.00     0.088 N 
HETATM    8  H   UNL     1      26.546  42.167  53.833  1.00  0.00     0.313 HD
HETATM    9  H   UNL     1      27.626  43.001  54.733  1.00  0.00     0.313 HD
ENDBRANCH   1   7
BRANCH   1  10
HETATM   10  C   UNL     1      29.812  42.820  53.270  1.00  0.00     0.079 C 
BRANCH  10  11
HETATM   11  C   UNL     1      29.979  43.634  54.536  1.00  0.00    -0.056 A 
HETATM   12  C   UNL     1      30.847  43.211  55.552  1.00  0.00     0.009 A 
HETATM   13  C   UNL     1      31.005  43.971  56.713  1.00  0.00     0.024 A 
HETATM   14  C   UNL     1      30.295  45.159  56.866  1.00  0.00     0.034 A 
HETATM   15 CL   UNL     1      30.487  46.095  58.296  1.00  0.00    -0.084 Cl
HETATM   16  C   UNL     1      29.428  45.594  55.866  1.00  0.00     0.024 A 
HETATM   17  C   UNL     1      29.272  44.835  54.704  1.00  0.00     0.009 A 
ENDBRANCH  10  11
ENDBRANCH   1  10
BRANCH   4  18
HETATM   18  C   UNL     1      25.904  41.692  49.394  1.00  0.00     0.045 A 
HETATM   19  C   UNL     1      24.496  41.755  49.432  1.00  0.00     0.047 A 
HETATM   20  C   UNL     1      23.718  41.521  48.302  1.00  0.00     0.092 A 
HETATM   21  N   UNL     1      24.280  41.220  47.128  1.00  0.00    -0.351 N 
HETATM   22  H   UNL     1      23.703  41.045  46.308  1.00  0.00     0.166 HD
HETATM   23  C   UNL     1      25.632  41.139  47.054  1.00  0.00     0.117 A 
HETATM   24  N   UNL     1      26.385  40.829  45.953  1.00  0.00    -0.352 N 
HETATM   25  C   UNL     1      26.472  41.358  48.137  1.00  0.00     0.036 A 
HETATM   26  H   UNL     1      26.049  40.622  45.020  1.00  0.00     0.166 HD
HETATM   27  C   UNL     1      27.710  40.819  46.309  1.00  0.00     0.090 A 
HETATM   28  C   UNL     1      27.792  41.130  47.650  1.00  0.00     0.034 A 
ENDBRANCH   4  18
TORSDOF 4
ENDMDL
MODEL 4
REMARK VINA RESULT:      -9.0      1.920      3.265
REMARK  4 active torsions:
REMARK  status: ('A' for Active; 'I' for Inactive)
REMARK    1  A    between atoms: N_1  and  C_2 
REMARK    2  A    between atoms: C_2  and  C_3 
REMARK    3  A    between atoms: C_3  and  C_4 
REMARK    4  A    between atoms: N_13  and  C_16 
ROOT
HETATM    1  C   UNL     1      28.333  42.427  53.252  1.00  0.00     0.162 C 
HETATM    2  C   UNL     1      28.521  42.790  51.754  1.00  0.00     0.061 C 
HETATM    3  C   UNL     1      27.218  43.140  51.030  1.00  0.00     0.125 C 
HETATM    4  N   UNL     1      26.521  44.188  51.783  1.00  0.00    -0.380 N 
HETATM    5  C   UNL     1      26.152  43.779  53.150  1.00  0.00     0.125 C 
HETATM    6  C   UNL     1      27.428  43.479  53.933  1.00  0.00     0.061 C 
ENDROOT
BRANCH   1   7
HETATM    7  N   UNL     1      27.712  41.093  53.360  1.00  0.00     0.088 N 
HETATM    8  H   UNL     1      26.788  41.164  53.786  1.00  0.00     0.313 HD
HETATM    9  H   UNL     1      28.256  40.461  53.940  1.00  0.00     0.313 HD
ENDBRANCH   1   7
BRANCH   1  10
HETATM   10  C   UNL     1      29.751  42.402  53.916  1.00  0.00     0.079 C 
BRANCH  10  11
HETATM   11  C   UNL     1      30.011  43.411  55.016  1.00  0.00    -0.056 A 
HETATM   12  C   UNL     1      29.380  44.663  55.005  1.00  0.00     0.009 A 
HETATM   13  C   UNL     1      29.616  45.585  56.027  1.00  0.00     0.024 A 
HETATM   14  C   UNL     1      30.486  45.261  57.065  1.00  0.00     0.034 A 
HETATM   15 CL   UNL     1      30.779  46.397  58.324  1.00  0.00    -0.084 Cl
HETATM   16  C   UNL     1      31.121  44.022  57.091  1.00  0.00     0.024 A 
HETATM   17  C   UNL     1      30.882  43.099  56.071  1.00  0.00     0.009 A 
ENDBRANCH  10  11
ENDBRANCH   1  10
BRANCH   4  18
HETATM   18  C   UNL     1      25.644  45.054  51.145  1.00  0.00     0.045 A 
HETATM   19  C   UNL     1      25.845  46.448  51.101  1.00  0.00     0.047 A 
HETATM   20  C   UNL     1      24.934  47.304  50.491  1.00  0.00     0.092 A 
HETATM   21  N   UNL     1      23.820  46.835  49.922  1.00  0.00    -0.351 N 
HETATM   22  H   UNL     1      23.156  47.469  49.482  1.00  0.00     0.166 HD
HETATM   23  C   UNL     1      23.585  45.499  49.954  1.00  0.00     0.117 A 
HETATM   24  N   UNL     1      22.500  44.835  49.444  1.00  0.00    -0.352 N 
HETATM   25  C   UNL     1      24.446  44.585  50.544  1.00  0.00     0.036 A 
HETATM   26  H   UNL     1      21.711  45.240  48.956  1.00  0.00     0.166 HD
HETATM   27  C   UNL     1      22.631  43.497  49.716  1.00  0.00     0.090 A 
HETATM   28  C   UNL     1      23.813  43.315  50.402  1.00  0.00     0.034 A 
ENDBRANCH   4  18
TORSDOF 4
ENDMDL
MODEL 5
REMARK VINA RESULT:      -9.0      4.615      6.708
REMARK  4 active torsions:
REMARK  status: ('A' for Active; 'I' for Inactive)
REMARK    1  A    between atoms: N_1  and  C_2 
REMARK    2  A    between atoms: C_2  and  C_3 
REMARK    3  A    between atoms: C_3  and  C_4 
REMARK    4  A    between atoms: N_13  and  C_16 
ROOT
HETATM    1  C   UNL     1      27.716  42.932  53.099  1.00  0.00     0.162 C 
HETATM    2  C   UNL     1      29.101  42.236  53.017  1.00  0.00     0.061 C 
HETATM    3  C   UNL     1      29.045  40.795  52.502  1.00  0.00     0.125 C 
HETATM    4  N   UNL     1      28.325  40.774  51.225  1.00  0.00    -0.380 N 
HETATM    5  C   UNL     1      26.932  41.243  51.331  1.00  0.00     0.125 C 
HETATM    6  C   UNL     1      26.938  42.701  51.783  1.00  0.00     0.061 C 
ENDROOT
BRANCH   1   7
HETATM    7  N   UNL     1      26.952  42.373  54.231  1.00  0.00     0.088 N 
HETATM    8  H   UNL     1      26.171  42.985  54.470  1.00  0.00     0.313 HD
HETATM    9  H   UNL     1      27.519  42.279  55.069  1.00  0.00     0.313 HD
ENDBRANCH   1   7
BRANCH   1  10
HETATM   10  C   UNL     1      27.964  44.459  53.335  1.00  0.00     0.079 C 
BRANCH  10  11
HETATM   11  C   UNL     1      28.661  44.850  54.622  1.00  0.00    -0.056 A 
HETATM   12  C   UNL     1      29.900  44.291  54.966  1.00  0.00     0.009 A 
HETATM   13  C   UNL     1      30.542  44.663  56.148  1.00  0.00     0.024 A 
HETATM   14  C   UNL     1      29.949  45.595  56.996  1.00  0.00     0.034 A 
HETATM   15 CL   UNL     1      30.739  46.051  58.455  1.00  0.00    -0.084 Cl
HETATM   16  C   UNL     1      28.718  46.159  56.670  1.00  0.00     0.024 A 
HETATM   17  C   UNL     1      28.077  45.790  55.485  1.00  0.00     0.009 A 
ENDBRANCH  10  11
ENDBRANCH   1  10
BRANCH   4  18
HETATM   18  C   UNL     1      28.564  39.773  50.293  1.00  0.00     0.045 A 
HETATM   19  C   UNL     1      29.215  38.566  50.619  1.00  0.00     0.047 A 
HETATM   20  C   UNL     1      29.481  37.592  49.662  1.00  0.00     0.092 A 
HETATM   21  N   UNL     1      29.130  37.765  48.385  1.00  0.00    -0.351 N 
HETATM   22  H   UNL     1      29.333  37.048  47.691  1.00  0.00     0.166 HD
HETATM   23  C   UNL     1      28.511  38.918  48.030  1.00  0.00     0.117 A 
HETATM   24  N   UNL     1      28.093  39.283  46.777  1.00  0.00    -0.352 N 
HETATM   25  C   UNL     1      28.214  39.935  48.926  1.00  0.00     0.036 A 
HETATM   26  H   UNL     1      28.173  38.743  45.924  1.00  0.00     0.166 HD
HETATM   27  C   UNL     1      27.547  40.540  46.840  1.00  0.00     0.090 A 
HETATM   28  C   UNL     1      27.619  40.970  48.148  1.00  0.00     0.034 A 
ENDBRANCH   4  18
TORSDOF 4
ENDMDL
MODEL 6
REMARK VINA RESULT:      -8.9      0.835      2.241
REMARK  4 active torsions:
REMARK  status: ('A' for Active; 'I' for Inactive)
REMARK    1  A    between atoms: N_1  and  C_2 
REMARK    2  A    between atoms: C_2  and  C_3 
REMARK    3  A    between atoms: C_3  and  C_4 
REMARK    4  A    between atoms: N_13  and  C_16 
ROOT
HETATM    1  C   UNL     1      26.489  44.001  52.010  1.00  0.00     0.162 C 
HETATM    2  C   UNL     1      27.017  44.103  50.554  1.00  0.00     0.061 C 
HETATM    3  C   UNL     1      26.295  45.149  49.701  1.00  0.00     0.125 C 
HETATM    4  N   UNL     1      26.319  46.436  50.403  1.00  0.00    -0.380 N 
HETATM    5  C   UNL     1      25.635  46.404  51.708  1.00  0.00     0.125 C 
HETATM    6  C   UNL     1      26.361  45.417  52.619  1.00  0.00     0.061 C 
ENDROOT
BRANCH   1   7
HETATM    7  N   UNL     1      25.169  43.341  52.008  1.00  0.00     0.088 N 
HETATM    8  H   UNL     1      24.901  43.084  51.059  1.00  0.00     0.313 HD
HETATM    9  H   UNL     1      24.436  43.946  52.368  1.00  0.00     0.313 HD
ENDBRANCH   1   7
BRANCH   1  10
HETATM   10  C   UNL     1      27.508  43.137  52.826  1.00  0.00     0.079 C 
BRANCH  10  11
HETATM   11  C   UNL     1      28.245  43.829  53.954  1.00  0.00    -0.056 A 
HETATM   12  C   UNL     1      29.600  43.560  54.196  1.00  0.00     0.009 A 
HETATM   13  C   UNL     1      30.277  44.208  55.230  1.00  0.00     0.024 A 
HETATM   14  C   UNL     1      29.605  45.127  56.031  1.00  0.00     0.034 A 
HETATM   15 CL   UNL     1      30.439  45.924  57.308  1.00  0.00    -0.084 Cl
HETATM   16  C   UNL     1      28.259  45.405  55.805  1.00  0.00     0.024 A 
HETATM   17  C   UNL     1      27.582  44.759  54.768  1.00  0.00     0.009 A 
ENDBRANCH  10  11
ENDBRANCH   1  10
BRANCH   4  18
HETATM   18  C   UNL     1      26.238  47.630  49.699  1.00  0.00     0.045 A 
HETATM   19  C   UNL     1      27.368  48.415  49.395  1.00  0.00     0.047 A 
HETATM   20  C   UNL     1      27.262  49.628  48.722  1.00  0.00     0.092 A 
HETATM   21  N   UNL     1      26.074  50.103  48.339  1.00  0.00    -0.351 N 
HETATM   22  H   UNL     1      26.004  50.994  47.851  1.00  0.00     0.166 HD
HETATM   23  C   UNL     1      24.961  49.381  48.623  1.00  0.00     0.117 A 
HETATM   24  N   UNL     1      23.663  49.707  48.329  1.00  0.00    -0.352 N 
HETATM   25  C   UNL     1      24.987  48.165  49.291  1.00  0.00     0.036 A 
HETATM   26  H   UNL     1      23.335  50.534  47.845  1.00  0.00     0.166 HD
HETATM   27  C   UNL     1      22.837  48.727  48.819  1.00  0.00     0.090 A 
HETATM   28  C   UNL     1      23.624  47.772  49.426  1.00  0.00     0.034 A 
ENDBRANCH   4  18
TORSDOF 4
ENDMDL
MODEL 7
REMARK VINA RESULT:      -8.9      6.243      9.792
REMARK  4 active torsions:
REMARK  status: ('A' for Active; 'I' for Inactive)
REMARK    1  A    between atoms: N_1  and  C_2 
REMARK    2  A    between atoms: C_2  and  C_3 
REMARK    3  A    between atoms: C_3  and  C_4 
REMARK    4  A    between atoms: N_13  and  C_16 
ROOT
HETATM    1  C   UNL     1      21.116  49.935  49.259  1.00  0.00     0.162 C 
HETATM    2  C   UNL     1      19.783  49.319  49.762  1.00  0.00     0.061 C 
HETATM    3  C   UNL     1      18.728  50.355  50.156  1.00  0.00     0.125 C 
HETATM    4  N   UNL     1      18.534  51.287  49.041  1.00  0.00    -0.380 N 
HETATM    5  C   UNL     1      19.754  52.035  48.686  1.00  0.00     0.125 C 
HETATM    6  C   UNL     1      20.820  51.044  48.223  1.00  0.00     0.061 C 
ENDROOT
BRANCH   1   7
HETATM    7  N   UNL     1      21.855  50.507  50.401  1.00  0.00     0.088 N 
HETATM    8  H   UNL     1      22.565  49.852  50.729  1.00  0.00     0.313 HD
HETATM    9  H   UNL     1      21.248  50.703  51.192  1.00  0.00     0.313 HD
ENDBRANCH   1   7
BRANCH   1  10
HETATM   10  C   UNL     1      21.958  48.784  48.612  1.00  0.00     0.079 C 
BRANCH  10  11
HETATM   11  C   UNL     1      23.463  48.876  48.746  1.00  0.00    -0.056 A 
HETATM   12  C   UNL     1      24.164  47.998  49.584  1.00  0.00     0.009 A 
HETATM   13  C   UNL     1      25.554  48.081  49.695  1.00  0.00     0.024 A 
HETATM   14  C   UNL     1      26.251  49.045  48.971  1.00  0.00     0.034 A 
HETATM   15 CL   UNL     1      27.963  49.149  49.110  1.00  0.00    -0.084 Cl
HETATM   16  C   UNL     1      25.570  49.925  48.135  1.00  0.00     0.024 A 
HETATM   17  C   UNL     1      24.180  49.840  48.020  1.00  0.00     0.009 A 
ENDBRANCH  10  11
ENDBRANCH   1  10
BRANCH   4  18
HETATM   18  C   UNL     1      17.334  51.965  48.883  1.00  0.00     0.045 A 
HETATM   19  C   UNL     1      16.696  52.645  49.940  1.00  0.00     0.047 A 
HETATM   20  C   UNL     1      15.473  53.286  49.772  1.00  0.00     0.092 A 
HETATM   21  N   UNL     1      14.847  53.278  48.593  1.00  0.00    -0.351 N 
HETATM   22  H   UNL     1      13.949  53.745  48.479  1.00  0.00     0.166 HD
HETATM   23  C   UNL     1      15.423  52.625  47.553  1.00  0.00     0.117 A 
HETATM   24  N   UNL     1      14.931  52.492  46.281  1.00  0.00    -0.352 N 
HETATM   25  C   UNL     1      16.639  51.962  47.644  1.00  0.00     0.036 A 
HETATM   26  H   UNL     1      14.064  52.871  45.919  1.00  0.00     0.166 HD
HETATM   27  C   UNL     1      15.801  51.729  45.545  1.00  0.00     0.090 A 
HETATM   28  C   UNL     1      16.856  51.380  46.362  1.00  0.00     0.034 A 
ENDBRANCH   4  18
TORSDOF 4
ENDMDL
MODEL 8
REMARK VINA RESULT:      -8.8      3.491      8.064
REMARK  4 active torsions:
REMARK  status: ('A' for Active; 'I' for Inactive)
REMARK    1  A    between atoms: N_1  and  C_2 
REMARK    2  A    between atoms: C_2  and  C_3 
REMARK    3  A    between atoms: C_3  and  C_4 
REMARK    4  A    between atoms: N_13  and  C_16 
ROOT
HETATM    1  C   UNL     1      26.110  45.624  51.808  1.00  0.00     0.162 C 
HETATM    2  C   UNL     1      26.433  46.928  52.586  1.00  0.00     0.061 C 
HETATM    3  C   UNL     1      26.619  46.726  54.092  1.00  0.00     0.125 C 
HETATM    4  N   UNL     1      27.616  45.674  54.312  1.00  0.00    -0.380 N 
HETATM    5  C   UNL     1      27.223  44.369  53.752  1.00  0.00     0.125 C 
HETATM    6  C   UNL     1      27.086  44.506  52.238  1.00  0.00     0.061 C 
ENDROOT
BRANCH   1   7
HETATM    7  N   UNL     1      24.723  45.210  52.099  1.00  0.00     0.088 N 
HETATM    8  H   UNL     1      24.090  46.006  52.019  1.00  0.00     0.313 HD
HETATM    9  H   UNL     1      24.620  44.847  53.042  1.00  0.00     0.313 HD
ENDBRANCH   1   7
BRANCH   1  10
HETATM   10  C   UNL     1      26.256  45.932  50.281  1.00  0.00     0.079 C 
BRANCH  10  11
HETATM   11  C   UNL     1      25.567  47.177  49.762  1.00  0.00    -0.056 A 
HETATM   12  C   UNL     1      26.313  48.281  49.328  1.00  0.00     0.009 A 
HETATM   13  C   UNL     1      25.673  49.423  48.841  1.00  0.00     0.024 A 
HETATM   14  C   UNL     1      24.282  49.468  48.787  1.00  0.00     0.034 A 
HETATM   15 CL   UNL     1      23.492  50.875  48.190  1.00  0.00    -0.084 Cl
HETATM   16  C   UNL     1      23.526  48.380  49.216  1.00  0.00     0.024 A 
HETATM   17  C   UNL     1      24.167  47.237  49.699  1.00  0.00     0.009 A 
ENDBRANCH  10  11
ENDBRANCH   1  10
BRANCH   4  18
HETATM   18  C   UNL     1      28.363  45.638  55.482  1.00  0.00     0.045 A 
HETATM   19  C   UNL     1      28.101  46.481  56.580  1.00  0.00     0.047 A 
HETATM   20  C   UNL     1      28.884  46.458  57.730  1.00  0.00     0.092 A 
HETATM   21  N   UNL     1      29.927  45.631  57.836  1.00  0.00    -0.351 N 
HETATM   22  H   UNL     1      30.498  45.623  58.679  1.00  0.00     0.166 HD
HETATM   23  C   UNL     1      30.218  44.811  56.796  1.00  0.00     0.117 A 
HETATM   24  N   UNL     1      31.249  43.912  56.711  1.00  0.00    -0.352 N 
HETATM   25  C   UNL     1      29.485  44.779  55.618  1.00  0.00     0.036 A 
HETATM   26  H   UNL     1      31.947  43.715  57.417  1.00  0.00     0.166 HD
HETATM   27  C   UNL     1      31.212  43.309  55.479  1.00  0.00     0.090 A 
HETATM   28  C   UNL     1      30.143  43.831  54.782  1.00  0.00     0.034 A 
ENDBRANCH   4  18
TORSDOF 4
ENDMDL
MODEL 9
REMARK VINA RESULT:      -8.8      5.967     10.543
REMARK  4 active torsions:
REMARK  status: ('A' for Active; 'I' for Inactive)
REMARK    1  A    between atoms: N_1  and  C_2 
REMARK    2  A    between atoms: C_2  and  C_3 
REMARK    3  A    between atoms: C_3  and  C_4 
REMARK    4  A    between atoms: N_13  and  C_16 
ROOT
HETATM    1  C   UNL     1      20.323  49.985  48.930  1.00  0.00     0.162 C 
HETATM    2  C   UNL     1      20.868  48.561  48.644  1.00  0.00     0.061 C 
HETATM    3  C   UNL     1      22.292  48.540  48.082  1.00  0.00     0.125 C 
HETATM    4  N   UNL     1      23.166  49.313  48.969  1.00  0.00    -0.380 N 
HETATM    5  C   UNL     1      22.775  50.729  49.087  1.00  0.00     0.125 C 
HETATM    6  C   UNL     1      21.381  50.803  49.705  1.00  0.00     0.061 C 
ENDROOT
BRANCH   1   7
HETATM    7  N   UNL     1      20.013  50.658  47.652  1.00  0.00     0.088 N 
HETATM    8  H   UNL     1      19.766  51.633  47.815  1.00  0.00     0.313 HD
HETATM    9  H   UNL     1      19.226  50.230  47.174  1.00  0.00     0.313 HD
ENDBRANCH   1   7
BRANCH   1  10
HETATM   10  C   UNL     1      19.013  49.833  49.773  1.00  0.00     0.079 C 
BRANCH  10  11
HETATM   11  C   UNL     1      17.883  50.794  49.467  1.00  0.00    -0.056 A 
HETATM   12  C   UNL     1      17.910  52.109  49.951  1.00  0.00     0.009 A 
HETATM   13  C   UNL     1      16.870  52.994  49.657  1.00  0.00     0.024 A 
HETATM   14  C   UNL     1      15.797  52.569  48.879  1.00  0.00     0.034 A 
HETATM   15 CL   UNL     1      14.514  53.658  48.519  1.00  0.00    -0.084 Cl
HETATM   16  C   UNL     1      15.754  51.265  48.391  1.00  0.00     0.024 A 
HETATM   17  C   UNL     1      16.796  50.381  48.682  1.00  0.00     0.009 A 
ENDBRANCH  10  11
ENDBRANCH   1  10
BRANCH   4  18
HETATM   18  C   UNL     1      24.527  49.047  49.032  1.00  0.00     0.045 A 
HETATM   19  C   UNL     1      25.496  49.882  48.440  1.00  0.00     0.047 A 
HETATM   20  C   UNL     1      26.853  49.578  48.480  1.00  0.00     0.092 A 
HETATM   21  N   UNL     1      27.294  48.471  49.083  1.00  0.00    -0.351 N 
HETATM   22  H   UNL     1      28.289  48.254  49.103  1.00  0.00     0.166 HD
HETATM   23  C   UNL     1      26.392  47.637  49.655  1.00  0.00     0.117 A 
HETATM   24  N   UNL     1      26.647  46.455  50.300  1.00  0.00    -0.352 N 
HETATM   25  C   UNL     1      25.024  47.871  49.654  1.00  0.00     0.036 A 
HETATM   26  H   UNL     1      27.551  46.027  50.457  1.00  0.00     0.166 HD
HETATM   27  C   UNL     1      25.457  45.902  50.701  1.00  0.00     0.090 A 
HETATM   28  C   UNL     1      24.441  46.746  50.307  1.00  0.00     0.034 A 
ENDBRANCH   4  18
TORSDOF 4
ENDMDL
MODEL 10
REMARK VINA RESULT:      -8.7      5.304      8.103
REMARK  4 active torsions:
REMARK  status: ('A' for Active; 'I' for Inactive)
REMARK    1  A    between atoms: N_1  and  C_2 
REMARK    2  A    between atoms: C_2  and  C_3 
REMARK    3  A    between atoms: C_3  and  C_4 
REMARK    4  A    between atoms: N_13  and  C_16 
ROOT
HETATM    1  C   UNL     1      27.636  41.101  51.188  1.00  0.00     0.162 C 
HETATM    2  C   UNL     1      27.432  42.595  50.821  1.00  0.00     0.061 C 
HETATM    3  C   UNL     1      27.013  43.476  52.001  1.00  0.00     0.125 C 
HETATM    4  N   UNL     1      27.968  43.287  53.098  1.00  0.00    -0.380 N 
HETATM    5  C   UNL     1      28.020  41.901  53.597  1.00  0.00     0.125 C 
HETATM    6  C   UNL     1      28.495  40.991  52.468  1.00  0.00     0.061 C 
ENDROOT
BRANCH   1   7
HETATM    7  N   UNL     1      26.322  40.469  51.417  1.00  0.00     0.088 N 
HETATM    8  H   UNL     1      25.660  40.753  50.695  1.00  0.00     0.313 HD
HETATM    9  H   UNL     1      25.917  40.735  52.310  1.00  0.00     0.313 HD
ENDBRANCH   1   7
BRANCH   1  10
HETATM   10  C   UNL     1      28.349  40.407  49.979  1.00  0.00     0.079 C 
BRANCH  10  11
HETATM   11  C   UNL     1      27.617  39.259  49.317  1.00  0.00    -0.056 A 
HETATM   12  C   UNL     1      26.768  39.485  48.224  1.00  0.00     0.009 A 
HETATM   13  C   UNL     1      26.103  38.421  47.611  1.00  0.00     0.024 A 
HETATM   14  C   UNL     1      26.281  37.125  48.087  1.00  0.00     0.034 A 
HETATM   15 CL   UNL     1      25.460  35.814  47.334  1.00  0.00    -0.084 Cl
HETATM   16  C   UNL     1      27.119  36.883  49.173  1.00  0.00     0.024 A 
HETATM   17  C   UNL     1      27.787  37.947  49.784  1.00  0.00     0.009 A 
ENDBRANCH  10  11
ENDBRANCH   1  10
BRANCH   4  18
HETATM   18  C   UNL     1      28.170  44.285  54.042  1.00  0.00     0.045 A 
HETATM   19  C   UNL     1      27.309  45.393  54.176  1.00  0.00     0.047 A 
HETATM   20  C   UNL     1      27.549  46.403  55.102  1.00  0.00     0.092 A 
HETATM   21  N   UNL     1      28.616  46.365  55.904  1.00  0.00    -0.351 N 
HETATM   22  H   UNL     1      28.787  47.111  56.575  1.00  0.00     0.166 HD
HETATM   23  C   UNL     1      29.474  45.320  55.797  1.00  0.00     0.117 A 
HETATM   24  N   UNL     1      30.624  45.114  56.514  1.00  0.00    -0.352 N 
HETATM   25  C   UNL     1      29.302  44.277  54.898  1.00  0.00     0.036 A 
HETATM   26  H   UNL     1      31.005  45.705  57.242  1.00  0.00     0.166 HD
HETATM   27  C   UNL     1      31.219  43.957  56.076  1.00  0.00     0.090 A 
HETATM   28  C   UNL     1      30.433  43.428  55.074  1.00  0.00     0.034 A 
ENDBRANCH   4  18
TORSDOF 4
ENDMDL
