MODEL 1
REMARK VINA RESULT:      -9.2      0.000      0.000
REMARK  3 active torsions:
REMARK  status: ('A' for Active; 'I' for Inactive)
REMARK    1  A    between atoms: C_3  and  N_4 
REMARK    2  A    between atoms: C_10  and  O_11 
REMARK    3  A    between atoms: C_14  and  C_15 
ROOT
HETATM    1  N   UNL     1      26.153  46.771  50.188  1.00  0.00    -0.212 N 
HETATM    2  N   UNL     1      26.526  45.668  49.485  1.00  0.00    -0.177 NA
HETATM    3  C   UNL     1      26.758  44.746  50.409  1.00  0.00     0.152 C 
HETATM    4  C   UNL     1      26.496  45.186  51.730  1.00  0.00     0.027 C 
HETATM    5  C   UNL     1      26.004  46.478  51.555  1.00  0.00     0.163 C 
HETATM    6  N   UNL     1      25.380  47.345  52.396  1.00  0.00    -0.208 NA
HETATM    7  C   UNL     1      25.858  47.495  53.583  1.00  0.00     0.149 C 
HETATM    8  C   UNL     1      27.022  46.803  54.224  1.00  0.00     0.161 C 
HETATM    9  S   UNL     1      26.537  45.102  54.608  1.00  0.00    -0.146 SA
HETATM   10  C   UNL     1      26.617  44.307  52.950  1.00  0.00     0.124 C 
ENDROOT
BRANCH  10  11
HETATM   11  C   UNL     1      27.867  43.444  52.915  1.00  0.00     0.028 A 
HETATM   12  C   UNL     1      27.730  42.102  52.262  1.00  0.00     0.253 A 
HETATM   13  O   UNL     1      26.683  41.725  51.746  1.00  0.00    -0.268 OA
HETATM   14  N   UNL     1      28.856  41.313  52.246  1.00  0.00    -0.333 N 
HETATM   15  C   UNL     1      30.068  41.689  52.759  1.00  0.00     0.091 A 
HETATM   16  H   UNL     1      28.748  40.405  51.809  1.00  0.00     0.168 HD
HETATM   17  C   UNL     1      30.211  42.894  53.319  1.00  0.00     0.018 A 
HETATM   18  C   UNL     1      29.081  43.791  53.392  1.00  0.00     0.015 A 
ENDBRANCH  10  11
BRANCH   1  19
HETATM   19  C   UNL     1      25.942  47.992  49.488  1.00  0.00     0.099 A 
HETATM   20  C   UNL     1      27.057  48.771  49.132  1.00  0.00     0.035 A 
HETATM   21  C   UNL     1      26.892  49.967  48.428  1.00  0.00     0.002 A 
HETATM   22  C   UNL     1      25.615  50.409  48.092  1.00  0.00     0.003 A 
HETATM   23  C   UNL     1      24.503  49.661  48.474  1.00  0.00     0.045 A 
HETATM   24  C   UNL     1      24.667  48.464  49.175  1.00  0.00     0.145 A 
HETATM   25  F   UNL     1      23.553  47.868  49.621  1.00  0.00    -0.204 F 
ENDBRANCH   1  19
BRANCH   7  26
HETATM   26  O   UNL     1      25.234  48.382  54.377  1.00  0.00    -0.347 OA
HETATM   27  H   UNL     1      24.837  49.054  53.797  1.00  0.00     0.219 HD
ENDBRANCH   7  26
TORSDOF 3
ENDMDL
MODEL 2
REMARK VINA RESULT:      -8.4      3.386      7.372
REMARK  3 active torsions:
REMARK  status: ('A' for Active; 'I' for Inactive)
REMARK    1  A    between atoms: C_3  and  N_4 
REMARK    2  A    between atoms: C_10  and  O_11 
REMARK    3  A    between atoms: C_14  and  C_15 
ROOT
HETATM    1  N   UNL     1      28.828  45.093  55.124  1.00  0.00    -0.212 N 
HETATM    2  N   UNL     1      28.566  46.418  54.969  1.00  0.00    -0.177 NA
HETATM    3  C   UNL     1      27.681  46.470  53.983  1.00  0.00     0.152 C 
HETATM    4  C   UNL     1      27.292  45.197  53.499  1.00  0.00     0.027 C 
HETATM    5  C   UNL     1      27.976  44.308  54.326  1.00  0.00     0.163 C 
HETATM    6  N   UNL     1      27.869  42.967  54.520  1.00  0.00    -0.208 NA
HETATM    7  C   UNL     1      27.768  42.205  53.486  1.00  0.00     0.149 C 
HETATM    8  C   UNL     1      27.707  42.588  52.039  1.00  0.00     0.161 C 
HETATM    9  S   UNL     1      26.078  43.302  51.703  1.00  0.00    -0.146 SA
HETATM   10  C   UNL     1      26.250  44.985  52.430  1.00  0.00     0.124 C 
ENDROOT
BRANCH  10  11
HETATM   11  C   UNL     1      26.398  45.967  51.281  1.00  0.00     0.028 A 
HETATM   12  C   UNL     1      25.586  47.224  51.372  1.00  0.00     0.253 A 
HETATM   13  O   UNL     1      24.869  47.474  52.335  1.00  0.00    -0.268 OA
HETATM   14  N   UNL     1      25.705  48.106  50.324  1.00  0.00    -0.333 N 
HETATM   15  C   UNL     1      26.522  47.913  49.243  1.00  0.00     0.091 A 
HETATM   16  H   UNL     1      25.145  48.948  50.395  1.00  0.00     0.168 HD
HETATM   17  C   UNL     1      27.272  46.810  49.162  1.00  0.00     0.018 A 
HETATM   18  C   UNL     1      27.208  45.819  50.211  1.00  0.00     0.015 A 
ENDBRANCH  10  11
BRANCH   1  19
HETATM   19  C   UNL     1      29.843  44.696  56.039  1.00  0.00     0.099 A 
HETATM   20  C   UNL     1      29.927  45.346  57.283  1.00  0.00     0.035 A 
HETATM   21  C   UNL     1      30.899  44.971  58.216  1.00  0.00     0.002 A 
HETATM   22  C   UNL     1      31.807  43.961  57.910  1.00  0.00     0.003 A 
HETATM   23  C   UNL     1      31.754  43.338  56.664  1.00  0.00     0.045 A 
HETATM   24  C   UNL     1      30.782  43.710  55.733  1.00  0.00     0.145 A 
HETATM   25  F   UNL     1      30.873  43.161  54.514  1.00  0.00    -0.204 F 
ENDBRANCH   1  19
BRANCH   7  26
HETATM   26  O   UNL     1      27.694  40.884  53.714  1.00  0.00    -0.347 OA
HETATM   27  H   UNL     1      26.889  40.563  53.273  1.00  0.00     0.219 HD
ENDBRANCH   7  26
TORSDOF 3
ENDMDL
MODEL 3
REMARK VINA RESULT:      -8.2      3.078      7.026
REMARK  3 active torsions:
REMARK  status: ('A' for Active; 'I' for Inactive)
REMARK    1  A    between atoms: C_3  and  N_4 
REMARK    2  A    between atoms: C_10  and  O_11 
REMARK    3  A    between atoms: C_14  and  C_15 
ROOT
HETATM    1  N   UNL     1      27.862  46.050  54.426  1.00  0.00    -0.212 N 
HETATM    2  N   UNL     1      27.562  47.376  54.401  1.00  0.00    -0.177 NA
HETATM    3  C   UNL     1      26.783  47.521  53.337  1.00  0.00     0.152 C 
HETATM    4  C   UNL     1      26.502  46.306  52.667  1.00  0.00     0.027 C 
HETATM    5  C   UNL     1      27.132  45.343  53.453  1.00  0.00     0.163 C 
HETATM    6  N   UNL     1      27.063  43.985  53.475  1.00  0.00    -0.208 NA
HETATM    7  C   UNL     1      27.103  43.353  52.353  1.00  0.00     0.149 C 
HETATM    8  C   UNL     1      27.177  43.907  50.964  1.00  0.00     0.161 C 
HETATM    9  S   UNL     1      25.563  44.609  50.539  1.00  0.00    -0.146 SA
HETATM   10  C   UNL     1      25.587  46.194  51.473  1.00  0.00     0.124 C 
ENDROOT
BRANCH  10  11
HETATM   11  C   UNL     1      25.812  47.313  50.471  1.00  0.00     0.028 A 
HETATM   12  C   UNL     1      24.594  47.826  49.763  1.00  0.00     0.253 A 
HETATM   13  O   UNL     1      23.468  47.400  50.000  1.00  0.00    -0.268 OA
HETATM   14  N   UNL     1      24.798  48.827  48.842  1.00  0.00    -0.333 N 
HETATM   15  C   UNL     1      26.018  49.380  48.564  1.00  0.00     0.091 A 
HETATM   16  H   UNL     1      23.968  49.158  48.365  1.00  0.00     0.168 HD
HETATM   17  C   UNL     1      27.108  48.952  49.208  1.00  0.00     0.018 A 
HETATM   18  C   UNL     1      26.996  47.897  50.187  1.00  0.00     0.015 A 
ENDBRANCH  10  11
BRANCH   1  19
HETATM   19  C   UNL     1      28.792  45.575  55.393  1.00  0.00     0.099 A 
HETATM   20  C   UNL     1      29.684  44.550  55.031  1.00  0.00     0.035 A 
HETATM   21  C   UNL     1      30.625  44.070  55.947  1.00  0.00     0.002 A 
HETATM   22  C   UNL     1      30.669  44.591  57.238  1.00  0.00     0.003 A 
HETATM   23  C   UNL     1      29.763  45.580  57.616  1.00  0.00     0.045 A 
HETATM   24  C   UNL     1      28.825  46.062  56.700  1.00  0.00     0.145 A 
HETATM   25  F   UNL     1      27.906  46.915  57.170  1.00  0.00    -0.204 F 
ENDBRANCH   1  19
BRANCH   7  26
HETATM   26  O   UNL     1      27.062  42.012  52.414  1.00  0.00    -0.347 OA
HETATM   27  H   UNL     1      26.181  41.739  52.105  1.00  0.00     0.219 HD
ENDBRANCH   7  26
TORSDOF 3
ENDMDL
MODEL 4
REMARK VINA RESULT:      -8.2      3.915      5.330
REMARK  3 active torsions:
REMARK  status: ('A' for Active; 'I' for Inactive)
REMARK    1  A    between atoms: C_3  and  N_4 
REMARK    2  A    between atoms: C_10  and  O_11 
REMARK    3  A    between atoms: C_14  and  C_15 
ROOT
HETATM    1  N   UNL     1      22.645  48.476  49.265  1.00  0.00    -0.212 N 
HETATM    2  N   UNL     1      23.769  48.865  49.925  1.00  0.00    -0.177 NA
HETATM    3  C   UNL     1      24.509  47.768  49.999  1.00  0.00     0.152 C 
HETATM    4  C   UNL     1      23.933  46.648  49.351  1.00  0.00     0.027 C 
HETATM    5  C   UNL     1      22.763  47.157  48.791  1.00  0.00     0.163 C 
HETATM    6  N   UNL     1      21.888  46.657  47.879  1.00  0.00    -0.208 NA
HETATM    7  C   UNL     1      21.506  45.433  48.005  1.00  0.00     0.149 C 
HETATM    8  C   UNL     1      21.925  44.418  49.023  1.00  0.00     0.161 C 
HETATM    9  S   UNL     1      23.609  43.878  48.635  1.00  0.00    -0.146 SA
HETATM   10  C   UNL     1      24.607  45.304  49.235  1.00  0.00     0.124 C 
ENDROOT
BRANCH  10  11
HETATM   11  C   UNL     1      25.274  44.881  50.532  1.00  0.00     0.028 A 
HETATM   12  C   UNL     1      26.772  44.818  50.519  1.00  0.00     0.253 A 
HETATM   13  O   UNL     1      27.434  45.126  49.534  1.00  0.00    -0.268 OA
HETATM   14  N   UNL     1      27.377  44.419  51.688  1.00  0.00    -0.333 N 
HETATM   15  C   UNL     1      26.703  44.109  52.838  1.00  0.00     0.091 A 
HETATM   16  H   UNL     1      28.389  44.373  51.663  1.00  0.00     0.168 HD
HETATM   17  C   UNL     1      25.369  44.187  52.872  1.00  0.00     0.018 A 
HETATM   18  C   UNL     1      24.643  44.589  51.689  1.00  0.00     0.015 A 
ENDBRANCH  10  11
BRANCH   1  19
HETATM   19  C   UNL     1      21.577  49.405  49.122  1.00  0.00     0.099 A 
HETATM   20  C   UNL     1      20.303  49.056  49.605  1.00  0.00     0.035 A 
HETATM   21  C   UNL     1      19.233  49.949  49.499  1.00  0.00     0.002 A 
HETATM   22  C   UNL     1      19.417  51.189  48.891  1.00  0.00     0.003 A 
HETATM   23  C   UNL     1      20.667  51.527  48.376  1.00  0.00     0.045 A 
HETATM   24  C   UNL     1      21.737  50.636  48.484  1.00  0.00     0.145 A 
HETATM   25  F   UNL     1      22.870  50.974  47.853  1.00  0.00    -0.204 F 
ENDBRANCH   1  19
BRANCH   7  26
HETATM   26  O   UNL     1      20.618  44.982  47.104  1.00  0.00    -0.347 OA
HETATM   27  H   UNL     1      20.987  45.166  46.223  1.00  0.00     0.219 HD
ENDBRANCH   7  26
TORSDOF 3
ENDMDL
MODEL 5
REMARK VINA RESULT:      -8.1      5.280      9.223
REMARK  3 active torsions:
REMARK  status: ('A' for Active; 'I' for Inactive)
REMARK    1  A    between atoms: C_3  and  N_4 
REMARK    2  A    between atoms: C_10  and  O_11 
REMARK    3  A    between atoms: C_14  and  C_15 
ROOT
HETATM    1  N   UNL     1      23.277  49.168  49.283  1.00  0.00    -0.212 N 
HETATM    2  N   UNL     1      22.775  50.303  49.839  1.00  0.00    -0.177 NA
HETATM    3  C   UNL     1      21.466  50.217  49.647  1.00  0.00     0.152 C 
HETATM    4  C   UNL     1      21.060  49.015  49.018  1.00  0.00     0.027 C 
HETATM    5  C   UNL     1      22.247  48.298  48.880  1.00  0.00     0.163 C 
HETATM    6  N   UNL     1      22.506  47.004  48.556  1.00  0.00    -0.208 NA
HETATM    7  C   UNL     1      21.869  46.483  47.565  1.00  0.00     0.149 C 
HETATM    8  C   UNL     1      20.809  47.096  46.701  1.00  0.00     0.161 C 
HETATM    9  S   UNL     1      19.278  47.205  47.662  1.00  0.00    -0.146 SA
HETATM   10  C   UNL     1      19.622  48.649  48.751  1.00  0.00     0.124 C 
ENDROOT
BRANCH  10  11
HETATM   11  C   UNL     1      18.818  49.823  48.221  1.00  0.00     0.028 A 
HETATM   12  C   UNL     1      18.007  50.582  49.227  1.00  0.00     0.253 A 
HETATM   13  O   UNL     1      18.014  50.304  50.422  1.00  0.00    -0.268 OA
HETATM   14  N   UNL     1      17.265  51.635  48.746  1.00  0.00    -0.333 N 
HETATM   15  C   UNL     1      17.248  52.030  47.435  1.00  0.00     0.091 A 
HETATM   16  H   UNL     1      16.715  52.134  49.435  1.00  0.00     0.168 HD
HETATM   17  C   UNL     1      17.988  51.380  46.532  1.00  0.00     0.018 A 
HETATM   18  C   UNL     1      18.794  50.253  46.941  1.00  0.00     0.015 A 
ENDBRANCH  10  11
BRANCH   1  19
HETATM   19  C   UNL     1      24.689  49.003  49.215  1.00  0.00     0.099 A 
HETATM   20  C   UNL     1      25.428  49.829  48.349  1.00  0.00     0.035 A 
HETATM   21  C   UNL     1      26.819  49.709  48.269  1.00  0.00     0.002 A 
HETATM   22  C   UNL     1      27.482  48.753  49.032  1.00  0.00     0.003 A 
HETATM   23  C   UNL     1      26.753  47.905  49.864  1.00  0.00     0.045 A 
HETATM   24  C   UNL     1      25.364  48.026  49.948  1.00  0.00     0.145 A 
HETATM   25  F   UNL     1      24.720  47.096  50.665  1.00  0.00    -0.204 F 
ENDBRANCH   1  19
BRANCH   7  26
HETATM   26  O   UNL     1      22.172  45.212  47.253  1.00  0.00    -0.347 OA
HETATM   27  H   UNL     1      21.828  45.049  46.358  1.00  0.00     0.219 HD
ENDBRANCH   7  26
TORSDOF 3
ENDMDL
MODEL 6
REMARK VINA RESULT:      -8.0     11.966     13.127
REMARK  3 active torsions:
REMARK  status: ('A' for Active; 'I' for Inactive)
REMARK    1  A    between atoms: C_3  and  N_4 
REMARK    2  A    between atoms: C_10  and  O_11 
REMARK    3  A    between atoms: C_14  and  C_15 
ROOT
HETATM    1  N   UNL     1      31.656  50.252  41.537  1.00  0.00    -0.212 N 
HETATM    2  N   UNL     1      31.665  48.897  41.414  1.00  0.00    -0.177 NA
HETATM    3  C   UNL     1      30.635  48.628  40.623  1.00  0.00     0.152 C 
HETATM    4  C   UNL     1      29.957  49.781  40.159  1.00  0.00     0.027 C 
HETATM    5  C   UNL     1      30.701  50.835  40.685  1.00  0.00     0.163 C 
HETATM    6  N   UNL     1      30.703  52.172  40.437  1.00  0.00    -0.208 NA
HETATM    7  C   UNL     1      29.571  52.779  40.352  1.00  0.00     0.149 C 
HETATM    8  C   UNL     1      28.188  52.210  40.449  1.00  0.00     0.161 C 
HETATM    9  S   UNL     1      27.839  51.293  38.927  1.00  0.00    -0.146 SA
HETATM   10  C   UNL     1      28.798  49.745  39.195  1.00  0.00     0.124 C 
ENDROOT
BRANCH  10  11
HETATM   11  C   UNL     1      27.806  48.644  39.529  1.00  0.00     0.028 A 
HETATM   12  C   UNL     1      27.946  47.367  38.756  1.00  0.00     0.253 A 
HETATM   13  O   UNL     1      28.832  47.195  37.925  1.00  0.00    -0.268 OA
HETATM   14  N   UNL     1      27.038  46.376  39.045  1.00  0.00    -0.333 N 
HETATM   15  C   UNL     1      26.056  46.482  39.992  1.00  0.00     0.091 A 
HETATM   16  H   UNL     1      27.138  45.521  38.509  1.00  0.00     0.168 HD
HETATM   17  C   UNL     1      25.937  47.605  40.708  1.00  0.00     0.018 A 
HETATM   18  C   UNL     1      26.841  48.707  40.470  1.00  0.00     0.015 A 
ENDBRANCH  10  11
BRANCH   1  19
HETATM   19  C   UNL     1      32.578  50.866  42.430  1.00  0.00     0.099 A 
HETATM   20  C   UNL     1      32.107  51.359  43.660  1.00  0.00     0.035 A 
HETATM   21  C   UNL     1      32.985  51.951  44.572  1.00  0.00     0.002 A 
HETATM   22  C   UNL     1      34.336  52.078  44.258  1.00  0.00     0.003 A 
HETATM   23  C   UNL     1      34.804  51.627  43.025  1.00  0.00     0.045 A 
HETATM   24  C   UNL     1      33.928  51.031  42.115  1.00  0.00     0.145 A 
HETATM   25  F   UNL     1      34.421  50.741  40.904  1.00  0.00    -0.204 F 
ENDBRANCH   1  19
BRANCH   7  26
HETATM   26  O   UNL     1      29.611  54.104  40.137  1.00  0.00    -0.347 OA
HETATM   27  H   UNL     1      28.993  54.294  39.410  1.00  0.00     0.219 HD
ENDBRANCH   7  26
TORSDOF 3
ENDMDL
MODEL 7
REMARK VINA RESULT:      -7.9     11.760     13.559
REMARK  3 active torsions:
REMARK  status: ('A' for Active; 'I' for Inactive)
REMARK    1  A    between atoms: C_3  and  N_4 
REMARK    2  A    between atoms: C_10  and  O_11 
REMARK    3  A    between atoms: C_14  and  C_15 
ROOT
HETATM    1  N   UNL     1      30.441  48.740  40.957  1.00  0.00    -0.212 N 
HETATM    2  N   UNL     1      31.037  48.554  42.165  1.00  0.00    -0.177 NA
HETATM    3  C   UNL     1      31.950  49.514  42.237  1.00  0.00     0.152 C 
HETATM    4  C   UNL     1      31.949  50.386  41.121  1.00  0.00     0.027 C 
HETATM    5  C   UNL     1      30.888  49.925  40.344  1.00  0.00     0.163 C 
HETATM    6  N   UNL     1      30.237  50.451  39.273  1.00  0.00    -0.208 NA
HETATM    7  C   UNL     1      30.939  50.970  38.326  1.00  0.00     0.149 C 
HETATM    8  C   UNL     1      32.426  51.126  38.234  1.00  0.00     0.161 C 
HETATM    9  S   UNL     1      32.934  52.445  39.366  1.00  0.00    -0.146 SA
HETATM   10  C   UNL     1      32.842  51.594  40.996  1.00  0.00     0.124 C 
ENDROOT
BRANCH  10  11
HETATM   11  C   UNL     1      34.265  51.306  41.442  1.00  0.00     0.028 A 
HETATM   12  C   UNL     1      34.593  51.633  42.869  1.00  0.00     0.253 A 
HETATM   13  O   UNL     1      33.758  52.073  43.651  1.00  0.00    -0.268 OA
HETATM   14  N   UNL     1      35.886  51.388  43.269  1.00  0.00    -0.333 N 
HETATM   15  C   UNL     1      36.855  50.854  42.464  1.00  0.00     0.091 A 
HETATM   16  H   UNL     1      36.097  51.621  44.233  1.00  0.00     0.168 HD
HETATM   17  C   UNL     1      36.568  50.532  41.199  1.00  0.00     0.018 A 
HETATM   18  C   UNL     1      35.239  50.761  40.683  1.00  0.00     0.015 A 
ENDBRANCH  10  11
BRANCH   1  19
HETATM   19  C   UNL     1      29.480  47.789  40.512  1.00  0.00     0.099 A 
HETATM   20  C   UNL     1      29.912  46.694  39.744  1.00  0.00     0.035 A 
HETATM   21  C   UNL     1      29.001  45.729  39.306  1.00  0.00     0.002 A 
HETATM   22  C   UNL     1      27.648  45.859  39.609  1.00  0.00     0.003 A 
HETATM   23  C   UNL     1      27.206  46.962  40.338  1.00  0.00     0.045 A 
HETATM   24  C   UNL     1      28.116  47.924  40.779  1.00  0.00     0.145 A 
HETATM   25  F   UNL     1      27.605  49.018  41.359  1.00  0.00    -0.204 F 
ENDBRANCH   1  19
BRANCH   7  26
HETATM   26  O   UNL     1      30.265  51.453  37.269  1.00  0.00    -0.347 OA
HETATM   27  H   UNL     1      29.502  50.867  37.126  1.00  0.00     0.219 HD
ENDBRANCH   7  26
TORSDOF 3
ENDMDL
MODEL 8
REMARK VINA RESULT:      -7.8     11.532     13.190
REMARK  3 active torsions:
REMARK  status: ('A' for Active; 'I' for Inactive)
REMARK    1  A    between atoms: C_3  and  N_4 
REMARK    2  A    between atoms: C_10  and  O_11 
REMARK    3  A    between atoms: C_14  and  C_15 
ROOT
HETATM    1  N   UNL     1      32.259  50.693  41.514  1.00  0.00    -0.212 N 
HETATM    2  N   UNL     1      32.154  49.349  41.329  1.00  0.00    -0.177 NA
HETATM    3  C   UNL     1      31.058  49.198  40.598  1.00  0.00     0.152 C 
HETATM    4  C   UNL     1      30.444  50.421  40.233  1.00  0.00     0.027 C 
HETATM    5  C   UNL     1      31.301  51.388  40.755  1.00  0.00     0.163 C 
HETATM    6  N   UNL     1      31.392  52.732  40.569  1.00  0.00    -0.208 NA
HETATM    7  C   UNL     1      30.307  53.426  40.588  1.00  0.00     0.149 C 
HETATM    8  C   UNL     1      28.893  52.959  40.751  1.00  0.00     0.161 C 
HETATM    9  S   UNL     1      28.377  52.149  39.216  1.00  0.00    -0.146 SA
HETATM   10  C   UNL     1      29.227  50.521  39.348  1.00  0.00     0.124 C 
ENDROOT
BRANCH  10  11
HETATM   11  C   UNL     1      28.175  49.483  39.697  1.00  0.00     0.028 A 
HETATM   12  C   UNL     1      27.623  49.539  41.090  1.00  0.00     0.253 A 
HETATM   13  O   UNL     1      27.965  50.395  41.899  1.00  0.00    -0.268 OA
HETATM   14  N   UNL     1      26.683  48.588  41.413  1.00  0.00    -0.333 N 
HETATM   15  C   UNL     1      26.221  47.635  40.546  1.00  0.00     0.091 A 
HETATM   16  H   UNL     1      26.324  48.632  42.360  1.00  0.00     0.168 HD
HETATM   17  C   UNL     1      26.685  47.591  39.294  1.00  0.00     0.018 A 
HETATM   18  C   UNL     1      27.682  48.544  38.863  1.00  0.00     0.015 A 
ENDBRANCH  10  11
BRANCH   1  19
HETATM   19  C   UNL     1      33.281  51.190  42.370  1.00  0.00     0.099 A 
HETATM   20  C   UNL     1      34.610  51.192  41.911  1.00  0.00     0.035 A 
HETATM   21  C   UNL     1      35.639  51.690  42.716  1.00  0.00     0.002 A 
HETATM   22  C   UNL     1      35.357  52.169  43.993  1.00  0.00     0.003 A 
HETATM   23  C   UNL     1      34.047  52.135  44.469  1.00  0.00     0.045 A 
HETATM   24  C   UNL     1      33.018  51.641  43.665  1.00  0.00     0.145 A 
HETATM   25  F   UNL     1      31.812  51.519  44.234  1.00  0.00    -0.204 F 
ENDBRANCH   1  19
BRANCH   7  26
HETATM   26  O   UNL     1      30.437  54.754  40.431  1.00  0.00    -0.347 OA
HETATM   27  H   UNL     1      31.367  54.973  40.615  1.00  0.00     0.219 HD
ENDBRANCH   7  26
TORSDOF 3
ENDMDL
MODEL 9
REMARK VINA RESULT:      -7.7     11.719     13.123
REMARK  3 active torsions:
REMARK  status: ('A' for Active; 'I' for Inactive)
REMARK    1  A    between atoms: C_3  and  N_4 
REMARK    2  A    between atoms: C_10  and  O_11 
REMARK    3  A    between atoms: C_14  and  C_15 
ROOT
HETATM    1  N   UNL     1      29.221  48.348  40.463  1.00  0.00    -0.212 N 
HETATM    2  N   UNL     1      30.484  47.848  40.535  1.00  0.00    -0.177 NA
HETATM    3  C   UNL     1      31.220  48.862  40.970  1.00  0.00     0.152 C 
HETATM    4  C   UNL     1      30.470  50.031  41.249  1.00  0.00     0.027 C 
HETATM    5  C   UNL     1      29.153  49.642  41.009  1.00  0.00     0.163 C 
HETATM    6  N   UNL     1      27.958  50.224  41.293  1.00  0.00    -0.208 NA
HETATM    7  C   UNL     1      27.818  51.482  41.054  1.00  0.00     0.149 C 
HETATM    8  C   UNL     1      28.825  52.457  40.526  1.00  0.00     0.161 C 
HETATM    9  S   UNL     1      30.021  52.813  41.839  1.00  0.00    -0.146 SA
HETATM   10  C   UNL     1      31.062  51.296  41.818  1.00  0.00     0.124 C 
ENDROOT
BRANCH  10  11
HETATM   11  C   UNL     1      32.384  51.657  41.163  1.00  0.00     0.028 A 
HETATM   12  C   UNL     1      33.614  51.466  41.998  1.00  0.00     0.253 A 
HETATM   13  O   UNL     1      33.572  51.008  43.135  1.00  0.00    -0.268 OA
HETATM   14  N   UNL     1      34.810  51.809  41.412  1.00  0.00    -0.333 N 
HETATM   15  C   UNL     1      34.934  52.280  40.133  1.00  0.00     0.091 A 
HETATM   16  H   UNL     1      35.633  51.684  41.991  1.00  0.00     0.168 HD
HETATM   17  C   UNL     1      33.849  52.428  39.368  1.00  0.00     0.018 A 
HETATM   18  C   UNL     1      32.546  52.102  39.898  1.00  0.00     0.015 A 
ENDBRANCH  10  11
BRANCH   1  19
HETATM   19  C   UNL     1      28.192  47.535  39.911  1.00  0.00     0.099 A 
HETATM   20  C   UNL     1      27.891  46.308  40.528  1.00  0.00     0.035 A 
HETATM   21  C   UNL     1      26.874  45.491  40.026  1.00  0.00     0.002 A 
HETATM   22  C   UNL     1      26.163  45.878  38.893  1.00  0.00     0.003 A 
HETATM   23  C   UNL     1      26.481  47.075  38.254  1.00  0.00     0.045 A 
HETATM   24  C   UNL     1      27.495  47.893  38.757  1.00  0.00     0.145 A 
HETATM   25  F   UNL     1      27.831  48.960  38.019  1.00  0.00    -0.204 F 
ENDBRANCH   1  19
BRANCH   7  26
HETATM   26  O   UNL     1      26.614  52.017  41.318  1.00  0.00    -0.347 OA
HETATM   27  H   UNL     1      25.989  51.278  41.414  1.00  0.00     0.219 HD
ENDBRANCH   7  26
TORSDOF 3
ENDMDL
MODEL 10
REMARK VINA RESULT:      -7.4     17.067     19.403
REMARK  3 active torsions:
REMARK  status: ('A' for Active; 'I' for Inactive)
REMARK    1  A    between atoms: C_3  and  N_4 
REMARK    2  A    between atoms: C_10  and  O_11 
REMARK    3  A    between atoms: C_14  and  C_15 
ROOT
HETATM    1  N   UNL     1      39.340  42.881  65.235  1.00  0.00    -0.212 N 
HETATM    2  N   UNL     1      40.468  43.573  65.547  1.00  0.00    -0.177 NA
HETATM    3  C   UNL     1      40.028  44.723  66.041  1.00  0.00     0.152 C 
HETATM    4  C   UNL     1      38.617  44.804  66.122  1.00  0.00     0.027 C 
HETATM    5  C   UNL     1      38.189  43.551  65.686  1.00  0.00     0.163 C 
HETATM    6  N   UNL     1      36.983  42.925  65.730  1.00  0.00    -0.208 NA
HETATM    7  C   UNL     1      35.934  43.596  65.400  1.00  0.00     0.149 C 
HETATM    8  C   UNL     1      35.825  45.034  64.995  1.00  0.00     0.161 C 
HETATM    9  S   UNL     1      36.050  46.063  66.468  1.00  0.00    -0.146 SA
HETATM   10  C   UNL     1      37.873  45.977  66.710  1.00  0.00     0.124 C 
ENDROOT
BRANCH  10  11
HETATM   11  C   UNL     1      38.457  47.307  66.267  1.00  0.00     0.028 A 
HETATM   12  C   UNL     1      39.232  48.070  67.300  1.00  0.00     0.253 A 
HETATM   13  O   UNL     1      39.423  47.635  68.431  1.00  0.00    -0.268 OA
HETATM   14  N   UNL     1      39.746  49.283  66.905  1.00  0.00    -0.333 N 
HETATM   15  C   UNL     1      39.611  49.804  65.647  1.00  0.00     0.091 A 
HETATM   16  H   UNL     1      40.260  49.791  67.615  1.00  0.00     0.168 HD
HETATM   17  C   UNL     1      38.947  49.123  64.709  1.00  0.00     0.018 A 
HETATM   18  C   UNL     1      38.362  47.842  65.031  1.00  0.00     0.015 A 
ENDBRANCH  10  11
BRANCH   1  19
HETATM   19  C   UNL     1      39.465  41.632  64.564  1.00  0.00     0.099 A 
HETATM   20  C   UNL     1      39.816  40.492  65.310  1.00  0.00     0.035 A 
HETATM   21  C   UNL     1      39.929  39.245  64.689  1.00  0.00     0.002 A 
HETATM   22  C   UNL     1      39.716  39.125  63.319  1.00  0.00     0.003 A 
HETATM   23  C   UNL     1      39.405  40.256  62.566  1.00  0.00     0.045 A 
HETATM   24  C   UNL     1      39.288  41.502  63.185  1.00  0.00     0.145 A 
HETATM   25  F   UNL     1      39.116  42.561  62.383  1.00  0.00    -0.204 F 
ENDBRANCH   1  19
BRANCH   7  26
HETATM   26  O   UNL     1      34.763  42.938  65.427  1.00  0.00    -0.347 OA
HETATM   27  H   UNL     1      34.475  42.906  66.355  1.00  0.00     0.219 HD
ENDBRANCH   7  26
TORSDOF 3
ENDMDL
