MODEL 1
REMARK VINA RESULT:      -9.8      0.000      0.000
REMARK  8 active torsions:
REMARK  status: ('A' for Active; 'I' for Inactive)
REMARK    1  A    between atoms: C_4  and  C_5 
REMARK    2  A    between atoms: C_5  and  N_6 
REMARK    3  A    between atoms: C_5  and  C_31 
REMARK       I    between atoms: N_6  and  C_7 
REMARK    4  A    between atoms: N_6  and  C_21 
REMARK    5  A    between atoms: C_7  and  C_8 
REMARK    6  A    between atoms: C_11  and  C_12 
REMARK    7  A    between atoms: C_21  and  C_22 
REMARK       I    between atoms: C_31  and  N_32 
REMARK    8  A    between atoms: N_32  and  C_33 
ROOT
HETATM    1  N   UNL     1      25.362  45.952  50.328  1.00  0.00    -0.323 N 
HETATM    2  C   UNL     1      25.144  46.363  51.643  1.00  0.00     0.271 C 
HETATM    3  O   UNL     1      24.639  47.460  51.889  1.00  0.00    -0.266 OA
ENDROOT
BRANCH   1   4
HETATM    4  C   UNL     1      24.772  46.727  49.207  1.00  0.00     0.237 C 
BRANCH   4   5
HETATM    5  C   UNL     1      23.414  46.226  48.815  1.00  0.00     0.085 A 
HETATM    6  O   UNL     1      22.789  46.907  47.806  1.00  0.00    -0.317 OA
HETATM    7  C   UNL     1      21.574  46.324  47.616  1.00  0.00     0.049 A 
HETATM    8  C   UNL     1      20.716  46.909  46.567  1.00  0.00     0.076 C 
HETATM    9  C   UNL     1      21.409  45.275  48.490  1.00  0.00     0.035 A 
HETATM   10  C   UNL     1      22.592  45.209  49.262  1.00  0.00     0.038 A 
ENDBRANCH   4   5
BRANCH   4  11
HETATM   11  C   UNL     1      24.764  48.273  49.380  1.00  0.00     0.247 C 
HETATM   12  N   UNL     1      23.517  48.866  49.464  1.00  0.00    -0.354 N 
HETATM   13  H   UNL     1      22.765  48.326  49.039  1.00  0.00     0.162 HD
HETATM   14  O   UNL     1      25.801  48.938  49.370  1.00  0.00    -0.271 OA
BRANCH  12  15
HETATM   15  C   UNL     1      23.333  50.310  49.506  1.00  0.00     0.084 C 
HETATM   16  C   UNL     1      23.299  50.907  48.092  1.00  0.00     0.025 C 
HETATM   17  C   UNL     1      22.017  50.556  47.337  1.00  0.00     0.002 C 
HETATM   18  C   UNL     1      20.770  50.931  48.133  1.00  0.00     0.000 C 
HETATM   19  C   UNL     1      20.780  50.313  49.526  1.00  0.00     0.002 C 
HETATM   20  C   UNL     1      22.060  50.658  50.287  1.00  0.00     0.025 C 
ENDBRANCH  12  15
ENDBRANCH   4  11
ENDBRANCH   1   4
BRANCH   1  21
HETATM   21  C   UNL     1      26.544  45.162  49.976  1.00  0.00     0.166 C 
BRANCH  21  22
HETATM   22  C   UNL     1      26.354  43.660  49.942  1.00  0.00    -0.037 A 
HETATM   23  C   UNL     1      27.496  42.851  50.086  1.00  0.00     0.048 A 
HETATM   24  C   UNL     1      27.342  41.481  50.073  1.00  0.00     0.105 A 
HETATM   25  C   UNL     1      26.109  40.893  49.926  1.00  0.00     0.105 A 
HETATM   26  O   UNL     1      28.342  40.568  50.200  1.00  0.00    -0.323 OA
HETATM   27  O   UNL     1      26.177  39.536  49.938  1.00  0.00    -0.323 OA
HETATM   28  C   UNL     1      24.964  41.645  49.792  1.00  0.00     0.040 A 
HETATM   29  C   UNL     1      27.596  39.337  50.109  1.00  0.00     0.352 A 
HETATM   30  C   UNL     1      25.090  43.040  49.810  1.00  0.00     0.012 A 
ENDBRANCH  21  22
ENDBRANCH   1  21
BRANCH   2  31
HETATM   31  C   UNL     1      25.641  45.546  52.729  1.00  0.00     0.101 C 
HETATM   32  N   UNL     1      26.894  45.761  53.261  1.00  0.00    -0.351 N 
HETATM   33  H   UNL     1      27.521  46.485  52.934  1.00  0.00     0.166 HD
HETATM   34  C   UNL     1      27.219  44.790  54.179  1.00  0.00     0.043 C 
HETATM   35  C   UNL     1      26.076  44.026  54.346  1.00  0.00     0.033 C 
HETATM   36  C   UNL     1      25.084  44.511  53.456  1.00  0.00     0.037 C 
BRANCH  34  37
HETATM   37  C   UNL     1      28.556  44.667  54.764  1.00  0.00    -0.009 A 
HETATM   38  C   UNL     1      29.366  43.552  54.505  1.00  0.00     0.013 A 
HETATM   39  C   UNL     1      30.617  43.422  55.113  1.00  0.00     0.001 A 
HETATM   40  C   UNL     1      31.075  44.406  55.987  1.00  0.00     0.000 A 
HETATM   41  C   UNL     1      30.287  45.524  56.245  1.00  0.00     0.001 A 
HETATM   42  C   UNL     1      29.036  45.654  55.636  1.00  0.00     0.013 A 
ENDBRANCH  34  37
ENDBRANCH   2  31
TORSDOF 8
ENDMDL
MODEL 2
REMARK VINA RESULT:      -9.7      2.244      6.700
REMARK  8 active torsions:
REMARK  status: ('A' for Active; 'I' for Inactive)
REMARK    1  A    between atoms: C_4  and  C_5 
REMARK    2  A    between atoms: C_5  and  N_6 
REMARK    3  A    between atoms: C_5  and  C_31 
REMARK       I    between atoms: N_6  and  C_7 
REMARK    4  A    between atoms: N_6  and  C_21 
REMARK    5  A    between atoms: C_7  and  C_8 
REMARK    6  A    between atoms: C_11  and  C_12 
REMARK    7  A    between atoms: C_21  and  C_22 
REMARK       I    between atoms: C_31  and  N_32 
REMARK    8  A    between atoms: N_32  and  C_33 
ROOT
HETATM    1  N   UNL     1      25.782  44.010  51.422  1.00  0.00    -0.323 N 
HETATM    2  C   UNL     1      26.591  43.552  52.463  1.00  0.00     0.271 C 
HETATM    3  O   UNL     1      26.742  42.345  52.665  1.00  0.00    -0.266 OA
ENDROOT
BRANCH   1   4
HETATM    4  C   UNL     1      25.285  43.054  50.401  1.00  0.00     0.237 C 
BRANCH   4   5
HETATM    5  C   UNL     1      24.019  43.519  49.747  1.00  0.00     0.085 A 
HETATM    6  O   UNL     1      24.122  43.903  48.438  1.00  0.00    -0.317 OA
HETATM    7  C   UNL     1      22.887  44.312  48.036  1.00  0.00     0.049 A 
HETATM    8  C   UNL     1      22.766  44.781  46.642  1.00  0.00     0.076 C 
HETATM    9  C   UNL     1      21.988  44.194  49.071  1.00  0.00     0.035 A 
HETATM   10  C   UNL     1      22.714  43.684  50.173  1.00  0.00     0.038 A 
ENDBRANCH   4   5
BRANCH   4  11
HETATM   11  C   UNL     1      26.323  42.596  49.336  1.00  0.00     0.247 C 
HETATM   12  N   UNL     1      26.157  41.316  48.840  1.00  0.00    -0.354 N 
HETATM   13  H   UNL     1      25.646  40.689  49.458  1.00  0.00     0.162 HD
HETATM   14  O   UNL     1      27.277  43.303  49.007  1.00  0.00    -0.271 OA
BRANCH  12  15
HETATM   15  C   UNL     1      27.109  40.694  47.931  1.00  0.00     0.084 C 
HETATM   16  C   UNL     1      28.452  40.432  48.627  1.00  0.00     0.025 C 
HETATM   17  C   UNL     1      28.372  39.299  49.650  1.00  0.00     0.002 C 
HETATM   18  C   UNL     1      27.800  38.024  49.039  1.00  0.00     0.000 C 
HETATM   19  C   UNL     1      26.449  38.268  48.376  1.00  0.00     0.002 C 
HETATM   20  C   UNL     1      26.521  39.401  47.352  1.00  0.00     0.025 C 
ENDBRANCH  12  15
ENDBRANCH   4  11
ENDBRANCH   1   4
BRANCH   1  21
HETATM   21  C   UNL     1      24.972  45.220  51.580  1.00  0.00     0.166 C 
BRANCH  21  22
HETATM   22  C   UNL     1      25.333  46.384  50.681  1.00  0.00    -0.037 A 
HETATM   23  C   UNL     1      24.291  47.222  50.242  1.00  0.00     0.048 A 
HETATM   24  C   UNL     1      24.601  48.296  49.434  1.00  0.00     0.105 A 
HETATM   25  C   UNL     1      25.893  48.565  49.054  1.00  0.00     0.105 A 
HETATM   26  O   UNL     1      23.712  49.192  48.931  1.00  0.00    -0.323 OA
HETATM   27  O   UNL     1      25.981  49.663  48.259  1.00  0.00    -0.323 OA
HETATM   28  C   UNL     1      26.945  47.779  49.468  1.00  0.00     0.040 A 
HETATM   29  C   UNL     1      24.594  50.054  48.182  1.00  0.00     0.352 A 
HETATM   30  C   UNL     1      26.660  46.685  50.295  1.00  0.00     0.012 A 
ENDBRANCH  21  22
ENDBRANCH   1  21
BRANCH   2  31
HETATM   31  C   UNL     1      27.149  44.507  53.396  1.00  0.00     0.101 C 
HETATM   32  N   UNL     1      28.282  44.210  54.122  1.00  0.00    -0.351 N 
HETATM   33  H   UNL     1      28.778  43.332  54.045  1.00  0.00     0.166 HD
HETATM   34  C   UNL     1      28.554  45.194  55.043  1.00  0.00     0.043 C 
HETATM   35  C   UNL     1      27.656  46.216  54.786  1.00  0.00     0.033 C 
HETATM   36  C   UNL     1      26.792  45.796  53.744  1.00  0.00     0.037 C 
BRANCH  34  37
HETATM   37  C   UNL     1      29.590  45.054  56.070  1.00  0.00    -0.009 A 
HETATM   38  C   UNL     1      30.576  44.061  55.981  1.00  0.00     0.013 A 
HETATM   39  C   UNL     1      31.524  43.904  56.995  1.00  0.00     0.001 A 
HETATM   40  C   UNL     1      31.501  44.741  58.109  1.00  0.00     0.000 A 
HETATM   41  C   UNL     1      30.535  45.739  58.205  1.00  0.00     0.001 A 
HETATM   42  C   UNL     1      29.587  45.896  57.191  1.00  0.00     0.013 A 
ENDBRANCH  34  37
ENDBRANCH   2  31
TORSDOF 8
ENDMDL
MODEL 3
REMARK VINA RESULT:      -9.4      1.899      3.725
REMARK  8 active torsions:
REMARK  status: ('A' for Active; 'I' for Inactive)
REMARK    1  A    between atoms: C_4  and  C_5 
REMARK    2  A    between atoms: C_5  and  N_6 
REMARK    3  A    between atoms: C_5  and  C_31 
REMARK       I    between atoms: N_6  and  C_7 
REMARK    4  A    between atoms: N_6  and  C_21 
REMARK    5  A    between atoms: C_7  and  C_8 
REMARK    6  A    between atoms: C_11  and  C_12 
REMARK    7  A    between atoms: C_21  and  C_22 
REMARK       I    between atoms: C_31  and  N_32 
REMARK    8  A    between atoms: N_32  and  C_33 
ROOT
HETATM    1  N   UNL     1      25.803  44.671  51.371  1.00  0.00    -0.323 N 
HETATM    2  C   UNL     1      26.387  45.076  52.572  1.00  0.00     0.271 C 
HETATM    3  O   UNL     1      25.932  46.028  53.209  1.00  0.00    -0.266 OA
ENDROOT
BRANCH   1   4
HETATM    4  C   UNL     1      24.487  45.228  50.968  1.00  0.00     0.237 C 
BRANCH   4   5
HETATM    5  C   UNL     1      24.616  46.515  50.212  1.00  0.00     0.085 A 
HETATM    6  O   UNL     1      23.457  47.033  49.701  1.00  0.00    -0.317 OA
HETATM    7  C   UNL     1      23.781  48.175  49.035  1.00  0.00     0.049 A 
HETATM    8  C   UNL     1      22.671  48.904  48.391  1.00  0.00     0.076 C 
HETATM    9  C   UNL     1      25.136  48.400  49.111  1.00  0.00     0.035 A 
HETATM   10  C   UNL     1      25.676  47.334  49.868  1.00  0.00     0.038 A 
ENDBRANCH   4   5
BRANCH   4  11
HETATM   11  C   UNL     1      23.531  44.246  50.233  1.00  0.00     0.247 C 
HETATM   12  N   UNL     1      23.326  44.494  48.888  1.00  0.00    -0.354 N 
HETATM   13  H   UNL     1      23.494  45.458  48.608  1.00  0.00     0.162 HD
HETATM   14  O   UNL     1      22.934  43.346  50.827  1.00  0.00    -0.271 OA
BRANCH  12  15
HETATM   15  C   UNL     1      22.370  43.744  48.086  1.00  0.00     0.084 C 
HETATM   16  C   UNL     1      21.154  44.608  47.720  1.00  0.00     0.025 C 
HETATM   17  C   UNL     1      21.489  45.687  46.690  1.00  0.00     0.002 C 
HETATM   18  C   UNL     1      22.152  45.098  45.448  1.00  0.00     0.000 C 
HETATM   19  C   UNL     1      23.381  44.267  45.801  1.00  0.00     0.002 C 
HETATM   20  C   UNL     1      23.054  43.187  46.831  1.00  0.00     0.025 C 
ENDBRANCH  12  15
ENDBRANCH   4  11
ENDBRANCH   1   4
BRANCH   1  21
HETATM   21  C   UNL     1      26.629  44.177  50.266  1.00  0.00     0.166 C 
BRANCH  21  22
HETATM   22  C   UNL     1      26.498  42.702  49.947  1.00  0.00    -0.037 A 
HETATM   23  C   UNL     1      26.721  42.296  48.618  1.00  0.00     0.048 A 
HETATM   24  C   UNL     1      26.622  40.956  48.311  1.00  0.00     0.105 A 
HETATM   25  C   UNL     1      26.316  40.016  49.264  1.00  0.00     0.105 A 
HETATM   26  O   UNL     1      26.807  40.408  47.080  1.00  0.00    -0.323 OA
HETATM   27  O   UNL     1      26.265  38.757  48.754  1.00  0.00    -0.323 OA
HETATM   28  C   UNL     1      26.100  40.366  50.578  1.00  0.00     0.040 A 
HETATM   29  C   UNL     1      26.575  39.014  47.368  1.00  0.00     0.352 A 
HETATM   30  C   UNL     1      26.202  41.720  50.920  1.00  0.00     0.012 A 
ENDBRANCH  21  22
ENDBRANCH   1  21
BRANCH   2  31
HETATM   31  C   UNL     1      27.622  44.455  53.001  1.00  0.00     0.101 C 
HETATM   32  N   UNL     1      28.070  44.589  54.297  1.00  0.00    -0.351 N 
HETATM   33  H   UNL     1      27.574  45.113  55.006  1.00  0.00     0.166 HD
HETATM   34  C   UNL     1      29.323  44.043  54.450  1.00  0.00     0.043 C 
HETATM   35  C   UNL     1      29.610  43.408  53.253  1.00  0.00     0.033 C 
HETATM   36  C   UNL     1      28.539  43.647  52.356  1.00  0.00     0.037 C 
BRANCH  34  37
HETATM   37  C   UNL     1      30.115  44.203  55.671  1.00  0.00    -0.009 A 
HETATM   38  C   UNL     1      31.091  43.265  56.037  1.00  0.00     0.013 A 
HETATM   39  C   UNL     1      31.800  43.403  57.233  1.00  0.00     0.001 A 
HETATM   40  C   UNL     1      31.545  44.482  58.078  1.00  0.00     0.000 A 
HETATM   41  C   UNL     1      30.587  45.428  57.721  1.00  0.00     0.001 A 
HETATM   42  C   UNL     1      29.879  45.290  56.525  1.00  0.00     0.013 A 
ENDBRANCH  34  37
ENDBRANCH   2  31
TORSDOF 8
ENDMDL
MODEL 4
REMARK VINA RESULT:      -9.3      1.656      2.111
REMARK  8 active torsions:
REMARK  status: ('A' for Active; 'I' for Inactive)
REMARK    1  A    between atoms: C_4  and  C_5 
REMARK    2  A    between atoms: C_5  and  N_6 
REMARK    3  A    between atoms: C_5  and  C_31 
REMARK       I    between atoms: N_6  and  C_7 
REMARK    4  A    between atoms: N_6  and  C_21 
REMARK    5  A    between atoms: C_7  and  C_8 
REMARK    6  A    between atoms: C_11  and  C_12 
REMARK    7  A    between atoms: C_21  and  C_22 
REMARK       I    between atoms: C_31  and  N_32 
REMARK    8  A    between atoms: N_32  and  C_33 
ROOT
HETATM    1  N   UNL     1      24.605  46.399  50.880  1.00  0.00    -0.323 N 
HETATM    2  C   UNL     1      25.697  47.112  51.377  1.00  0.00     0.271 C 
HETATM    3  O   UNL     1      26.321  47.896  50.659  1.00  0.00    -0.266 OA
ENDROOT
BRANCH   1   4
HETATM    4  C   UNL     1      24.034  46.755  49.556  1.00  0.00     0.237 C 
BRANCH   4   5
HETATM    5  C   UNL     1      23.236  45.637  48.956  1.00  0.00     0.085 A 
HETATM    6  O   UNL     1      23.766  45.049  47.841  1.00  0.00    -0.317 OA
HETATM    7  C   UNL     1      22.894  44.086  47.435  1.00  0.00     0.049 A 
HETATM    8  C   UNL     1      23.265  43.319  46.230  1.00  0.00     0.076 C 
HETATM    9  C   UNL     1      21.806  44.046  48.278  1.00  0.00     0.035 A 
HETATM   10  C   UNL     1      22.024  45.043  49.257  1.00  0.00     0.038 A 
ENDBRANCH   4   5
BRANCH   4  11
HETATM   11  C   UNL     1      23.246  48.095  49.494  1.00  0.00     0.247 C 
HETATM   12  N   UNL     1      21.887  47.987  49.266  1.00  0.00    -0.354 N 
HETATM   13  H   UNL     1      21.605  47.126  48.800  1.00  0.00     0.162 HD
HETATM   14  O   UNL     1      23.808  49.188  49.568  1.00  0.00    -0.271 OA
BRANCH  12  15
HETATM   15  C   UNL     1      21.028  49.145  49.061  1.00  0.00     0.084 C 
HETATM   16  C   UNL     1      20.514  49.204  47.615  1.00  0.00     0.025 C 
HETATM   17  C   UNL     1      19.477  48.122  47.315  1.00  0.00     0.002 C 
HETATM   18  C   UNL     1      18.329  48.143  48.319  1.00  0.00     0.000 C 
HETATM   19  C   UNL     1      18.830  48.048  49.756  1.00  0.00     0.002 C 
HETATM   20  C   UNL     1      19.868  49.128  50.063  1.00  0.00     0.025 C 
ENDBRANCH  12  15
ENDBRANCH   4  11
ENDBRANCH   1   4
BRANCH   1  21
HETATM   21  C   UNL     1      24.348  45.023  51.313  1.00  0.00     0.166 C 
BRANCH  21  22
HETATM   22  C   UNL     1      25.411  44.005  50.958  1.00  0.00    -0.037 A 
HETATM   23  C   UNL     1      25.915  43.194  51.992  1.00  0.00     0.048 A 
HETATM   24  C   UNL     1      26.872  42.250  51.686  1.00  0.00     0.105 A 
HETATM   25  C   UNL     1      27.340  42.084  50.405  1.00  0.00     0.105 A 
HETATM   26  O   UNL     1      27.454  41.395  52.568  1.00  0.00    -0.323 OA
HETATM   27  O   UNL     1      28.279  41.106  50.319  1.00  0.00    -0.323 OA
HETATM   28  C   UNL     1      26.869  42.848  49.362  1.00  0.00     0.040 A 
HETATM   29  C   UNL     1      28.349  40.676  51.695  1.00  0.00     0.352 A 
HETATM   30  C   UNL     1      25.890  43.809  49.642  1.00  0.00     0.012 A 
ENDBRANCH  21  22
ENDBRANCH   1  21
BRANCH   2  31
HETATM   31  C   UNL     1      26.183  46.821  52.708  1.00  0.00     0.101 C 
HETATM   32  N   UNL     1      27.400  46.204  52.900  1.00  0.00    -0.351 N 
HETATM   33  H   UNL     1      28.009  45.927  52.141  1.00  0.00     0.166 HD
HETATM   34  C   UNL     1      27.599  45.897  54.226  1.00  0.00     0.043 C 
HETATM   35  C   UNL     1      26.546  46.477  54.913  1.00  0.00     0.033 C 
HETATM   36  C   UNL     1      25.673  47.072  53.968  1.00  0.00     0.037 C 
BRANCH  34  37
HETATM   37  C   UNL     1      28.721  45.078  54.690  1.00  0.00    -0.009 A 
HETATM   38  C   UNL     1      29.029  43.851  54.084  1.00  0.00     0.013 A 
HETATM   39  C   UNL     1      30.068  43.055  54.573  1.00  0.00     0.001 A 
HETATM   40  C   UNL     1      30.814  43.475  55.672  1.00  0.00     0.000 A 
HETATM   41  C   UNL     1      30.527  44.696  56.277  1.00  0.00     0.001 A 
HETATM   42  C   UNL     1      29.488  45.493  55.787  1.00  0.00     0.013 A 
ENDBRANCH  34  37
ENDBRANCH   2  31
TORSDOF 8
ENDMDL
MODEL 5
REMARK VINA RESULT:      -9.2      1.983      5.595
REMARK  8 active torsions:
REMARK  status: ('A' for Active; 'I' for Inactive)
REMARK    1  A    between atoms: C_4  and  C_5 
REMARK    2  A    between atoms: C_5  and  N_6 
REMARK    3  A    between atoms: C_5  and  C_31 
REMARK       I    between atoms: N_6  and  C_7 
REMARK    4  A    between atoms: N_6  and  C_21 
REMARK    5  A    between atoms: C_7  and  C_8 
REMARK    6  A    between atoms: C_11  and  C_12 
REMARK    7  A    between atoms: C_21  and  C_22 
REMARK       I    between atoms: C_31  and  N_32 
REMARK    8  A    between atoms: N_32  and  C_33 
ROOT
HETATM    1  N   UNL     1      25.813  45.258  51.176  1.00  0.00    -0.323 N 
HETATM    2  C   UNL     1      26.305  44.422  52.179  1.00  0.00     0.271 C 
HETATM    3  O   UNL     1      26.119  43.204  52.136  1.00  0.00    -0.266 OA
ENDROOT
BRANCH   1   4
HETATM    4  C   UNL     1      25.267  44.669  49.928  1.00  0.00     0.237 C 
BRANCH   4   5
HETATM    5  C   UNL     1      25.987  43.418  49.521  1.00  0.00     0.085 A 
HETATM    6  O   UNL     1      25.211  42.420  48.998  1.00  0.00    -0.317 OA
HETATM    7  C   UNL     1      26.034  41.372  48.717  1.00  0.00     0.049 A 
HETATM    8  C   UNL     1      25.401  40.168  48.144  1.00  0.00     0.076 C 
HETATM    9  C   UNL     1      27.331  41.684  49.053  1.00  0.00     0.035 A 
HETATM   10  C   UNL     1      27.304  43.000  49.570  1.00  0.00     0.038 A 
ENDBRANCH   4   5
BRANCH   4  11
HETATM   11  C   UNL     1      23.727  44.458  49.893  1.00  0.00     0.247 C 
HETATM   12  N   UNL     1      23.095  44.805  48.713  1.00  0.00    -0.354 N 
HETATM   13  H   UNL     1      23.600  45.488  48.150  1.00  0.00     0.162 HD
HETATM   14  O   UNL     1      23.096  44.075  50.879  1.00  0.00    -0.271 OA
BRANCH  12  15
HETATM   15  C   UNL     1      21.647  44.783  48.558  1.00  0.00     0.084 C 
HETATM   16  C   UNL     1      21.069  46.205  48.541  1.00  0.00     0.025 C 
HETATM   17  C   UNL     1      21.403  46.960  47.254  1.00  0.00     0.002 C 
HETATM   18  C   UNL     1      20.993  46.173  46.013  1.00  0.00     0.000 C 
HETATM   19  C   UNL     1      21.593  44.771  46.005  1.00  0.00     0.002 C 
HETATM   20  C   UNL     1      21.263  44.011  47.289  1.00  0.00     0.025 C 
ENDBRANCH  12  15
ENDBRANCH   4  11
ENDBRANCH   1   4
BRANCH   1  21
HETATM   21  C   UNL     1      25.312  46.597  51.497  1.00  0.00     0.166 C 
BRANCH  21  22
HETATM   22  C   UNL     1      25.398  47.623  50.387  1.00  0.00    -0.037 A 
HETATM   23  C   UNL     1      24.195  48.184  49.918  1.00  0.00     0.048 A 
HETATM   24  C   UNL     1      24.253  49.131  48.917  1.00  0.00     0.105 A 
HETATM   25  C   UNL     1      25.447  49.537  48.375  1.00  0.00     0.105 A 
HETATM   26  O   UNL     1      23.186  49.763  48.360  1.00  0.00    -0.323 OA
HETATM   27  O   UNL     1      25.284  50.474  47.404  1.00  0.00    -0.323 OA
HETATM   28  C   UNL     1      26.648  49.023  48.809  1.00  0.00     0.040 A 
HETATM   29  C   UNL     1      23.847  50.610  47.398  1.00  0.00     0.352 A 
HETATM   30  C   UNL     1      26.620  48.065  49.830  1.00  0.00     0.012 A 
ENDBRANCH  21  22
ENDBRANCH   1  21
BRANCH   2  31
HETATM   31  C   UNL     1      26.923  45.009  53.348  1.00  0.00     0.101 C 
HETATM   32  N   UNL     1      28.132  44.547  53.819  1.00  0.00    -0.351 N 
HETATM   33  H   UNL     1      28.646  43.791  53.385  1.00  0.00     0.166 HD
HETATM   34  C   UNL     1      28.464  45.146  55.012  1.00  0.00     0.043 C 
HETATM   35  C   UNL     1      27.512  46.129  55.222  1.00  0.00     0.033 C 
HETATM   36  C   UNL     1      26.561  46.058  54.173  1.00  0.00     0.037 C 
BRANCH  34  37
HETATM   37  C   UNL     1      29.602  44.713  55.827  1.00  0.00    -0.009 A 
HETATM   38  C   UNL     1      30.393  43.618  55.452  1.00  0.00     0.013 A 
HETATM   39  C   UNL     1      31.442  43.183  56.267  1.00  0.00     0.001 A 
HETATM   40  C   UNL     1      31.714  43.839  57.466  1.00  0.00     0.000 A 
HETATM   41  C   UNL     1      30.944  44.936  57.845  1.00  0.00     0.001 A 
HETATM   42  C   UNL     1      29.896  45.371  57.029  1.00  0.00     0.013 A 
ENDBRANCH  34  37
ENDBRANCH   2  31
TORSDOF 8
ENDMDL
MODEL 6
REMARK VINA RESULT:      -8.7     12.841     15.851
REMARK  8 active torsions:
REMARK  status: ('A' for Active; 'I' for Inactive)
REMARK    1  A    between atoms: C_4  and  C_5 
REMARK    2  A    between atoms: C_5  and  N_6 
REMARK    3  A    between atoms: C_5  and  C_31 
REMARK       I    between atoms: N_6  and  C_7 
REMARK    4  A    between atoms: N_6  and  C_21 
REMARK    5  A    between atoms: C_7  and  C_8 
REMARK    6  A    between atoms: C_11  and  C_12 
REMARK    7  A    between atoms: C_21  and  C_22 
REMARK       I    between atoms: C_31  and  N_32 
REMARK    8  A    between atoms: N_32  and  C_33 
ROOT
HETATM    1  N   UNL     1      33.792  50.634  42.100  1.00  0.00    -0.323 N 
HETATM    2  C   UNL     1      33.426  49.338  41.734  1.00  0.00     0.271 C 
HETATM    3  O   UNL     1      34.249  48.561  41.245  1.00  0.00    -0.266 OA
ENDROOT
BRANCH   1   4
HETATM    4  C   UNL     1      35.227  51.014  42.126  1.00  0.00     0.237 C 
BRANCH   4   5
HETATM    5  C   UNL     1      35.695  51.580  40.819  1.00  0.00     0.085 A 
HETATM    6  O   UNL     1      35.559  52.932  40.665  1.00  0.00    -0.317 OA
HETATM    7  C   UNL     1      36.010  53.247  39.420  1.00  0.00     0.049 A 
HETATM    8  C   UNL     1      35.949  54.669  39.032  1.00  0.00     0.076 C 
HETATM    9  C   UNL     1      36.437  52.111  38.770  1.00  0.00     0.035 A 
HETATM   10  C   UNL     1      36.236  51.038  39.668  1.00  0.00     0.038 A 
ENDBRANCH   4   5
BRANCH   4  11
HETATM   11  C   UNL     1      35.668  51.918  43.312  1.00  0.00     0.247 C 
HETATM   12  N   UNL     1      37.026  52.157  43.418  1.00  0.00    -0.354 N 
HETATM   13  H   UNL     1      37.613  51.451  42.977  1.00  0.00     0.162 HD
HETATM   14  O   UNL     1      34.867  52.336  44.149  1.00  0.00    -0.271 OA
BRANCH  12  15
HETATM   15  C   UNL     1      37.614  52.881  44.536  1.00  0.00     0.084 C 
HETATM   16  C   UNL     1      38.960  52.269  44.948  1.00  0.00     0.025 C 
HETATM   17  C   UNL     1      40.065  52.535  43.925  1.00  0.00     0.002 C 
HETATM   18  C   UNL     1      40.199  54.022  43.611  1.00  0.00     0.000 C 
HETATM   19  C   UNL     1      38.873  54.630  43.167  1.00  0.00     0.002 C 
HETATM   20  C   UNL     1      37.763  54.367  44.184  1.00  0.00     0.025 C 
ENDBRANCH  12  15
ENDBRANCH   4  11
ENDBRANCH   1   4
BRANCH   1  21
HETATM   21  C   UNL     1      32.861  51.752  41.928  1.00  0.00     0.166 C 
BRANCH  21  22
HETATM   22  C   UNL     1      32.049  51.750  40.649  1.00  0.00    -0.037 A 
HETATM   23  C   UNL     1      30.682  52.073  40.740  1.00  0.00     0.048 A 
HETATM   24  C   UNL     1      29.929  52.092  39.585  1.00  0.00     0.105 A 
HETATM   25  C   UNL     1      30.479  51.808  38.359  1.00  0.00     0.105 A 
HETATM   26  O   UNL     1      28.603  52.382  39.507  1.00  0.00    -0.323 OA
HETATM   27  O   UNL     1      29.568  51.881  37.353  1.00  0.00    -0.323 OA
HETATM   28  C   UNL     1      31.813  51.499  38.222  1.00  0.00     0.040 A 
HETATM   29  C   UNL     1      28.380  52.242  38.088  1.00  0.00     0.352 A 
HETATM   30  C   UNL     1      32.604  51.479  39.377  1.00  0.00     0.012 A 
ENDBRANCH  21  22
ENDBRANCH   1  21
BRANCH   2  31
HETATM   31  C   UNL     1      32.033  48.951  41.805  1.00  0.00     0.101 C 
HETATM   32  N   UNL     1      31.402  48.373  40.726  1.00  0.00    -0.351 N 
HETATM   33  H   UNL     1      31.863  48.189  39.845  1.00  0.00     0.166 HD
HETATM   34  C   UNL     1      30.056  48.217  40.961  1.00  0.00     0.043 C 
HETATM   35  C   UNL     1      29.858  48.563  42.287  1.00  0.00     0.033 C 
HETATM   36  C   UNL     1      31.097  49.001  42.821  1.00  0.00     0.037 C 
BRANCH  34  37
HETATM   37  C   UNL     1      29.112  47.799  39.922  1.00  0.00    -0.009 A 
HETATM   38  C   UNL     1      29.025  46.460  39.512  1.00  0.00     0.013 A 
HETATM   39  C   UNL     1      28.160  46.085  38.481  1.00  0.00     0.001 A 
HETATM   40  C   UNL     1      27.368  47.042  37.849  1.00  0.00     0.000 A 
HETATM   41  C   UNL     1      27.435  48.373  38.255  1.00  0.00     0.001 A 
HETATM   42  C   UNL     1      28.300  48.747  39.286  1.00  0.00     0.013 A 
ENDBRANCH  34  37
ENDBRANCH   2  31
TORSDOF 8
ENDMDL
MODEL 7
REMARK VINA RESULT:      -8.7     18.670     21.225
REMARK  8 active torsions:
REMARK  status: ('A' for Active; 'I' for Inactive)
REMARK    1  A    between atoms: C_4  and  C_5 
REMARK    2  A    between atoms: C_5  and  N_6 
REMARK    3  A    between atoms: C_5  and  C_31 
REMARK       I    between atoms: N_6  and  C_7 
REMARK    4  A    between atoms: N_6  and  C_21 
REMARK    5  A    between atoms: C_7  and  C_8 
REMARK    6  A    between atoms: C_11  and  C_12 
REMARK    7  A    between atoms: C_21  and  C_22 
REMARK       I    between atoms: C_31  and  N_32 
REMARK    8  A    between atoms: N_32  and  C_33 
ROOT
HETATM    1  N   UNL     1      37.948  43.574  65.221  1.00  0.00    -0.323 N 
HETATM    2  C   UNL     1      37.380  42.470  64.584  1.00  0.00     0.271 C 
HETATM    3  O   UNL     1      36.159  42.303  64.574  1.00  0.00    -0.266 OA
ENDROOT
BRANCH   1   4
HETATM    4  C   UNL     1      37.078  44.683  65.687  1.00  0.00     0.237 C 
BRANCH   4   5
HETATM    5  C   UNL     1      37.251  44.974  67.147  1.00  0.00     0.085 A 
HETATM    6  O   UNL     1      38.073  46.022  67.460  1.00  0.00    -0.317 OA
HETATM    7  C   UNL     1      38.121  46.109  68.818  1.00  0.00     0.049 A 
HETATM    8  C   UNL     1      38.965  47.179  69.384  1.00  0.00     0.076 C 
HETATM    9  C   UNL     1      37.339  45.128  69.384  1.00  0.00     0.035 A 
HETATM   10  C   UNL     1      36.778  44.397  68.311  1.00  0.00     0.038 A 
ENDBRANCH   4   5
BRANCH   4  11
HETATM   11  C   UNL     1      37.140  45.993  64.850  1.00  0.00     0.247 C 
HETATM   12  N   UNL     1      38.158  46.871  65.175  1.00  0.00    -0.354 N 
HETATM   13  H   UNL     1      38.512  46.773  66.125  1.00  0.00     0.162 HD
HETATM   14  O   UNL     1      36.292  46.267  64.000  1.00  0.00    -0.271 OA
BRANCH  12  15
HETATM   15  C   UNL     1      38.283  48.190  64.572  1.00  0.00     0.084 C 
HETATM   16  C   UNL     1      37.380  49.211  65.278  1.00  0.00     0.025 C 
HETATM   17  C   UNL     1      37.884  49.574  66.676  1.00  0.00     0.002 C 
HETATM   18  C   UNL     1      39.338  50.034  66.652  1.00  0.00     0.000 C 
HETATM   19  C   UNL     1      40.247  49.009  65.983  1.00  0.00     0.002 C 
HETATM   20  C   UNL     1      39.749  48.642  64.585  1.00  0.00     0.025 C 
ENDBRANCH  12  15
ENDBRANCH   4  11
ENDBRANCH   1   4
BRANCH   1  21
HETATM   21  C   UNL     1      39.228  43.457  65.923  1.00  0.00     0.166 C 
BRANCH  21  22
HETATM   22  C   UNL     1      40.391  44.216  65.318  1.00  0.00    -0.037 A 
HETATM   23  C   UNL     1      41.148  45.043  66.169  1.00  0.00     0.048 A 
HETATM   24  C   UNL     1      42.220  45.731  65.641  1.00  0.00     0.105 A 
HETATM   25  C   UNL     1      42.563  45.626  64.315  1.00  0.00     0.105 A 
HETATM   26  O   UNL     1      43.045  46.565  66.329  1.00  0.00    -0.323 OA
HETATM   27  O   UNL     1      43.646  46.384  63.999  1.00  0.00    -0.323 OA
HETATM   28  C   UNL     1      41.858  44.822  63.449  1.00  0.00     0.040 A 
HETATM   29  C   UNL     1      43.944  46.979  65.279  1.00  0.00     0.352 A 
HETATM   30  C   UNL     1      40.768  44.106  63.960  1.00  0.00     0.012 A 
ENDBRANCH  21  22
ENDBRANCH   1  21
BRANCH   2  31
HETATM   31  C   UNL     1      38.246  41.442  64.048  1.00  0.00     0.101 C 
HETATM   32  N   UNL     1      38.645  40.376  64.823  1.00  0.00    -0.351 N 
HETATM   33  H   UNL     1      38.362  40.253  65.787  1.00  0.00     0.166 HD
HETATM   34  C   UNL     1      39.571  39.601  64.166  1.00  0.00     0.043 C 
HETATM   35  C   UNL     1      39.643  40.104  62.878  1.00  0.00     0.033 C 
HETATM   36  C   UNL     1      38.800  41.240  62.797  1.00  0.00     0.037 C 
BRANCH  34  37
HETATM   37  C   UNL     1      40.300  38.511  64.819  1.00  0.00    -0.009 A 
HETATM   38  C   UNL     1      41.395  37.891  64.199  1.00  0.00     0.013 A 
HETATM   39  C   UNL     1      42.047  36.817  64.810  1.00  0.00     0.001 A 
HETATM   40  C   UNL     1      41.614  36.349  66.049  1.00  0.00     0.000 A 
HETATM   41  C   UNL     1      40.535  36.962  66.682  1.00  0.00     0.001 A 
HETATM   42  C   UNL     1      39.884  38.037  66.070  1.00  0.00     0.013 A 
ENDBRANCH  34  37
ENDBRANCH   2  31
TORSDOF 8
ENDMDL
MODEL 8
REMARK VINA RESULT:      -8.7      2.559      4.323
REMARK  8 active torsions:
REMARK  status: ('A' for Active; 'I' for Inactive)
REMARK    1  A    between atoms: C_4  and  C_5 
REMARK    2  A    between atoms: C_5  and  N_6 
REMARK    3  A    between atoms: C_5  and  C_31 
REMARK       I    between atoms: N_6  and  C_7 
REMARK    4  A    between atoms: N_6  and  C_21 
REMARK    5  A    between atoms: C_7  and  C_8 
REMARK    6  A    between atoms: C_11  and  C_12 
REMARK    7  A    between atoms: C_21  and  C_22 
REMARK       I    between atoms: C_31  and  N_32 
REMARK    8  A    between atoms: N_32  and  C_33 
ROOT
HETATM    1  N   UNL     1      21.833  47.044  48.181  1.00  0.00    -0.323 N 
HETATM    2  C   UNL     1      22.468  48.098  48.840  1.00  0.00     0.271 C 
HETATM    3  O   UNL     1      21.993  49.235  48.822  1.00  0.00    -0.266 OA
ENDROOT
BRANCH   1   4
HETATM    4  C   UNL     1      20.458  47.228  47.653  1.00  0.00     0.237 C 
BRANCH   4   5
HETATM    5  C   UNL     1      19.916  45.983  47.019  1.00  0.00     0.085 A 
HETATM    6  O   UNL     1      20.042  45.895  45.659  1.00  0.00    -0.317 OA
HETATM    7  C   UNL     1      19.474  44.719  45.274  1.00  0.00     0.049 A 
HETATM    8  C   UNL     1      19.492  44.417  43.829  1.00  0.00     0.076 C 
HETATM    9  C   UNL     1      18.984  44.047  46.370  1.00  0.00     0.035 A 
HETATM   10  C   UNL     1      19.267  44.858  47.494  1.00  0.00     0.038 A 
ENDBRANCH   4   5
BRANCH   4  11
HETATM   11  C   UNL     1      19.426  47.840  48.643  1.00  0.00     0.247 C 
HETATM   12  N   UNL     1      18.849  49.035  48.253  1.00  0.00    -0.354 N 
HETATM   13  H   UNL     1      19.401  49.571  47.586  1.00  0.00     0.162 HD
HETATM   14  O   UNL     1      19.191  47.332  49.740  1.00  0.00    -0.271 OA
BRANCH  12  15
HETATM   15  C   UNL     1      17.958  49.797  49.116  1.00  0.00     0.084 C 
HETATM   16  C   UNL     1      18.750  50.668  50.102  1.00  0.00     0.025 C 
HETATM   17  C   UNL     1      19.440  51.850  49.420  1.00  0.00     0.002 C 
HETATM   18  C   UNL     1      18.459  52.683  48.601  1.00  0.00     0.000 C 
HETATM   19  C   UNL     1      17.693  51.831  47.595  1.00  0.00     0.002 C 
HETATM   20  C   UNL     1      17.001  50.647  48.270  1.00  0.00     0.025 C 
ENDBRANCH  12  15
ENDBRANCH   4  11
ENDBRANCH   1   4
BRANCH   1  21
HETATM   21  C   UNL     1      22.614  45.996  47.518  1.00  0.00     0.166 C 
BRANCH  21  22
HETATM   22  C   UNL     1      23.104  44.871  48.405  1.00  0.00    -0.037 A 
HETATM   23  C   UNL     1      24.472  44.543  48.354  1.00  0.00     0.048 A 
HETATM   24  C   UNL     1      24.940  43.531  49.165  1.00  0.00     0.105 A 
HETATM   25  C   UNL     1      24.109  42.843  50.015  1.00  0.00     0.105 A 
HETATM   26  O   UNL     1      26.228  43.099  49.231  1.00  0.00    -0.323 OA
HETATM   27  O   UNL     1      24.768  41.888  50.723  1.00  0.00    -0.323 OA
HETATM   28  C   UNL     1      22.768  43.136  50.106  1.00  0.00     0.040 A 
HETATM   29  C   UNL     1      26.110  42.053  50.218  1.00  0.00     0.352 A 
HETATM   30  C   UNL     1      22.266  44.165  49.299  1.00  0.00     0.012 A 
ENDBRANCH  21  22
ENDBRANCH   1  21
BRANCH   2  31
HETATM   31  C   UNL     1      23.769  47.877  49.435  1.00  0.00     0.101 C 
HETATM   32  N   UNL     1      23.915  47.063  50.537  1.00  0.00    -0.351 N 
HETATM   33  H   UNL     1      23.143  46.583  50.980  1.00  0.00     0.166 HD
HETATM   34  C   UNL     1      25.202  47.105  51.020  1.00  0.00     0.043 C 
HETATM   35  C   UNL     1      25.928  47.848  50.105  1.00  0.00     0.033 C 
HETATM   36  C   UNL     1      25.038  48.312  49.104  1.00  0.00     0.037 C 
BRANCH  34  37
HETATM   37  C   UNL     1      25.595  46.482  52.286  1.00  0.00    -0.009 A 
HETATM   38  C   UNL     1      25.232  45.163  52.594  1.00  0.00     0.013 A 
HETATM   39  C   UNL     1      25.566  44.600  53.828  1.00  0.00     0.001 A 
HETATM   40  C   UNL     1      26.270  45.348  54.770  1.00  0.00     0.000 A 
HETATM   41  C   UNL     1      26.647  46.655  54.474  1.00  0.00     0.001 A 
HETATM   42  C   UNL     1      26.313  47.218  53.239  1.00  0.00     0.013 A 
ENDBRANCH  34  37
ENDBRANCH   2  31
TORSDOF 8
ENDMDL
MODEL 9
REMARK VINA RESULT:      -8.7      3.667      7.476
REMARK  8 active torsions:
REMARK  status: ('A' for Active; 'I' for Inactive)
REMARK    1  A    between atoms: C_4  and  C_5 
REMARK    2  A    between atoms: C_5  and  N_6 
REMARK    3  A    between atoms: C_5  and  C_31 
REMARK       I    between atoms: N_6  and  C_7 
REMARK    4  A    between atoms: N_6  and  C_21 
REMARK    5  A    between atoms: C_7  and  C_8 
REMARK    6  A    between atoms: C_11  and  C_12 
REMARK    7  A    between atoms: C_21  and  C_22 
REMARK       I    between atoms: C_31  and  N_32 
REMARK    8  A    between atoms: N_32  and  C_33 
ROOT
HETATM    1  N   UNL     1      27.701  40.579  49.950  1.00  0.00    -0.323 N 
HETATM    2  C   UNL     1      28.480  40.413  51.095  1.00  0.00     0.271 C 
HETATM    3  O   UNL     1      29.370  39.562  51.138  1.00  0.00    -0.266 OA
ENDROOT
BRANCH   1   4
HETATM    4  C   UNL     1      28.090  39.899  48.689  1.00  0.00     0.237 C 
BRANCH   4   5
HETATM    5  C   UNL     1      27.575  38.493  48.612  1.00  0.00     0.085 A 
HETATM    6  O   UNL     1      27.740  37.856  47.413  1.00  0.00    -0.317 OA
HETATM    7  C   UNL     1      27.192  36.616  47.533  1.00  0.00     0.049 A 
HETATM    8  C   UNL     1      27.251  35.746  46.342  1.00  0.00     0.076 C 
HETATM    9  C   UNL     1      26.676  36.446  48.798  1.00  0.00     0.035 A 
HETATM   10  C   UNL     1      26.922  37.653  49.494  1.00  0.00     0.038 A 
ENDBRANCH   4   5
BRANCH   4  11
HETATM   11  C   UNL     1      27.784  40.675  47.376  1.00  0.00     0.247 C 
HETATM   12  N   UNL     1      26.607  40.337  46.734  1.00  0.00    -0.354 N 
HETATM   13  H   UNL     1      26.263  39.402  46.949  1.00  0.00     0.162 HD
HETATM   14  O   UNL     1      28.575  41.488  46.896  1.00  0.00    -0.271 OA
BRANCH  12  15
HETATM   15  C   UNL     1      26.233  40.880  45.436  1.00  0.00     0.084 C 
HETATM   16  C   UNL     1      26.619  39.921  44.301  1.00  0.00     0.025 C 
HETATM   17  C   UNL     1      25.739  38.671  44.263  1.00  0.00     0.002 C 
HETATM   18  C   UNL     1      24.255  39.024  44.219  1.00  0.00     0.000 C 
HETATM   19  C   UNL     1      23.857  39.948  45.364  1.00  0.00     0.002 C 
HETATM   20  C   UNL     1      24.733  41.200  45.408  1.00  0.00     0.025 C 
ENDBRANCH  12  15
ENDBRANCH   4  11
ENDBRANCH   1   4
BRANCH   1  21
HETATM   21  C   UNL     1      26.279  40.919  50.053  1.00  0.00     0.166 C 
BRANCH  21  22
HETATM   22  C   UNL     1      25.957  42.389  50.219  1.00  0.00    -0.037 A 
HETATM   23  C   UNL     1      26.850  43.324  49.660  1.00  0.00     0.048 A 
HETATM   24  C   UNL     1      26.566  44.667  49.787  1.00  0.00     0.105 A 
HETATM   25  C   UNL     1      25.442  45.110  50.440  1.00  0.00     0.105 A 
HETATM   26  O   UNL     1      27.325  45.687  49.305  1.00  0.00    -0.323 OA
HETATM   27  O   UNL     1      25.352  46.466  50.455  1.00  0.00    -0.323 OA
HETATM   28  C   UNL     1      24.537  44.233  50.993  1.00  0.00     0.040 A 
HETATM   29  C   UNL     1      26.551  46.825  49.737  1.00  0.00     0.352 A 
HETATM   30  C   UNL     1      24.795  42.862  50.872  1.00  0.00     0.012 A 
ENDBRANCH  21  22
ENDBRANCH   1  21
BRANCH   2  31
HETATM   31  C   UNL     1      28.145  41.157  52.290  1.00  0.00     0.101 C 
HETATM   32  N   UNL     1      28.914  42.224  52.700  1.00  0.00    -0.351 N 
HETATM   33  H   UNL     1      29.735  42.543  52.200  1.00  0.00     0.166 HD
HETATM   34  C   UNL     1      28.503  42.694  53.925  1.00  0.00     0.043 C 
HETATM   35  C   UNL     1      27.342  42.003  54.228  1.00  0.00     0.033 C 
HETATM   36  C   UNL     1      27.107  41.058  53.197  1.00  0.00     0.037 C 
BRANCH  34  37
HETATM   37  C   UNL     1      29.252  43.701  54.681  1.00  0.00    -0.009 A 
HETATM   38  C   UNL     1      30.493  43.402  55.262  1.00  0.00     0.013 A 
HETATM   39  C   UNL     1      31.171  44.356  56.027  1.00  0.00     0.001 A 
HETATM   40  C   UNL     1      30.618  45.621  56.217  1.00  0.00     0.000 A 
HETATM   41  C   UNL     1      29.392  45.935  55.636  1.00  0.00     0.001 A 
HETATM   42  C   UNL     1      28.715  44.981  54.871  1.00  0.00     0.013 A 
ENDBRANCH  34  37
ENDBRANCH   2  31
TORSDOF 8
ENDMDL
MODEL 10
REMARK VINA RESULT:      -8.7      3.121      6.439
REMARK  8 active torsions:
REMARK  status: ('A' for Active; 'I' for Inactive)
REMARK    1  A    between atoms: C_4  and  C_5 
REMARK    2  A    between atoms: C_5  and  N_6 
REMARK    3  A    between atoms: C_5  and  C_31 
REMARK       I    between atoms: N_6  and  C_7 
REMARK    4  A    between atoms: N_6  and  C_21 
REMARK    5  A    between atoms: C_7  and  C_8 
REMARK    6  A    between atoms: C_11  and  C_12 
REMARK    7  A    between atoms: C_21  and  C_22 
REMARK       I    between atoms: C_31  and  N_32 
REMARK    8  A    between atoms: N_32  and  C_33 
ROOT
HETATM    1  N   UNL     1      21.035  46.822  48.504  1.00  0.00    -0.323 N 
HETATM    2  C   UNL     1      21.310  45.457  48.417  1.00  0.00     0.271 C 
HETATM    3  O   UNL     1      20.419  44.646  48.157  1.00  0.00    -0.266 OA
ENDROOT
BRANCH   1   4
HETATM    4  C   UNL     1      19.719  47.338  48.051  1.00  0.00     0.237 C 
BRANCH   4   5
HETATM    5  C   UNL     1      19.235  48.487  48.884  1.00  0.00     0.085 A 
HETATM    6  O   UNL     1      19.469  49.738  48.380  1.00  0.00    -0.317 OA
HETATM    7  C   UNL     1      18.985  50.636  49.281  1.00  0.00     0.049 A 
HETATM    8  C   UNL     1      19.138  52.064  48.941  1.00  0.00     0.076 C 
HETATM    9  C   UNL     1      18.441  49.978  50.361  1.00  0.00     0.035 A 
HETATM   10  C   UNL     1      18.601  48.596  50.108  1.00  0.00     0.038 A 
ENDBRANCH   4   5
BRANCH   4  11
HETATM   11  C   UNL     1      19.602  47.665  46.535  1.00  0.00     0.247 C 
HETATM   12  N   UNL     1      18.482  48.381  46.154  1.00  0.00    -0.354 N 
HETATM   13  H   UNL     1      17.692  48.296  46.791  1.00  0.00     0.162 HD
HETATM   14  O   UNL     1      20.419  47.250  45.712  1.00  0.00    -0.271 OA
BRANCH  12  15
HETATM   15  C   UNL     1      18.163  48.663  44.762  1.00  0.00     0.084 C 
HETATM   16  C   UNL     1      16.706  48.300  44.442  1.00  0.00     0.025 C 
HETATM   17  C   UNL     1      15.706  49.263  45.083  1.00  0.00     0.002 C 
HETATM   18  C   UNL     1      16.012  50.715  44.730  1.00  0.00     0.000 C 
HETATM   19  C   UNL     1      17.447  51.094  45.078  1.00  0.00     0.002 C 
HETATM   20  C   UNL     1      18.453  50.135  44.441  1.00  0.00     0.025 C 
ENDBRANCH  12  15
ENDBRANCH   4  11
ENDBRANCH   1   4
BRANCH   1  21
HETATM   21  C   UNL     1      21.723  47.663  49.487  1.00  0.00     0.166 C 
BRANCH  21  22
HETATM   22  C   UNL     1      22.902  48.460  48.970  1.00  0.00    -0.037 A 
HETATM   23  C   UNL     1      24.175  48.158  49.488  1.00  0.00     0.048 A 
HETATM   24  C   UNL     1      25.264  48.862  49.020  1.00  0.00     0.105 A 
HETATM   25  C   UNL     1      25.135  49.842  48.066  1.00  0.00     0.105 A 
HETATM   26  O   UNL     1      26.552  48.689  49.419  1.00  0.00    -0.323 OA
HETATM   27  O   UNL     1      26.326  50.413  47.745  1.00  0.00    -0.323 OA
HETATM   28  C   UNL     1      23.912  50.163  47.524  1.00  0.00     0.040 A 
HETATM   29  C   UNL     1      27.220  49.679  48.609  1.00  0.00     0.352 A 
HETATM   30  C   UNL     1      22.789  49.459  47.975  1.00  0.00     0.012 A 
ENDBRANCH  21  22
ENDBRANCH   1  21
BRANCH   2  31
HETATM   31  C   UNL     1      22.629  44.979  48.770  1.00  0.00     0.101 C 
HETATM   32  N   UNL     1      23.021  44.886  50.087  1.00  0.00    -0.351 N 
HETATM   33  H   UNL     1      22.423  45.139  50.864  1.00  0.00     0.166 HD
HETATM   34  C   UNL     1      24.349  44.547  50.190  1.00  0.00     0.043 C 
HETATM   35  C   UNL     1      24.771  44.265  48.901  1.00  0.00     0.033 C 
HETATM   36  C   UNL     1      23.691  44.514  48.017  1.00  0.00     0.037 C 
BRANCH  34  37
HETATM   37  C   UNL     1      25.075  44.557  51.462  1.00  0.00    -0.009 A 
HETATM   38  C   UNL     1      24.975  45.638  52.350  1.00  0.00     0.013 A 
HETATM   39  C   UNL     1      25.715  45.658  53.535  1.00  0.00     0.001 A 
HETATM   40  C   UNL     1      26.563  44.598  53.849  1.00  0.00     0.000 A 
HETATM   41  C   UNL     1      26.663  43.512  52.982  1.00  0.00     0.001 A 
HETATM   42  C   UNL     1      25.922  43.492  51.797  1.00  0.00     0.013 A 
ENDBRANCH  34  37
ENDBRANCH   2  31
TORSDOF 8
ENDMDL
