MODEL 1
REMARK VINA RESULT:      -9.4      0.000      0.000
REMARK  10 active torsions:
REMARK  status: ('A' for Active; 'I' for Inactive)
REMARK    1  A    between atoms: N_15  and  C_16 
REMARK    2  A    between atoms: C_16  and  C_17 
REMARK    3  A    between atoms: C_17  and  N_18 
REMARK       I    between atoms: N_18  and  C_19 
REMARK    4  A    between atoms: C_19  and  C_20 
REMARK    5  A    between atoms: C_20  and  C_21 
REMARK    6  A    between atoms: C_21  and  C_22 
REMARK    7  A    between atoms: C_24  and  C_25 
REMARK    8  A    between atoms: C_29  and  O_30 
REMARK    9  A    between atoms: C_31  and  C_32 
REMARK   10  A    between atoms: C_38  and  O_39 
ROOT
HETATM    1  C   UNL     1      24.576  47.537  50.537  1.00  0.00     0.142 C 
ENDROOT
BRANCH   1   2
HETATM    2  C   UNL     1      24.333  46.035  50.325  1.00  0.00     0.151 C 
BRANCH   2   3
HETATM    3  N   UNL     1      25.561  45.218  50.274  1.00  0.00    -0.291 N 
HETATM    4  C   UNL     1      26.709  45.681  49.697  1.00  0.00     0.366 A 
HETATM    5  O   UNL     1      27.725  44.815  49.937  1.00  0.00    -0.287 OA
HETATM    6  O   UNL     1      26.844  46.701  49.048  1.00  0.00    -0.238 OA
HETATM    7  C   UNL     1      27.300  43.674  50.755  1.00  0.00     0.126 A 
HETATM    8  C   UNL     1      27.578  42.468  49.834  1.00  0.00     0.082 C 
HETATM    9  C   UNL     1      25.788  44.013  51.020  1.00  0.00     0.166 A 
HETATM   10  C   UNL     1      28.299  43.684  51.932  1.00  0.00     0.082 C 
HETATM   11  C   UNL     1      27.687  41.107  50.524  1.00  0.00     0.122 C 
HETATM   12  N   UNL     1      28.707  41.218  51.633  1.00  0.00    -0.059 N 
HETATM   13  C   UNL     1      28.257  40.081  49.521  1.00  0.00     0.046 C 
HETATM   14  C   UNL     1      26.375  40.535  51.060  1.00  0.00     0.046 C 
HETATM   15  C   UNL     1      28.644  42.352  52.629  1.00  0.00     0.122 C 
HETATM   16  H   UNL     1      29.632  41.269  51.176  1.00  0.00     0.279 HD
HETATM   17  H   UNL     1      28.742  40.323  52.145  1.00  0.00     0.279 HD
HETATM   18  C   UNL     1      30.071  42.469  53.220  1.00  0.00     0.046 C 
HETATM   19  C   UNL     1      27.729  41.966  53.794  1.00  0.00     0.046 C 
HETATM   20  C   UNL     1      25.377  44.163  52.479  1.00  0.00     0.074 C 
BRANCH   9  21
HETATM   21  O   UNL     1      24.965  43.038  50.401  1.00  0.00    -0.368 OA
HETATM   22  H   UNL     1      25.283  43.019  49.478  1.00  0.00     0.212 HD
ENDBRANCH   9  21
ENDBRANCH   2   3
ENDBRANCH   1   2
BRANCH   1  23
HETATM   23  N   UNL     1      23.919  48.385  49.555  1.00  0.00    -0.359 N 
HETATM   24  C   UNL     1      24.598  49.396  48.915  1.00  0.00     0.217 C 
HETATM   25  O   UNL     1      25.777  49.645  49.146  1.00  0.00    -0.274 OA
HETATM   26  H   UNL     1      22.913  48.341  49.458  1.00  0.00     0.162 HD
BRANCH  24  27
HETATM   27  C   UNL     1      23.792  50.159  47.879  1.00  0.00     0.107 C 
BRANCH  27  28
HETATM   28  C   UNL     1      22.564  50.886  48.432  1.00  0.00     0.048 C 
BRANCH  28  29
HETATM   29  C   UNL     1      21.185  50.358  48.087  1.00  0.00    -0.057 A 
HETATM   30  C   UNL     1      20.013  51.104  48.240  1.00  0.00     0.018 A 
HETATM   31  C   UNL     1      18.729  50.591  47.955  1.00  0.00    -0.016 A 
HETATM   32  C   UNL     1      18.684  49.278  47.438  1.00  0.00     0.079 A 
HETATM   33  C   UNL     1      19.840  48.483  47.228  1.00  0.00    -0.016 A 
HETATM   34  C   UNL     1      21.077  49.053  47.586  1.00  0.00     0.018 A 
BRANCH  31  35
HETATM   35  C   UNL     1      17.512  51.545  48.115  1.00  0.00    -0.021 C 
HETATM   36  C   UNL     1      17.193  52.137  46.727  1.00  0.00     0.019 C 
HETATM   37  C   UNL     1      16.221  50.901  48.666  1.00  0.00     0.019 C 
HETATM   38  C   UNL     1      17.820  52.717  49.089  1.00  0.00     0.019 C 
ENDBRANCH  31  35
BRANCH  32  39
HETATM   39  O   UNL     1      17.488  48.732  47.074  1.00  0.00    -0.360 OA
HETATM   40  H   UNL     1      17.177  48.215  47.834  1.00  0.00     0.217 HD
ENDBRANCH  32  39
BRANCH  33  41
HETATM   41  C   UNL     1      19.769  47.067  46.597  1.00  0.00    -0.021 C 
HETATM   42  C   UNL     1      21.183  46.448  46.511  1.00  0.00     0.019 C 
HETATM   43  C   UNL     1      18.911  46.065  47.414  1.00  0.00     0.019 C 
HETATM   44  C   UNL     1      19.130  47.121  45.192  1.00  0.00     0.019 C 
ENDBRANCH  33  41
ENDBRANCH  28  29
ENDBRANCH  27  28
ENDBRANCH  24  27
ENDBRANCH   1  23
TORSDOF 10
ENDMDL
MODEL 2
REMARK VINA RESULT:      -9.2      0.125      2.938
REMARK  10 active torsions:
REMARK  status: ('A' for Active; 'I' for Inactive)
REMARK    1  A    between atoms: N_15  and  C_16 
REMARK    2  A    between atoms: C_16  and  C_17 
REMARK    3  A    between atoms: C_17  and  N_18 
REMARK       I    between atoms: N_18  and  C_19 
REMARK    4  A    between atoms: C_19  and  C_20 
REMARK    5  A    between atoms: C_20  and  C_21 
REMARK    6  A    between atoms: C_21  and  C_22 
REMARK    7  A    between atoms: C_24  and  C_25 
REMARK    8  A    between atoms: C_29  and  O_30 
REMARK    9  A    between atoms: C_31  and  C_32 
REMARK   10  A    between atoms: C_38  and  O_39 
ROOT
HETATM    1  C   UNL     1      24.558  47.506  50.556  1.00  0.00     0.142 C 
ENDROOT
BRANCH   1   2
HETATM    2  C   UNL     1      24.330  46.011  50.286  1.00  0.00     0.151 C 
BRANCH   2   3
HETATM    3  N   UNL     1      25.564  45.202  50.250  1.00  0.00    -0.291 N 
HETATM    4  C   UNL     1      26.713  45.667  49.678  1.00  0.00     0.366 A 
HETATM    5  O   UNL     1      27.733  44.810  49.931  1.00  0.00    -0.287 OA
HETATM    6  O   UNL     1      26.846  46.685  49.023  1.00  0.00    -0.238 OA
HETATM    7  C   UNL     1      27.309  43.672  50.754  1.00  0.00     0.126 A 
HETATM    8  C   UNL     1      27.601  42.461  49.844  1.00  0.00     0.082 C 
HETATM    9  C   UNL     1      25.793  44.003  51.006  1.00  0.00     0.166 A 
HETATM   10  C   UNL     1      28.299  43.696  51.938  1.00  0.00     0.082 C 
HETATM   11  C   UNL     1      27.714  41.106  50.544  1.00  0.00     0.122 C 
HETATM   12  N   UNL     1      28.726  41.231  51.659  1.00  0.00    -0.059 N 
HETATM   13  C   UNL     1      28.298  40.077  49.552  1.00  0.00     0.046 C 
HETATM   14  C   UNL     1      26.401  40.529  51.074  1.00  0.00     0.046 C 
HETATM   15  C   UNL     1      28.648  42.372  52.647  1.00  0.00     0.122 C 
HETATM   16  H   UNL     1      29.653  41.285  51.208  1.00  0.00     0.279 HD
HETATM   17  H   UNL     1      28.762  40.340  52.178  1.00  0.00     0.279 HD
HETATM   18  C   UNL     1      30.069  42.501  53.248  1.00  0.00     0.046 C 
HETATM   19  C   UNL     1      27.726  41.987  53.808  1.00  0.00     0.046 C 
HETATM   20  C   UNL     1      25.370  44.160  52.461  1.00  0.00     0.074 C 
BRANCH   9  21
HETATM   21  O   UNL     1      24.981  43.018  50.388  1.00  0.00    -0.368 OA
HETATM   22  H   UNL     1      25.128  42.222  50.934  1.00  0.00     0.212 HD
ENDBRANCH   9  21
ENDBRANCH   2   3
ENDBRANCH   1   2
BRANCH   1  23
HETATM   23  N   UNL     1      23.950  48.383  49.567  1.00  0.00    -0.359 N 
HETATM   24  C   UNL     1      24.673  49.381  48.957  1.00  0.00     0.217 C 
HETATM   25  O   UNL     1      25.852  49.595  49.220  1.00  0.00    -0.274 OA
HETATM   26  H   UNL     1      22.946  48.367  49.443  1.00  0.00     0.162 HD
BRANCH  24  27
HETATM   27  C   UNL     1      23.915  50.177  47.909  1.00  0.00     0.107 C 
BRANCH  27  28
HETATM   28  C   UNL     1      22.638  50.851  48.417  1.00  0.00     0.048 C 
BRANCH  28  29
HETATM   29  C   UNL     1      21.296  50.268  48.018  1.00  0.00    -0.057 A 
HETATM   30  C   UNL     1      21.132  48.963  47.543  1.00  0.00     0.018 A 
HETATM   31  C   UNL     1      19.886  48.441  47.136  1.00  0.00    -0.016 A 
HETATM   32  C   UNL     1      18.773  49.296  47.289  1.00  0.00     0.079 A 
HETATM   33  C   UNL     1      18.869  50.617  47.797  1.00  0.00    -0.016 A 
HETATM   34  C   UNL     1      20.157  51.077  48.133  1.00  0.00     0.018 A 
BRANCH  31  35
HETATM   35  C   UNL     1      19.832  46.956  46.680  1.00  0.00    -0.021 C 
HETATM   36  C   UNL     1      21.271  46.401  46.719  1.00  0.00     0.019 C 
HETATM   37  C   UNL     1      18.939  46.024  47.527  1.00  0.00     0.019 C 
HETATM   38  C   UNL     1      19.292  46.816  45.229  1.00  0.00     0.019 C 
ENDBRANCH  31  35
BRANCH  32  39
HETATM   39  O   UNL     1      17.522  48.845  46.982  1.00  0.00    -0.360 OA
HETATM   40  H   UNL     1      17.022  48.830  47.814  1.00  0.00     0.217 HD
ENDBRANCH  32  39
BRANCH  33  41
HETATM   41  C   UNL     1      17.622  51.514  48.018  1.00  0.00    -0.021 C 
HETATM   42  C   UNL     1      16.480  50.693  48.660  1.00  0.00     0.019 C 
HETATM   43  C   UNL     1      17.878  52.712  48.970  1.00  0.00     0.019 C 
HETATM   44  C   UNL     1      17.143  52.130  46.684  1.00  0.00     0.019 C 
ENDBRANCH  33  41
ENDBRANCH  28  29
ENDBRANCH  27  28
ENDBRANCH  24  27
ENDBRANCH   1  23
TORSDOF 10
ENDMDL
MODEL 3
REMARK VINA RESULT:      -9.2      2.689     10.452
REMARK  10 active torsions:
REMARK  status: ('A' for Active; 'I' for Inactive)
REMARK    1  A    between atoms: N_15  and  C_16 
REMARK    2  A    between atoms: C_16  and  C_17 
REMARK    3  A    between atoms: C_17  and  N_18 
REMARK       I    between atoms: N_18  and  C_19 
REMARK    4  A    between atoms: C_19  and  C_20 
REMARK    5  A    between atoms: C_20  and  C_21 
REMARK    6  A    between atoms: C_21  and  C_22 
REMARK    7  A    between atoms: C_24  and  C_25 
REMARK    8  A    between atoms: C_29  and  O_30 
REMARK    9  A    between atoms: C_31  and  C_32 
REMARK   10  A    between atoms: C_38  and  O_39 
ROOT
HETATM    1  C   UNL     1      21.889  50.546  49.532  1.00  0.00     0.142 C 
ENDROOT
BRANCH   1   2
HETATM    2  C   UNL     1      20.457  50.774  50.039  1.00  0.00     0.151 C 
BRANCH   2   3
HETATM    3  N   UNL     1      19.486  49.751  49.608  1.00  0.00    -0.291 N 
HETATM    4  C   UNL     1      18.668  49.116  50.498  1.00  0.00     0.366 A 
HETATM    5  O   UNL     1      17.761  48.359  49.831  1.00  0.00    -0.287 OA
HETATM    6  O   UNL     1      18.716  49.180  51.712  1.00  0.00    -0.238 OA
HETATM    7  C   UNL     1      17.910  48.470  48.376  1.00  0.00     0.126 A 
HETATM    8  C   UNL     1      18.215  47.019  47.950  1.00  0.00     0.082 C 
HETATM    9  C   UNL     1      19.096  49.496  48.250  1.00  0.00     0.166 A 
HETATM   10  C   UNL     1      16.499  48.878  47.900  1.00  0.00     0.082 C 
HETATM   11  C   UNL     1      17.972  46.687  46.476  1.00  0.00     0.122 C 
HETATM   12  N   UNL     1      16.561  47.094  46.125  1.00  0.00    -0.059 N 
HETATM   13  C   UNL     1      18.033  45.155  46.292  1.00  0.00     0.046 C 
HETATM   14  C   UNL     1      18.967  47.301  45.492  1.00  0.00     0.046 C 
HETATM   15  C   UNL     1      16.040  48.465  46.486  1.00  0.00     0.122 C 
HETATM   16  H   UNL     1      15.937  46.406  46.576  1.00  0.00     0.279 HD
HETATM   17  H   UNL     1      16.408  46.932  45.117  1.00  0.00     0.279 HD
HETATM   18  C   UNL     1      14.497  48.338  46.494  1.00  0.00     0.046 C 
HETATM   19  C   UNL     1      16.382  49.458  45.371  1.00  0.00     0.046 C 
HETATM   20  C   UNL     1      18.795  50.783  47.494  1.00  0.00     0.074 C 
BRANCH   9  21
HETATM   21  O   UNL     1      20.216  48.859  47.659  1.00  0.00    -0.368 OA
HETATM   22  H   UNL     1      20.897  49.559  47.641  1.00  0.00     0.212 HD
ENDBRANCH   9  21
ENDBRANCH   2   3
ENDBRANCH   1   2
BRANCH   1  23
HETATM   23  N   UNL     1      22.420  49.226  49.839  1.00  0.00    -0.359 N 
HETATM   24  C   UNL     1      23.135  48.509  48.908  1.00  0.00     0.217 C 
HETATM   25  O   UNL     1      23.348  48.930  47.776  1.00  0.00    -0.274 OA
HETATM   26  H   UNL     1      22.125  48.760  50.687  1.00  0.00     0.162 HD
BRANCH  24  27
HETATM   27  C   UNL     1      23.669  47.174  49.395  1.00  0.00     0.107 C 
BRANCH  27  28
HETATM   28  C   UNL     1      24.812  47.273  50.408  1.00  0.00     0.048 C 
BRANCH  28  29
HETATM   29  C   UNL     1      25.468  45.996  50.896  1.00  0.00    -0.057 A 
HETATM   30  C   UNL     1      26.126  45.888  52.124  1.00  0.00     0.018 A 
HETATM   31  C   UNL     1      26.770  44.707  52.554  1.00  0.00    -0.016 A 
HETATM   32  C   UNL     1      26.665  43.594  51.693  1.00  0.00     0.079 A 
HETATM   33  C   UNL     1      25.981  43.629  50.451  1.00  0.00    -0.016 A 
HETATM   34  C   UNL     1      25.411  44.861  50.075  1.00  0.00     0.018 A 
BRANCH  31  35
HETATM   35  C   UNL     1      27.418  44.704  53.967  1.00  0.00    -0.021 C 
HETATM   36  C   UNL     1      26.536  43.834  54.886  1.00  0.00     0.019 C 
HETATM   37  C   UNL     1      28.863  44.164  54.043  1.00  0.00     0.019 C 
HETATM   38  C   UNL     1      27.495  46.135  54.571  1.00  0.00     0.019 C 
ENDBRANCH  31  35
BRANCH  32  39
HETATM   39  O   UNL     1      27.202  42.395  52.065  1.00  0.00    -0.360 OA
HETATM   40  H   UNL     1      27.646  42.543  52.915  1.00  0.00     0.217 HD
ENDBRANCH  32  39
BRANCH  33  41
HETATM   41  C   UNL     1      25.824  42.373  49.554  1.00  0.00    -0.021 C 
HETATM   42  C   UNL     1      24.753  42.622  48.468  1.00  0.00     0.019 C 
HETATM   43  C   UNL     1      27.121  41.984  48.796  1.00  0.00     0.019 C 
HETATM   44  C   UNL     1      25.442  41.137  50.398  1.00  0.00     0.019 C 
ENDBRANCH  33  41
ENDBRANCH  28  29
ENDBRANCH  27  28
ENDBRANCH  24  27
ENDBRANCH   1  23
TORSDOF 10
ENDMDL
MODEL 4
REMARK VINA RESULT:      -9.1      2.360     11.859
REMARK  10 active torsions:
REMARK  status: ('A' for Active; 'I' for Inactive)
REMARK    1  A    between atoms: N_15  and  C_16 
REMARK    2  A    between atoms: C_16  and  C_17 
REMARK    3  A    between atoms: C_17  and  N_18 
REMARK       I    between atoms: N_18  and  C_19 
REMARK    4  A    between atoms: C_19  and  C_20 
REMARK    5  A    between atoms: C_20  and  C_21 
REMARK    6  A    between atoms: C_21  and  C_22 
REMARK    7  A    between atoms: C_24  and  C_25 
REMARK    8  A    between atoms: C_29  and  O_30 
REMARK    9  A    between atoms: C_31  and  C_32 
REMARK   10  A    between atoms: C_38  and  O_39 
ROOT
HETATM    1  C   UNL     1      22.352  48.367  48.809  1.00  0.00     0.142 C 
ENDROOT
BRANCH   1   2
HETATM    2  C   UNL     1      20.885  48.448  49.256  1.00  0.00     0.151 C 
BRANCH   2   3
HETATM    3  N   UNL     1      20.216  49.723  48.931  1.00  0.00    -0.291 N 
HETATM    4  C   UNL     1      20.915  50.889  48.801  1.00  0.00     0.366 A 
HETATM    5  O   UNL     1      20.098  51.865  48.334  1.00  0.00    -0.287 OA
HETATM    6  O   UNL     1      22.089  51.073  49.062  1.00  0.00    -0.238 OA
HETATM    7  C   UNL     1      18.737  51.377  48.086  1.00  0.00     0.126 A 
HETATM    8  C   UNL     1      17.882  52.246  49.031  1.00  0.00     0.082 C 
HETATM    9  C   UNL     1      18.865  49.857  48.465  1.00  0.00     0.166 A 
HETATM   10  C   UNL     1      18.475  51.775  46.618  1.00  0.00     0.082 C 
HETATM   11  C   UNL     1      16.391  52.330  48.702  1.00  0.00     0.122 C 
HETATM   12  N   UNL     1      16.246  52.755  47.260  1.00  0.00    -0.059 N 
HETATM   13  C   UNL     1      15.754  53.457  49.545  1.00  0.00     0.046 C 
HETATM   14  C   UNL     1      15.587  51.057  48.968  1.00  0.00     0.046 C 
HETATM   15  C   UNL     1      17.027  52.059  46.169  1.00  0.00     0.122 C 
HETATM   16  H   UNL     1      16.501  53.755  47.222  1.00  0.00     0.279 HD
HETATM   17  H   UNL     1      15.245  52.753  47.010  1.00  0.00     0.279 HD
HETATM   18  C   UNL     1      17.072  53.058  44.986  1.00  0.00     0.046 C 
HETATM   19  C   UNL     1      16.244  50.841  45.671  1.00  0.00     0.046 C 
HETATM   20  C   UNL     1      18.545  48.857  47.361  1.00  0.00     0.074 C 
BRANCH   9  21
HETATM   21  O   UNL     1      18.057  49.577  49.596  1.00  0.00    -0.368 OA
HETATM   22  H   UNL     1      18.596  48.952  50.117  1.00  0.00     0.212 HD
ENDBRANCH   9  21
ENDBRANCH   2   3
ENDBRANCH   1   2
BRANCH   1  23
HETATM   23  N   UNL     1      23.076  47.233  49.362  1.00  0.00    -0.359 N 
HETATM   24  C   UNL     1      24.306  47.391  49.958  1.00  0.00     0.217 C 
HETATM   25  O   UNL     1      24.861  48.482  50.041  1.00  0.00    -0.274 OA
HETATM   26  H   UNL     1      22.750  46.296  49.164  1.00  0.00     0.162 HD
BRANCH  24  27
HETATM   27  C   UNL     1      24.910  46.124  50.534  1.00  0.00     0.107 C 
BRANCH  27  28
HETATM   28  C   UNL     1      25.935  45.434  49.630  1.00  0.00     0.048 C 
BRANCH  28  29
HETATM   29  C   UNL     1      26.678  44.223  50.159  1.00  0.00    -0.057 A 
HETATM   30  C   UNL     1      27.324  44.196  51.399  1.00  0.00     0.018 A 
HETATM   31  C   UNL     1      28.048  43.078  51.867  1.00  0.00    -0.016 A 
HETATM   32  C   UNL     1      28.042  41.939  51.033  1.00  0.00     0.079 A 
HETATM   33  C   UNL     1      27.377  41.893  49.780  1.00  0.00    -0.016 A 
HETATM   34  C   UNL     1      26.721  43.068  49.366  1.00  0.00     0.018 A 
BRANCH  31  35
HETATM   35  C   UNL     1      28.672  43.158  53.288  1.00  0.00    -0.021 C 
HETATM   36  C   UNL     1      27.934  42.142  54.183  1.00  0.00     0.019 C 
HETATM   37  C   UNL     1      30.185  42.859  53.376  1.00  0.00     0.019 C 
HETATM   38  C   UNL     1      28.508  44.572  53.912  1.00  0.00     0.019 C 
ENDBRANCH  31  35
BRANCH  32  39
HETATM   39  O   UNL     1      28.662  40.794  51.442  1.00  0.00    -0.360 OA
HETATM   40  H   UNL     1      29.593  40.875  51.179  1.00  0.00     0.217 HD
ENDBRANCH  32  39
BRANCH  33  41
HETATM   41  C   UNL     1      27.330  40.607  48.913  1.00  0.00    -0.021 C 
HETATM   42  C   UNL     1      26.569  40.879  47.595  1.00  0.00     0.019 C 
HETATM   43  C   UNL     1      28.731  40.084  48.500  1.00  0.00     0.019 C 
HETATM   44  C   UNL     1      26.657  39.448  49.681  1.00  0.00     0.019 C 
ENDBRANCH  33  41
ENDBRANCH  28  29
ENDBRANCH  27  28
ENDBRANCH  24  27
ENDBRANCH   1  23
TORSDOF 10
ENDMDL
MODEL 5
REMARK VINA RESULT:      -9.0      2.391     11.646
REMARK  10 active torsions:
REMARK  status: ('A' for Active; 'I' for Inactive)
REMARK    1  A    between atoms: N_15  and  C_16 
REMARK    2  A    between atoms: C_16  and  C_17 
REMARK    3  A    between atoms: C_17  and  N_18 
REMARK       I    between atoms: N_18  and  C_19 
REMARK    4  A    between atoms: C_19  and  C_20 
REMARK    5  A    between atoms: C_20  and  C_21 
REMARK    6  A    between atoms: C_21  and  C_22 
REMARK    7  A    between atoms: C_24  and  C_25 
REMARK    8  A    between atoms: C_29  and  O_30 
REMARK    9  A    between atoms: C_31  and  C_32 
REMARK   10  A    between atoms: C_38  and  O_39 
ROOT
HETATM    1  C   UNL     1      22.469  48.292  48.410  1.00  0.00     0.142 C 
ENDROOT
BRANCH   1   2
HETATM    2  C   UNL     1      21.153  48.470  49.180  1.00  0.00     0.151 C 
BRANCH   2   3
HETATM    3  N   UNL     1      20.421  49.711  48.861  1.00  0.00    -0.291 N 
HETATM    4  C   UNL     1      21.054  50.917  48.772  1.00  0.00     0.366 A 
HETATM    5  O   UNL     1      20.195  51.855  48.301  1.00  0.00    -0.287 OA
HETATM    6  O   UNL     1      22.209  51.163  49.069  1.00  0.00    -0.238 OA
HETATM    7  C   UNL     1      18.871  51.295  48.006  1.00  0.00     0.126 A 
HETATM    8  C   UNL     1      17.943  52.095  48.944  1.00  0.00     0.082 C 
HETATM    9  C   UNL     1      19.077  49.777  48.360  1.00  0.00     0.166 A 
HETATM   10  C   UNL     1      18.625  51.707  46.539  1.00  0.00     0.082 C 
HETATM   11  C   UNL     1      16.459  52.100  48.576  1.00  0.00     0.122 C 
HETATM   12  N   UNL     1      16.328  52.545  47.138  1.00  0.00    -0.059 N 
HETATM   13  C   UNL     1      15.737  53.171  49.421  1.00  0.00     0.046 C 
HETATM   14  C   UNL     1      15.722  50.778  48.795  1.00  0.00     0.046 C 
HETATM   15  C   UNL     1      17.176  51.918  46.056  1.00  0.00     0.122 C 
HETATM   16  H   UNL     1      16.526  53.558  47.126  1.00  0.00     0.279 HD
HETATM   17  H   UNL     1      15.336  52.491  46.861  1.00  0.00     0.279 HD
HETATM   18  C   UNL     1      17.195  52.941  44.894  1.00  0.00     0.046 C 
HETATM   19  C   UNL     1      16.478  50.667  45.514  1.00  0.00     0.046 C 
HETATM   20  C   UNL     1      18.843  48.784  47.229  1.00  0.00     0.074 C 
BRANCH   9  21
HETATM   21  O   UNL     1      18.256  49.429  49.463  1.00  0.00    -0.368 OA
HETATM   22  H   UNL     1      17.963  50.292  49.814  1.00  0.00     0.212 HD
ENDBRANCH   9  21
ENDBRANCH   2   3
ENDBRANCH   1   2
BRANCH   1  23
HETATM   23  N   UNL     1      23.513  47.624  49.172  1.00  0.00    -0.359 N 
HETATM   24  C   UNL     1      24.694  48.259  49.477  1.00  0.00     0.217 C 
HETATM   25  O   UNL     1      24.936  49.406  49.115  1.00  0.00    -0.274 OA
HETATM   26  H   UNL     1      23.441  46.628  49.340  1.00  0.00     0.162 HD
BRANCH  24  27
HETATM   27  C   UNL     1      25.661  47.450  50.322  1.00  0.00     0.107 C 
BRANCH  27  28
HETATM   28  C   UNL     1      26.318  46.274  49.596  1.00  0.00     0.048 C 
BRANCH  28  29
HETATM   29  C   UNL     1      26.571  44.991  50.362  1.00  0.00    -0.057 A 
HETATM   30  C   UNL     1      26.564  43.725  49.770  1.00  0.00     0.018 A 
HETATM   31  C   UNL     1      26.761  42.532  50.498  1.00  0.00    -0.016 A 
HETATM   32  C   UNL     1      27.033  42.681  51.875  1.00  0.00     0.079 A 
HETATM   33  C   UNL     1      27.088  43.939  52.527  1.00  0.00    -0.016 A 
HETATM   34  C   UNL     1      26.830  45.076  51.738  1.00  0.00     0.018 A 
BRANCH  31  35
HETATM   35  C   UNL     1      26.784  41.193  49.709  1.00  0.00    -0.021 C 
HETATM   36  C   UNL     1      28.259  40.832  49.439  1.00  0.00     0.019 C 
HETATM   37  C   UNL     1      26.120  39.987  50.410  1.00  0.00     0.019 C 
HETATM   38  C   UNL     1      26.051  41.314  48.344  1.00  0.00     0.019 C 
ENDBRANCH  31  35
BRANCH  32  39
HETATM   39  O   UNL     1      27.301  41.581  52.638  1.00  0.00    -0.360 OA
HETATM   40  H   UNL     1      26.787  40.850  52.259  1.00  0.00     0.217 HD
ENDBRANCH  32  39
BRANCH  33  41
HETATM   41  C   UNL     1      27.454  44.080  54.029  1.00  0.00    -0.021 C 
HETATM   42  C   UNL     1      28.785  43.354  54.326  1.00  0.00     0.019 C 
HETATM   43  C   UNL     1      27.655  45.550  54.485  1.00  0.00     0.019 C 
HETATM   44  C   UNL     1      26.331  43.511  54.925  1.00  0.00     0.019 C 
ENDBRANCH  33  41
ENDBRANCH  28  29
ENDBRANCH  27  28
ENDBRANCH  24  27
ENDBRANCH   1  23
TORSDOF 10
ENDMDL
MODEL 6
REMARK VINA RESULT:      -9.0      2.910     12.055
REMARK  10 active torsions:
REMARK  status: ('A' for Active; 'I' for Inactive)
REMARK    1  A    between atoms: N_15  and  C_16 
REMARK    2  A    between atoms: C_16  and  C_17 
REMARK    3  A    between atoms: C_17  and  N_18 
REMARK       I    between atoms: N_18  and  C_19 
REMARK    4  A    between atoms: C_19  and  C_20 
REMARK    5  A    between atoms: C_20  and  C_21 
REMARK    6  A    between atoms: C_21  and  C_22 
REMARK    7  A    between atoms: C_24  and  C_25 
REMARK    8  A    between atoms: C_29  and  O_30 
REMARK    9  A    between atoms: C_31  and  C_32 
REMARK   10  A    between atoms: C_38  and  O_39 
ROOT
HETATM    1  C   UNL     1      22.412  48.477  48.770  1.00  0.00     0.142 C 
ENDROOT
BRANCH   1   2
HETATM    2  C   UNL     1      21.061  48.647  49.479  1.00  0.00     0.151 C 
BRANCH   2   3
HETATM    3  N   UNL     1      20.342  49.889  49.136  1.00  0.00    -0.291 N 
HETATM    4  C   UNL     1      21.005  51.047  48.846  1.00  0.00     0.366 A 
HETATM    5  O   UNL     1      20.128  51.980  48.399  1.00  0.00    -0.287 OA
HETATM    6  O   UNL     1      22.198  51.258  48.966  1.00  0.00    -0.238 OA
HETATM    7  C   UNL     1      18.756  51.465  48.335  1.00  0.00     0.126 A 
HETATM    8  C   UNL     1      17.994  52.396  49.300  1.00  0.00     0.082 C 
HETATM    9  C   UNL     1      18.947  49.978  48.809  1.00  0.00     0.166 A 
HETATM   10  C   UNL     1      18.333  51.750  46.878  1.00  0.00     0.082 C 
HETATM   11  C   UNL     1      16.475  52.444  49.128  1.00  0.00     0.122 C 
HETATM   12  N   UNL     1      16.171  52.760  47.682  1.00  0.00    -0.059 N 
HETATM   13  C   UNL     1      15.915  53.626  49.949  1.00  0.00     0.046 C 
HETATM   14  C   UNL     1      15.723  51.189  49.571  1.00  0.00     0.046 C 
HETATM   15  C   UNL     1      16.841  51.991  46.567  1.00  0.00     0.122 C 
HETATM   16  H   UNL     1      16.405  53.756  47.544  1.00  0.00     0.279 HD
HETATM   17  H   UNL     1      15.149  52.732  47.542  1.00  0.00     0.279 HD
HETATM   18  C   UNL     1      16.745  52.898  45.317  1.00  0.00     0.046 C 
HETATM   19  C   UNL     1      16.028  50.733  46.247  1.00  0.00     0.046 C 
HETATM   20  C   UNL     1      18.526  48.897  47.821  1.00  0.00     0.074 C 
BRANCH   9  21
HETATM   21  O   UNL     1      18.268  49.778  50.037  1.00  0.00    -0.368 OA
HETATM   22  H   UNL     1      17.357  50.074  49.848  1.00  0.00     0.212 HD
ENDBRANCH   9  21
ENDBRANCH   2   3
ENDBRANCH   1   2
BRANCH   1  23
HETATM   23  N   UNL     1      23.093  47.231  49.088  1.00  0.00    -0.359 N 
HETATM   24  C   UNL     1      24.331  47.226  49.687  1.00  0.00     0.217 C 
HETATM   25  O   UNL     1      24.930  48.260  49.969  1.00  0.00    -0.274 OA
HETATM   26  H   UNL     1      22.729  46.362  48.720  1.00  0.00     0.162 HD
BRANCH  24  27
HETATM   27  C   UNL     1      24.887  45.850  50.005  1.00  0.00     0.107 C 
BRANCH  27  28
HETATM   28  C   UNL     1      24.644  45.377  51.440  1.00  0.00     0.048 C 
BRANCH  28  29
HETATM   29  C   UNL     1      25.840  45.107  52.333  1.00  0.00    -0.057 A 
HETATM   30  C   UNL     1      26.635  43.962  52.232  1.00  0.00     0.018 A 
HETATM   31  C   UNL     1      27.722  43.698  53.093  1.00  0.00    -0.016 A 
HETATM   32  C   UNL     1      28.015  44.696  54.047  1.00  0.00     0.079 A 
HETATM   33  C   UNL     1      27.268  45.895  54.177  1.00  0.00    -0.016 A 
HETATM   34  C   UNL     1      26.169  46.056  53.312  1.00  0.00     0.018 A 
BRANCH  31  35
HETATM   35  C   UNL     1      28.559  42.414  52.837  1.00  0.00    -0.021 C 
HETATM   36  C   UNL     1      28.236  41.919  51.412  1.00  0.00     0.019 C 
HETATM   37  C   UNL     1      30.091  42.576  52.949  1.00  0.00     0.019 C 
HETATM   38  C   UNL     1      28.203  41.282  53.842  1.00  0.00     0.019 C 
ENDBRANCH  31  35
BRANCH  32  39
HETATM   39  O   UNL     1      29.091  44.550  54.874  1.00  0.00    -0.360 OA
HETATM   40  H   UNL     1      28.845  43.879  55.531  1.00  0.00     0.217 HD
ENDBRANCH  32  39
BRANCH  33  41
HETATM   41  C   UNL     1      27.651  47.006  55.190  1.00  0.00    -0.021 C 
HETATM   42  C   UNL     1      28.786  47.885  54.617  1.00  0.00     0.019 C 
HETATM   43  C   UNL     1      26.485  47.974  55.523  1.00  0.00     0.019 C 
HETATM   44  C   UNL     1      28.089  46.394  56.540  1.00  0.00     0.019 C 
ENDBRANCH  33  41
ENDBRANCH  28  29
ENDBRANCH  27  28
ENDBRANCH  24  27
ENDBRANCH   1  23
TORSDOF 10
ENDMDL
MODEL 7
REMARK VINA RESULT:      -8.9      1.479      3.105
REMARK  10 active torsions:
REMARK  status: ('A' for Active; 'I' for Inactive)
REMARK    1  A    between atoms: N_15  and  C_16 
REMARK    2  A    between atoms: C_16  and  C_17 
REMARK    3  A    between atoms: C_17  and  N_18 
REMARK       I    between atoms: N_18  and  C_19 
REMARK    4  A    between atoms: C_19  and  C_20 
REMARK    5  A    between atoms: C_20  and  C_21 
REMARK    6  A    between atoms: C_21  and  C_22 
REMARK    7  A    between atoms: C_24  and  C_25 
REMARK    8  A    between atoms: C_29  and  O_30 
REMARK    9  A    between atoms: C_31  and  C_32 
REMARK   10  A    between atoms: C_38  and  O_39 
ROOT
HETATM    1  C   UNL     1      23.217  45.200  48.986  1.00  0.00     0.142 C 
ENDROOT
BRANCH   1   2
HETATM    2  C   UNL     1      24.105  45.548  50.190  1.00  0.00     0.151 C 
BRANCH   2   3
HETATM    3  N   UNL     1      25.415  44.868  50.199  1.00  0.00    -0.291 N 
HETATM    4  C   UNL     1      26.534  45.456  49.681  1.00  0.00     0.366 A 
HETATM    5  O   UNL     1      27.625  44.703  49.970  1.00  0.00    -0.287 OA
HETATM    6  O   UNL     1      26.590  46.490  49.042  1.00  0.00    -0.238 OA
HETATM    7  C   UNL     1      27.285  43.517  50.764  1.00  0.00     0.126 A 
HETATM    8  C   UNL     1      27.736  42.354  49.856  1.00  0.00     0.082 C 
HETATM    9  C   UNL     1      25.733  43.689  50.954  1.00  0.00     0.166 A 
HETATM   10  C   UNL     1      28.217  43.626  51.990  1.00  0.00     0.082 C 
HETATM   11  C   UNL     1      27.957  41.008  50.548  1.00  0.00     0.122 C 
HETATM   12  N   UNL     1      28.903  41.220  51.707  1.00  0.00    -0.059 N 
HETATM   13  C   UNL     1      28.684  40.057  49.573  1.00  0.00     0.046 C 
HETATM   14  C   UNL     1      26.689  40.294  51.017  1.00  0.00     0.046 C 
HETATM   15  C   UNL     1      28.669  42.334  52.701  1.00  0.00     0.122 C 
HETATM   16  H   UNL     1      29.838  41.374  51.297  1.00  0.00     0.279 HD
HETATM   17  H   UNL     1      29.009  40.330  52.219  1.00  0.00     0.279 HD
HETATM   18  C   UNL     1      30.043  42.599  53.363  1.00  0.00     0.046 C 
HETATM   19  C   UNL     1      27.743  41.843  53.818  1.00  0.00     0.046 C 
HETATM   20  C   UNL     1      25.236  43.783  52.390  1.00  0.00     0.074 C 
BRANCH   9  21
HETATM   21  O   UNL     1      25.052  42.635  50.293  1.00  0.00    -0.368 OA
HETATM   22  H   UNL     1      24.244  43.063  49.949  1.00  0.00     0.212 HD
ENDBRANCH   9  21
ENDBRANCH   2   3
ENDBRANCH   1   2
BRANCH   1  23
HETATM   23  N   UNL     1      21.848  45.677  49.105  1.00  0.00    -0.359 N 
HETATM   24  C   UNL     1      20.810  45.038  48.467  1.00  0.00     0.217 C 
HETATM   25  O   UNL     1      20.982  44.052  47.757  1.00  0.00    -0.274 OA
HETATM   26  H   UNL     1      21.675  46.580  49.527  1.00  0.00     0.162 HD
BRANCH  24  27
HETATM   27  C   UNL     1      19.434  45.622  48.731  1.00  0.00     0.107 C 
BRANCH  27  28
HETATM   28  C   UNL     1      18.931  46.587  47.655  1.00  0.00     0.048 C 
BRANCH  28  29
HETATM   29  C   UNL     1      19.143  48.076  47.852  1.00  0.00    -0.057 A 
HETATM   30  C   UNL     1      18.152  49.034  47.618  1.00  0.00     0.018 A 
HETATM   31  C   UNL     1      18.370  50.420  47.765  1.00  0.00    -0.016 A 
HETATM   32  C   UNL     1      19.647  50.804  48.227  1.00  0.00     0.079 A 
HETATM   33  C   UNL     1      20.683  49.879  48.516  1.00  0.00    -0.016 A 
HETATM   34  C   UNL     1      20.398  48.517  48.294  1.00  0.00     0.018 A 
BRANCH  31  35
HETATM   35  C   UNL     1      17.167  51.375  47.526  1.00  0.00    -0.021 C 
HETATM   36  C   UNL     1      15.918  50.505  47.280  1.00  0.00     0.019 C 
HETATM   37  C   UNL     1      16.846  52.354  48.678  1.00  0.00     0.019 C 
HETATM   38  C   UNL     1      17.386  52.282  46.282  1.00  0.00     0.019 C 
ENDBRANCH  31  35
BRANCH  32  39
HETATM   39  O   UNL     1      19.918  52.122  48.460  1.00  0.00    -0.360 OA
HETATM   40  H   UNL     1      19.100  52.515  48.804  1.00  0.00     0.217 HD
ENDBRANCH  32  39
BRANCH  33  41
HETATM   41  C   UNL     1      22.056  50.322  49.086  1.00  0.00    -0.021 C 
HETATM   42  C   UNL     1      21.865  51.050  50.436  1.00  0.00     0.019 C 
HETATM   43  C   UNL     1      23.023  49.141  49.368  1.00  0.00     0.019 C 
HETATM   44  C   UNL     1      22.795  51.243  48.090  1.00  0.00     0.019 C 
ENDBRANCH  33  41
ENDBRANCH  28  29
ENDBRANCH  27  28
ENDBRANCH  24  27
ENDBRANCH   1  23
TORSDOF 10
ENDMDL
MODEL 8
REMARK VINA RESULT:      -8.9      3.003     10.227
REMARK  10 active torsions:
REMARK  status: ('A' for Active; 'I' for Inactive)
REMARK    1  A    between atoms: N_15  and  C_16 
REMARK    2  A    between atoms: C_16  and  C_17 
REMARK    3  A    between atoms: C_17  and  N_18 
REMARK       I    between atoms: N_18  and  C_19 
REMARK    4  A    between atoms: C_19  and  C_20 
REMARK    5  A    between atoms: C_20  and  C_21 
REMARK    6  A    between atoms: C_21  and  C_22 
REMARK    7  A    between atoms: C_24  and  C_25 
REMARK    8  A    between atoms: C_29  and  O_30 
REMARK    9  A    between atoms: C_31  and  C_32 
REMARK   10  A    between atoms: C_38  and  O_39 
ROOT
HETATM    1  C   UNL     1      21.195  50.886  50.131  1.00  0.00     0.142 C 
ENDROOT
BRANCH   1   2
HETATM    2  C   UNL     1      19.983  51.264  49.267  1.00  0.00     0.151 C 
BRANCH   2   3
HETATM    3  N   UNL     1      19.077  50.141  48.959  1.00  0.00    -0.291 N 
HETATM    4  C   UNL     1      18.273  49.583  49.911  1.00  0.00     0.366 A 
HETATM    5  O   UNL     1      17.424  48.697  49.334  1.00  0.00    -0.287 OA
HETATM    6  O   UNL     1      18.288  49.809  51.107  1.00  0.00    -0.238 OA
HETATM    7  C   UNL     1      17.602  48.624  47.880  1.00  0.00     0.126 A 
HETATM    8  C   UNL     1      17.994  47.149  47.655  1.00  0.00     0.082 C 
HETATM    9  C   UNL     1      18.735  49.688  47.640  1.00  0.00     0.166 A 
HETATM   10  C   UNL     1      16.184  48.887  47.330  1.00  0.00     0.082 C 
HETATM   11  C   UNL     1      17.805  46.613  46.234  1.00  0.00     0.122 C 
HETATM   12  N   UNL     1      16.383  46.892  45.808  1.00  0.00    -0.059 N 
HETATM   13  C   UNL     1      17.951  45.076  46.255  1.00  0.00     0.046 C 
HETATM   14  C   UNL     1      18.790  47.147  45.194  1.00  0.00     0.046 C 
HETATM   15  C   UNL     1      15.782  48.268  45.976  1.00  0.00     0.122 C 
HETATM   16  H   UNL     1      15.785  46.235  46.335  1.00  0.00     0.279 HD
HETATM   17  H   UNL     1      16.264  46.591  44.828  1.00  0.00     0.279 HD
HETATM   18  C   UNL     1      14.248  48.057  45.974  1.00  0.00     0.046 C 
HETATM   19  C   UNL     1      16.098  49.123  44.746  1.00  0.00     0.046 C 
HETATM   20  C   UNL     1      18.385  50.847  46.716  1.00  0.00     0.074 C 
BRANCH   9  21
HETATM   21  O   UNL     1      19.902  49.043  47.158  1.00  0.00    -0.368 OA
HETATM   22  H   UNL     1      19.553  48.294  46.637  1.00  0.00     0.212 HD
ENDBRANCH   9  21
ENDBRANCH   2   3
ENDBRANCH   1   2
BRANCH   1  23
HETATM   23  N   UNL     1      21.967  49.769  49.608  1.00  0.00    -0.359 N 
HETATM   24  C   UNL     1      23.263  49.936  49.179  1.00  0.00     0.217 C 
HETATM   25  O   UNL     1      23.828  51.025  49.198  1.00  0.00    -0.274 OA
HETATM   26  H   UNL     1      21.498  48.896  49.405  1.00  0.00     0.162 HD
BRANCH  24  27
HETATM   27  C   UNL     1      23.955  48.667  48.711  1.00  0.00     0.107 C 
BRANCH  27  28
HETATM   28  C   UNL     1      25.113  48.206  49.598  1.00  0.00     0.048 C 
BRANCH  28  29
HETATM   29  C   UNL     1      25.053  46.823  50.218  1.00  0.00    -0.057 A 
HETATM   30  C   UNL     1      24.626  45.686  49.526  1.00  0.00     0.018 A 
HETATM   31  C   UNL     1      24.535  44.409  50.122  1.00  0.00    -0.016 A 
HETATM   32  C   UNL     1      24.962  44.317  51.464  1.00  0.00     0.079 A 
HETATM   33  C   UNL     1      25.438  45.426  52.209  1.00  0.00    -0.016 A 
HETATM   34  C   UNL     1      25.449  46.673  51.555  1.00  0.00     0.018 A 
BRANCH  31  35
HETATM   35  C   UNL     1      24.097  43.217  49.225  1.00  0.00    -0.021 C 
HETATM   36  C   UNL     1      25.316  42.289  49.050  1.00  0.00     0.019 C 
HETATM   37  C   UNL     1      22.925  42.367  49.762  1.00  0.00     0.019 C 
HETATM   38  C   UNL     1      23.635  43.691  47.818  1.00  0.00     0.019 C 
ENDBRANCH  31  35
BRANCH  32  39
HETATM   39  O   UNL     1      24.969  43.106  52.093  1.00  0.00    -0.360 OA
HETATM   40  H   UNL     1      24.041  42.881  52.270  1.00  0.00     0.217 HD
ENDBRANCH  32  39
BRANCH  33  41
HETATM   41  C   UNL     1      25.964  45.286  53.662  1.00  0.00    -0.021 C 
HETATM   42  C   UNL     1      26.086  46.677  54.323  1.00  0.00     0.019 C 
HETATM   43  C   UNL     1      25.033  44.453  54.582  1.00  0.00     0.019 C 
HETATM   44  C   UNL     1      27.332  44.569  53.686  1.00  0.00     0.019 C 
ENDBRANCH  33  41
ENDBRANCH  28  29
ENDBRANCH  27  28
ENDBRANCH  24  27
ENDBRANCH   1  23
TORSDOF 10
ENDMDL
MODEL 9
REMARK VINA RESULT:      -8.9      2.969     10.799
REMARK  10 active torsions:
REMARK  status: ('A' for Active; 'I' for Inactive)
REMARK    1  A    between atoms: N_15  and  C_16 
REMARK    2  A    between atoms: C_16  and  C_17 
REMARK    3  A    between atoms: C_17  and  N_18 
REMARK       I    between atoms: N_18  and  C_19 
REMARK    4  A    between atoms: C_19  and  C_20 
REMARK    5  A    between atoms: C_20  and  C_21 
REMARK    6  A    between atoms: C_21  and  C_22 
REMARK    7  A    between atoms: C_24  and  C_25 
REMARK    8  A    between atoms: C_29  and  O_30 
REMARK    9  A    between atoms: C_31  and  C_32 
REMARK   10  A    between atoms: C_38  and  O_39 
ROOT
HETATM    1  C   UNL     1      22.111  43.588  48.053  1.00  0.00     0.142 C 
ENDROOT
BRANCH   1   2
HETATM    2  C   UNL     1      20.849  44.091  47.336  1.00  0.00     0.151 C 
BRANCH   2   3
HETATM    3  N   UNL     1      20.667  45.554  47.375  1.00  0.00    -0.291 N 
HETATM    4  C   UNL     1      21.308  46.383  46.499  1.00  0.00     0.366 A 
HETATM    5  O   UNL     1      20.838  47.648  46.633  1.00  0.00    -0.287 OA
HETATM    6  O   UNL     1      22.182  46.078  45.708  1.00  0.00    -0.238 OA
HETATM    7  C   UNL     1      19.778  47.741  47.644  1.00  0.00     0.126 A 
HETATM    8  C   UNL     1      20.370  48.725  48.673  1.00  0.00     0.082 C 
HETATM    9  C   UNL     1      19.644  46.244  48.109  1.00  0.00     0.166 A 
HETATM   10  C   UNL     1      18.613  48.407  46.882  1.00  0.00     0.082 C 
HETATM   11  C   UNL     1      19.367  49.402  49.609  1.00  0.00     0.122 C 
HETATM   12  N   UNL     1      18.292  50.046  48.765  1.00  0.00    -0.059 N 
HETATM   13  C   UNL     1      20.075  50.556  50.351  1.00  0.00     0.046 C 
HETATM   14  C   UNL     1      18.743  48.496  50.670  1.00  0.00     0.046 C 
HETATM   15  C   UNL     1      17.604  49.269  47.667  1.00  0.00     0.122 C 
HETATM   16  H   UNL     1      18.723  50.874  48.324  1.00  0.00     0.279 HD
HETATM   17  H   UNL     1      17.576  50.451  49.389  1.00  0.00     0.279 HD
HETATM   18  C   UNL     1      17.020  50.333  46.705  1.00  0.00     0.046 C 
HETATM   19  C   UNL     1      16.405  48.512  48.245  1.00  0.00     0.046 C 
HETATM   20  C   UNL     1      18.277  45.600  47.920  1.00  0.00     0.074 C 
BRANCH   9  21
HETATM   21  O   UNL     1      20.029  46.132  49.469  1.00  0.00    -0.368 OA
HETATM   22  H   UNL     1      19.202  45.875  49.922  1.00  0.00     0.212 HD
ENDBRANCH   9  21
ENDBRANCH   2   3
ENDBRANCH   1   2
BRANCH   1  23
HETATM   23  N   UNL     1      22.851  44.631  48.747  1.00  0.00    -0.359 N 
HETATM   24  C   UNL     1      24.194  44.498  49.014  1.00  0.00     0.217 C 
HETATM   25  O   UNL     1      24.831  43.499  48.699  1.00  0.00    -0.274 OA
HETATM   26  H   UNL     1      22.343  45.390  49.183  1.00  0.00     0.162 HD
BRANCH  24  27
HETATM   27  C   UNL     1      24.836  45.693  49.695  1.00  0.00     0.107 C 
BRANCH  27  28
HETATM   28  C   UNL     1      24.619  45.759  51.209  1.00  0.00     0.048 C 
BRANCH  28  29
HETATM   29  C   UNL     1      25.768  45.394  52.129  1.00  0.00    -0.057 A 
HETATM   30  C   UNL     1      26.497  44.206  52.018  1.00  0.00     0.018 A 
HETATM   31  C   UNL     1      27.539  43.854  52.903  1.00  0.00    -0.016 A 
HETATM   32  C   UNL     1      27.861  44.807  53.893  1.00  0.00     0.079 A 
HETATM   33  C   UNL     1      27.184  46.045  54.035  1.00  0.00    -0.016 A 
HETATM   34  C   UNL     1      26.123  46.294  53.143  1.00  0.00     0.018 A 
BRANCH  31  35
HETATM   35  C   UNL     1      28.305  42.529  52.635  1.00  0.00    -0.021 C 
HETATM   36  C   UNL     1      27.923  42.042  51.222  1.00  0.00     0.019 C 
HETATM   37  C   UNL     1      29.846  42.616  52.708  1.00  0.00     0.019 C 
HETATM   38  C   UNL     1      27.919  41.422  53.656  1.00  0.00     0.019 C 
ENDBRANCH  31  35
BRANCH  32  39
HETATM   39  O   UNL     1      28.901  44.574  54.747  1.00  0.00    -0.360 OA
HETATM   40  H   UNL     1      29.328  45.432  54.902  1.00  0.00     0.217 HD
ENDBRANCH  32  39
BRANCH  33  41
HETATM   41  C   UNL     1      27.601  47.103  55.090  1.00  0.00    -0.021 C 
HETATM   42  C   UNL     1      26.438  48.087  55.350  1.00  0.00     0.019 C 
HETATM   43  C   UNL     1      27.966  46.495  56.470  1.00  0.00     0.019 C 
HETATM   44  C   UNL     1      28.854  47.879  54.626  1.00  0.00     0.019 C 
ENDBRANCH  33  41
ENDBRANCH  28  29
ENDBRANCH  27  28
ENDBRANCH  24  27
ENDBRANCH   1  23
TORSDOF 10
ENDMDL
MODEL 10
REMARK VINA RESULT:      -8.8      2.598     10.552
REMARK  10 active torsions:
REMARK  status: ('A' for Active; 'I' for Inactive)
REMARK    1  A    between atoms: N_15  and  C_16 
REMARK    2  A    between atoms: C_16  and  C_17 
REMARK    3  A    between atoms: C_17  and  N_18 
REMARK       I    between atoms: N_18  and  C_19 
REMARK    4  A    between atoms: C_19  and  C_20 
REMARK    5  A    between atoms: C_20  and  C_21 
REMARK    6  A    between atoms: C_21  and  C_22 
REMARK    7  A    between atoms: C_24  and  C_25 
REMARK    8  A    between atoms: C_29  and  O_30 
REMARK    9  A    between atoms: C_31  and  C_32 
REMARK   10  A    between atoms: C_38  and  O_39 
ROOT
HETATM    1  C   UNL     1      21.554  44.542  48.989  1.00  0.00     0.142 C 
ENDROOT
BRANCH   1   2
HETATM    2  C   UNL     1      20.413  44.796  47.994  1.00  0.00     0.151 C 
BRANCH   2   3
HETATM    3  N   UNL     1      20.168  46.220  47.695  1.00  0.00    -0.291 N 
HETATM    4  C   UNL     1      20.743  46.839  46.622  1.00  0.00     0.366 A 
HETATM    5  O   UNL     1      20.222  48.083  46.475  1.00  0.00    -0.287 OA
HETATM    6  O   UNL     1      21.602  46.386  45.888  1.00  0.00    -0.238 OA
HETATM    7  C   UNL     1      19.194  48.376  47.480  1.00  0.00     0.126 A 
HETATM    8  C   UNL     1      19.777  49.596  48.223  1.00  0.00     0.082 C 
HETATM    9  C   UNL     1      19.141  47.029  48.289  1.00  0.00     0.166 A 
HETATM   10  C   UNL     1      17.976  48.802  46.633  1.00  0.00     0.082 C 
HETATM   11  C   UNL     1      18.777  50.440  49.015  1.00  0.00     0.122 C 
HETATM   12  N   UNL     1      17.647  50.829  48.090  1.00  0.00    -0.059 N 
HETATM   13  C   UNL     1      19.459  51.761  49.434  1.00  0.00     0.046 C 
HETATM   14  C   UNL     1      18.229  49.790  50.285  1.00  0.00     0.046 C 
HETATM   15  C   UNL     1      16.957  49.791  47.237  1.00  0.00     0.122 C 
HETATM   16  H   UNL     1      18.026  51.543  47.448  1.00  0.00     0.279 HD
HETATM   17  H   UNL     1      16.936  51.345  48.631  1.00  0.00     0.279 HD
HETATM   18  C   UNL     1      16.296  50.575  46.077  1.00  0.00     0.046 C 
HETATM   19  C   UNL     1      15.812  49.150  48.027  1.00  0.00     0.046 C 
HETATM   20  C   UNL     1      17.798  46.311  48.316  1.00  0.00     0.074 C 
BRANCH   9  21
HETATM   21  O   UNL     1      19.576  47.255  49.620  1.00  0.00    -0.368 OA
HETATM   22  H   UNL     1      19.254  46.470  50.104  1.00  0.00     0.212 HD
ENDBRANCH   9  21
ENDBRANCH   2   3
ENDBRANCH   1   2
BRANCH   1  23
HETATM   23  N   UNL     1      22.533  43.568  48.530  1.00  0.00    -0.359 N 
HETATM   24  C   UNL     1      23.060  42.628  49.384  1.00  0.00     0.217 C 
HETATM   25  O   UNL     1      22.750  42.568  50.569  1.00  0.00    -0.274 OA
HETATM   26  H   UNL     1      22.953  43.684  47.617  1.00  0.00     0.162 HD
BRANCH  24  27
HETATM   27  C   UNL     1      24.028  41.648  48.744  1.00  0.00     0.107 C 
BRANCH  27  28
HETATM   28  C   UNL     1      25.468  42.152  48.632  1.00  0.00     0.048 C 
BRANCH  28  29
HETATM   29  C   UNL     1      26.034  43.003  49.753  1.00  0.00    -0.057 A 
HETATM   30  C   UNL     1      25.701  44.347  49.944  1.00  0.00     0.018 A 
HETATM   31  C   UNL     1      26.262  45.143  50.965  1.00  0.00    -0.016 A 
HETATM   32  C   UNL     1      27.152  44.490  51.845  1.00  0.00     0.079 A 
HETATM   33  C   UNL     1      27.503  43.121  51.725  1.00  0.00    -0.016 A 
HETATM   34  C   UNL     1      26.937  42.412  50.648  1.00  0.00     0.018 A 
BRANCH  31  35
HETATM   35  C   UNL     1      25.765  46.610  51.102  1.00  0.00    -0.021 C 
HETATM   36  C   UNL     1      24.430  46.726  50.337  1.00  0.00     0.019 C 
HETATM   37  C   UNL     1      25.532  47.109  52.545  1.00  0.00     0.019 C 
HETATM   38  C   UNL     1      26.772  47.622  50.487  1.00  0.00     0.019 C 
ENDBRANCH  31  35
BRANCH  32  39
HETATM   39  O   UNL     1      27.687  45.172  52.900  1.00  0.00    -0.360 OA
HETATM   40  H   UNL     1      27.300  46.062  52.879  1.00  0.00     0.217 HD
ENDBRANCH  32  39
BRANCH  33  41
HETATM   41  C   UNL     1      28.432  42.410  52.745  1.00  0.00    -0.021 C 
HETATM   42  C   UNL     1      28.620  40.927  52.353  1.00  0.00     0.019 C 
HETATM   43  C   UNL     1      29.857  43.020  52.817  1.00  0.00     0.019 C 
HETATM   44  C   UNL     1      27.858  42.509  54.176  1.00  0.00     0.019 C 
ENDBRANCH  33  41
ENDBRANCH  28  29
ENDBRANCH  27  28
ENDBRANCH  24  27
ENDBRANCH   1  23
TORSDOF 10
ENDMDL
