MODEL 1
REMARK VINA RESULT:     -11.2      0.000      0.000
REMARK  8 active torsions:
REMARK  status: ('A' for Active; 'I' for Inactive)
REMARK    1  A    between atoms: C_2  and  O_3 
REMARK    2  A    between atoms: O_3  and  C_4 
REMARK    3  A    between atoms: C_7  and  N_8 
REMARK       I    between atoms: N_8  and  C_9 
REMARK    4  A    between atoms: C_9  and  C_10 
REMARK    5  A    between atoms: C_12  and  N_13 
REMARK    6  A    between atoms: N_16  and  C_18 
REMARK    7  A    between atoms: C_18  and  C_19 
REMARK    8  A    between atoms: C_18  and  C_25 
ROOT
HETATM    1  C   UNL     1      25.507  41.036  49.833  1.00  0.00     0.164 C 
HETATM    2  N   UNL     1      26.147  41.033  51.161  1.00  0.00    -0.249 NA
HETATM    3  C   UNL     1      27.510  41.066  51.210  1.00  0.00     0.181 C 
HETATM    4  N   UNL     1      28.274  40.890  50.179  1.00  0.00    -0.185 NA
HETATM    5  C   UNL     1      27.695  40.672  48.960  1.00  0.00     0.247 C 
HETATM    6  O   UNL     1      28.229  40.991  47.900  1.00  0.00    -0.271 OA
HETATM    7  C   UNL     1      26.301  40.119  48.940  1.00  0.00     0.134 C 
HETATM    8  H   UNL     1      25.678  41.719  51.748  1.00  0.00     0.131 HD
ENDROOT
BRANCH   3   9
HETATM    9  N   UNL     1      28.058  41.307  52.448  1.00  0.00    -0.353 N 
HETATM   10  C   UNL     1      27.314  41.619  53.674  1.00  0.00     0.153 C 
HETATM   11  C   UNL     1      27.493  43.112  54.024  1.00  0.00     0.256 C 
HETATM   12  N   UNL     1      28.983  43.448  54.143  1.00  0.00    -0.056 N 
HETATM   13  H   UNL     1      29.385  42.825  54.846  1.00  0.00     0.281 HD
HETATM   14  C   UNL     1      29.717  43.078  52.846  1.00  0.00     0.256 C 
HETATM   15  C   UNL     1      29.506  41.579  52.553  1.00  0.00     0.153 C 
BRANCH  12  16
HETATM   16  C   UNL     1      29.290  44.868  54.638  1.00  0.00     0.254 C 
BRANCH  16  17
HETATM   17  C   UNL     1      28.083  45.795  54.503  1.00  0.00    -0.023 A 
HETATM   18  C   UNL     1      27.077  45.577  53.542  1.00  0.00     0.009 A 
HETATM   19  C   UNL     1      26.006  46.462  53.413  1.00  0.00     0.001 A 
HETATM   20  C   UNL     1      25.918  47.576  54.243  1.00  0.00     0.000 A 
HETATM   21  C   UNL     1      26.895  47.802  55.210  1.00  0.00     0.001 A 
HETATM   22  C   UNL     1      27.968  46.920  55.343  1.00  0.00     0.009 A 
ENDBRANCH  16  17
BRANCH  16  23
HETATM   23  C   UNL     1      30.023  44.929  55.992  1.00  0.00    -0.023 A 
HETATM   24  C   UNL     1      29.703  45.863  56.998  1.00  0.00     0.009 A 
HETATM   25  C   UNL     1      30.353  45.847  58.237  1.00  0.00     0.001 A 
HETATM   26  C   UNL     1      31.323  44.891  58.509  1.00  0.00     0.000 A 
HETATM   27  C   UNL     1      31.636  43.937  57.549  1.00  0.00     0.001 A 
HETATM   28  C   UNL     1      30.983  43.945  56.313  1.00  0.00     0.009 A 
ENDBRANCH  16  23
ENDBRANCH  12  16
ENDBRANCH   3   9
BRANCH   1  29
HETATM   29  C   UNL     1      25.335  42.525  49.404  1.00  0.00     0.240 C 
HETATM   30  N   UNL     1      25.665  43.497  50.326  1.00  0.00    -0.326 N 
HETATM   31  H   UNL     1      25.805  43.233  51.298  1.00  0.00     0.169 HD
HETATM   32  O   UNL     1      24.859  42.740  48.283  1.00  0.00    -0.271 OA
BRANCH  30  33
HETATM   33  C   UNL     1      25.611  44.896  50.135  1.00  0.00     0.034 A 
HETATM   34  C   UNL     1      26.722  45.691  49.853  1.00  0.00     0.032 A 
HETATM   35  C   UNL     1      26.582  47.077  49.685  1.00  0.00     0.039 A 
HETATM   36  C   UNL     1      25.329  47.677  49.790  1.00  0.00     0.068 A 
HETATM   37  C   UNL     1      24.220  46.883  50.080  1.00  0.00     0.039 A 
HETATM   38  C   UNL     1      24.359  45.506  50.263  1.00  0.00     0.032 A 
BRANCH  36  39
HETATM   39  O   UNL     1      25.050  49.004  49.628  1.00  0.00    -0.352 OA
BRANCH  39  40
HETATM   40  C   UNL     1      25.273  49.568  48.337  1.00  0.00     0.171 C 
HETATM   41  C   UNL     1      24.042  50.374  47.962  1.00  0.00     0.034 C 
ENDBRANCH  39  40
ENDBRANCH  36  39
ENDBRANCH  30  33
ENDBRANCH   1  29
TORSDOF 8
ENDMDL
MODEL 2
REMARK VINA RESULT:      -9.9      3.889      9.178
REMARK  8 active torsions:
REMARK  status: ('A' for Active; 'I' for Inactive)
REMARK    1  A    between atoms: C_2  and  O_3 
REMARK    2  A    between atoms: O_3  and  C_4 
REMARK    3  A    between atoms: C_7  and  N_8 
REMARK       I    between atoms: N_8  and  C_9 
REMARK    4  A    between atoms: C_9  and  C_10 
REMARK    5  A    between atoms: C_12  and  N_13 
REMARK    6  A    between atoms: N_16  and  C_18 
REMARK    7  A    between atoms: C_18  and  C_19 
REMARK    8  A    between atoms: C_18  and  C_25 
ROOT
HETATM    1  C   UNL     1      23.552  42.755  46.191  1.00  0.00     0.164 C 
HETATM    2  N   UNL     1      22.627  43.897  46.079  1.00  0.00    -0.249 NA
HETATM    3  C   UNL     1      21.347  43.724  46.520  1.00  0.00     0.181 C 
HETATM    4  N   UNL     1      20.840  42.574  46.832  1.00  0.00    -0.185 NA
HETATM    5  C   UNL     1      21.626  41.460  46.732  1.00  0.00     0.247 C 
HETATM    6  O   UNL     1      21.465  40.466  47.437  1.00  0.00    -0.271 OA
HETATM    7  C   UNL     1      22.796  41.513  45.797  1.00  0.00     0.134 C 
HETATM    8  H   UNL     1      23.095  44.729  46.431  1.00  0.00     0.131 HD
ENDROOT
BRANCH   3   9
HETATM    9  N   UNL     1      20.592  44.869  46.625  1.00  0.00    -0.353 N 
HETATM   10  C   UNL     1      20.763  46.091  45.831  1.00  0.00     0.153 C 
HETATM   11  C   UNL     1      21.383  47.199  46.710  1.00  0.00     0.256 C 
HETATM   12  N   UNL     1      20.519  47.427  47.953  1.00  0.00    -0.056 N 
HETATM   13  H   UNL     1      19.576  47.654  47.636  1.00  0.00     0.281 HD
HETATM   14  C   UNL     1      20.350  46.113  48.732  1.00  0.00     0.256 C 
HETATM   15  C   UNL     1      19.723  45.052  47.806  1.00  0.00     0.153 C 
BRANCH  12  16
HETATM   16  C   UNL     1      20.947  48.609  48.833  1.00  0.00     0.254 C 
BRANCH  16  17
HETATM   17  C   UNL     1      22.459  48.830  48.800  1.00  0.00    -0.023 A 
HETATM   18  C   UNL     1      23.353  47.974  49.472  1.00  0.00     0.009 A 
HETATM   19  C   UNL     1      24.727  48.222  49.460  1.00  0.00     0.001 A 
HETATM   20  C   UNL     1      25.231  49.323  48.775  1.00  0.00     0.000 A 
HETATM   21  C   UNL     1      24.365  50.174  48.092  1.00  0.00     0.001 A 
HETATM   22  C   UNL     1      22.991  49.931  48.101  1.00  0.00     0.009 A 
ENDBRANCH  16  17
BRANCH  16  23
HETATM   23  C   UNL     1      20.090  49.878  48.660  1.00  0.00    -0.023 A 
HETATM   24  C   UNL     1      19.945  50.851  49.669  1.00  0.00     0.009 A 
HETATM   25  C   UNL     1      19.205  52.019  49.452  1.00  0.00     0.001 A 
HETATM   26  C   UNL     1      18.607  52.252  48.219  1.00  0.00     0.000 A 
HETATM   27  C   UNL     1      18.761  51.326  47.195  1.00  0.00     0.001 A 
HETATM   28  C   UNL     1      19.506  50.163  47.407  1.00  0.00     0.009 A 
ENDBRANCH  16  23
ENDBRANCH  12  16
ENDBRANCH   3   9
BRANCH   1  29
HETATM   29  C   UNL     1      24.193  42.815  47.611  1.00  0.00     0.240 C 
HETATM   30  N   UNL     1      24.385  44.060  48.173  1.00  0.00    -0.326 N 
HETATM   31  H   UNL     1      24.304  44.887  47.587  1.00  0.00     0.169 HD
HETATM   32  O   UNL     1      24.543  41.743  48.119  1.00  0.00    -0.271 OA
BRANCH  30  33
HETATM   33  C   UNL     1      24.921  44.337  49.450  1.00  0.00     0.034 A 
HETATM   34  C   UNL     1      24.155  44.463  50.610  1.00  0.00     0.032 A 
HETATM   35  C   UNL     1      24.766  44.748  51.841  1.00  0.00     0.039 A 
HETATM   36  C   UNL     1      26.149  44.899  51.922  1.00  0.00     0.068 A 
HETATM   37  C   UNL     1      26.913  44.781  50.762  1.00  0.00     0.039 A 
HETATM   38  C   UNL     1      26.306  44.514  49.533  1.00  0.00     0.032 A 
BRANCH  36  39
HETATM   39  O   UNL     1      26.871  45.154  53.053  1.00  0.00    -0.352 OA
BRANCH  39  40
HETATM   40  C   UNL     1      27.023  44.087  53.988  1.00  0.00     0.171 C 
HETATM   41  C   UNL     1      28.445  44.131  54.518  1.00  0.00     0.034 C 
ENDBRANCH  39  40
ENDBRANCH  36  39
ENDBRANCH  30  33
ENDBRANCH   1  29
TORSDOF 8
ENDMDL
MODEL 3
REMARK VINA RESULT:      -9.8      4.008      6.950
REMARK  8 active torsions:
REMARK  status: ('A' for Active; 'I' for Inactive)
REMARK    1  A    between atoms: C_2  and  O_3 
REMARK    2  A    between atoms: O_3  and  C_4 
REMARK    3  A    between atoms: C_7  and  N_8 
REMARK       I    between atoms: N_8  and  C_9 
REMARK    4  A    between atoms: C_9  and  C_10 
REMARK    5  A    between atoms: C_12  and  N_13 
REMARK    6  A    between atoms: N_16  and  C_18 
REMARK    7  A    between atoms: C_18  and  C_19 
REMARK    8  A    between atoms: C_18  and  C_25 
ROOT
HETATM    1  C   UNL     1      20.577  44.922  48.309  1.00  0.00     0.164 C 
HETATM    2  N   UNL     1      21.665  44.882  49.302  1.00  0.00    -0.249 NA
HETATM    3  C   UNL     1      22.931  45.147  48.870  1.00  0.00     0.181 C 
HETATM    4  N   UNL     1      23.268  45.222  47.621  1.00  0.00    -0.185 NA
HETATM    5  C   UNL     1      22.303  45.043  46.668  1.00  0.00     0.247 C 
HETATM    6  O   UNL     1      22.358  45.566  45.558  1.00  0.00    -0.271 OA
HETATM    7  C   UNL     1      21.081  44.262  47.051  1.00  0.00     0.134 C 
HETATM    8  H   UNL     1      21.372  45.407  50.123  1.00  0.00     0.131 HD
ENDROOT
BRANCH   3   9
HETATM    9  N   UNL     1      23.872  45.340  49.855  1.00  0.00    -0.353 N 
HETATM   10  C   UNL     1      25.068  46.184  49.751  1.00  0.00     0.153 C 
HETATM   11  C   UNL     1      26.323  45.293  49.633  1.00  0.00     0.256 C 
HETATM   12  N   UNL     1      26.393  44.325  50.817  1.00  0.00    -0.056 N 
HETATM   13  H   UNL     1      26.381  44.882  51.673  1.00  0.00     0.281 HD
HETATM   14  C   UNL     1      25.108  43.486  50.895  1.00  0.00     0.256 C 
HETATM   15  C   UNL     1      23.894  44.429  51.018  1.00  0.00     0.153 C 
BRANCH  12  16
HETATM   16  C   UNL     1      27.676  43.487  50.897  1.00  0.00     0.254 C 
BRANCH  16  17
HETATM   17  C   UNL     1      28.312  43.543  52.286  1.00  0.00    -0.023 A 
HETATM   18  C   UNL     1      27.682  44.184  53.369  1.00  0.00     0.009 A 
HETATM   19  C   UNL     1      28.302  44.256  54.617  1.00  0.00     0.001 A 
HETATM   20  C   UNL     1      29.557  43.685  54.806  1.00  0.00     0.000 A 
HETATM   21  C   UNL     1      30.191  43.033  53.751  1.00  0.00     0.001 A 
HETATM   22  C   UNL     1      29.574  42.959  52.501  1.00  0.00     0.009 A 
ENDBRANCH  16  17
BRANCH  16  23
HETATM   23  C   UNL     1      27.561  42.081  50.278  1.00  0.00    -0.023 A 
HETATM   24  C   UNL     1      27.270  41.861  48.917  1.00  0.00     0.009 A 
HETATM   25  C   UNL     1      27.232  40.568  48.381  1.00  0.00     0.001 A 
HETATM   26  C   UNL     1      27.501  39.467  49.185  1.00  0.00     0.000 A 
HETATM   27  C   UNL     1      27.824  39.655  50.523  1.00  0.00     0.001 A 
HETATM   28  C   UNL     1      27.869  40.945  51.059  1.00  0.00     0.009 A 
ENDBRANCH  16  23
ENDBRANCH  12  16
ENDBRANCH   3   9
BRANCH   1  29
HETATM   29  C   UNL     1      20.079  46.397  48.223  1.00  0.00     0.240 C 
HETATM   30  N   UNL     1      20.173  47.169  49.363  1.00  0.00    -0.326 N 
HETATM   31  H   UNL     1      20.361  46.718  50.255  1.00  0.00     0.169 HD
HETATM   32  O   UNL     1      19.576  46.764  47.155  1.00  0.00    -0.271 OA
BRANCH  30  33
HETATM   33  C   UNL     1      19.808  48.527  49.496  1.00  0.00     0.034 A 
HETATM   34  C   UNL     1      20.692  49.595  49.342  1.00  0.00     0.032 A 
HETATM   35  C   UNL     1      20.248  50.917  49.499  1.00  0.00     0.039 A 
HETATM   36  C   UNL     1      18.914  51.181  49.802  1.00  0.00     0.068 A 
HETATM   37  C   UNL     1      18.032  50.113  49.964  1.00  0.00     0.039 A 
HETATM   38  C   UNL     1      18.475  48.796  49.824  1.00  0.00     0.032 A 
BRANCH  36  39
HETATM   39  O   UNL     1      18.348  52.413  49.959  1.00  0.00    -0.352 OA
BRANCH  39  40
HETATM   40  C   UNL     1      17.137  52.674  49.252  1.00  0.00     0.171 C 
HETATM   41  C   UNL     1      16.164  53.324  50.219  1.00  0.00     0.034 C 
ENDBRANCH  39  40
ENDBRANCH  36  39
ENDBRANCH  30  33
ENDBRANCH   1  29
TORSDOF 8
ENDMDL
MODEL 4
REMARK VINA RESULT:      -9.5      3.951      6.850
REMARK  8 active torsions:
REMARK  status: ('A' for Active; 'I' for Inactive)
REMARK    1  A    between atoms: C_2  and  O_3 
REMARK    2  A    between atoms: O_3  and  C_4 
REMARK    3  A    between atoms: C_7  and  N_8 
REMARK       I    between atoms: N_8  and  C_9 
REMARK    4  A    between atoms: C_9  and  C_10 
REMARK    5  A    between atoms: C_12  and  N_13 
REMARK    6  A    between atoms: N_16  and  C_18 
REMARK    7  A    between atoms: C_18  and  C_19 
REMARK    8  A    between atoms: C_18  and  C_25 
ROOT
HETATM    1  C   UNL     1      20.005  44.145  46.526  1.00  0.00     0.164 C 
HETATM    2  N   UNL     1      20.910  43.579  47.542  1.00  0.00    -0.249 NA
HETATM    3  C   UNL     1      22.251  43.614  47.290  1.00  0.00     0.181 C 
HETATM    4  N   UNL     1      22.761  43.916  46.138  1.00  0.00    -0.185 NA
HETATM    5  C   UNL     1      21.919  44.236  45.109  1.00  0.00     0.247 C 
HETATM    6  O   UNL     1      22.241  44.992  44.195  1.00  0.00    -0.271 OA
HETATM    7  C   UNL     1      20.513  43.720  45.173  1.00  0.00     0.134 C 
HETATM    8  H   UNL     1      20.635  43.935  48.455  1.00  0.00     0.131 HD
ENDROOT
BRANCH   3   9
HETATM    9  N   UNL     1      23.068  43.306  48.352  1.00  0.00    -0.353 N 
HETATM   10  C   UNL     1      22.662  43.245  49.762  1.00  0.00     0.153 C 
HETATM   11  C   UNL     1      23.230  44.466  50.518  1.00  0.00     0.256 C 
HETATM   12  N   UNL     1      24.751  44.526  50.350  1.00  0.00    -0.056 N 
HETATM   13  H   UNL     1      25.134  43.640  50.683  1.00  0.00     0.281 HD
HETATM   14  C   UNL     1      25.121  44.562  48.859  1.00  0.00     0.256 C 
HETATM   15  C   UNL     1      24.532  43.318  48.162  1.00  0.00     0.153 C 
BRANCH  12  16
HETATM   16  C   UNL     1      25.454  45.609  51.180  1.00  0.00     0.254 C 
BRANCH  16  17
HETATM   17  C   UNL     1      26.592  45.035  52.024  1.00  0.00    -0.023 A 
HETATM   18  C   UNL     1      26.843  45.475  53.338  1.00  0.00     0.009 A 
HETATM   19  C   UNL     1      27.914  44.964  54.072  1.00  0.00     0.001 A 
HETATM   20  C   UNL     1      28.749  44.003  53.510  1.00  0.00     0.000 A 
HETATM   21  C   UNL     1      28.510  43.543  52.217  1.00  0.00     0.001 A 
HETATM   22  C   UNL     1      27.440  44.051  51.479  1.00  0.00     0.009 A 
ENDBRANCH  16  17
BRANCH  16  23
HETATM   23  C   UNL     1      25.792  46.894  50.401  1.00  0.00    -0.023 A 
HETATM   24  C   UNL     1      27.102  47.232  50.007  1.00  0.00     0.009 A 
HETATM   25  C   UNL     1      27.359  48.380  49.249  1.00  0.00     0.001 A 
HETATM   26  C   UNL     1      26.316  49.208  48.852  1.00  0.00     0.000 A 
HETATM   27  C   UNL     1      25.011  48.882  49.198  1.00  0.00     0.001 A 
HETATM   28  C   UNL     1      24.750  47.732  49.948  1.00  0.00     0.009 A 
ENDBRANCH  16  23
ENDBRANCH  12  16
ENDBRANCH   3   9
BRANCH   1  29
HETATM   29  C   UNL     1      19.868  45.669  46.822  1.00  0.00     0.240 C 
HETATM   30  N   UNL     1      20.293  46.121  48.055  1.00  0.00    -0.326 N 
HETATM   31  H   UNL     1      20.481  45.447  48.793  1.00  0.00     0.169 HD
HETATM   32  O   UNL     1      19.333  46.369  45.955  1.00  0.00    -0.271 OA
BRANCH  30  33
HETATM   33  C   UNL     1      20.284  47.456  48.515  1.00  0.00     0.034 A 
HETATM   34  C   UNL     1      21.255  48.403  48.189  1.00  0.00     0.032 A 
HETATM   35  C   UNL     1      21.177  49.709  48.695  1.00  0.00     0.039 A 
HETATM   36  C   UNL     1      20.120  50.080  49.525  1.00  0.00     0.068 A 
HETATM   37  C   UNL     1      19.153  49.132  49.857  1.00  0.00     0.039 A 
HETATM   38  C   UNL     1      19.239  47.827  49.367  1.00  0.00     0.032 A 
BRANCH  36  39
HETATM   39  O   UNL     1      19.911  51.317  50.065  1.00  0.00    -0.352 OA
BRANCH  39  40
HETATM   40  C   UNL     1      18.684  51.971  49.750  1.00  0.00     0.171 C 
HETATM   41  C   UNL     1      18.808  52.545  48.350  1.00  0.00     0.034 C 
ENDBRANCH  39  40
ENDBRANCH  36  39
ENDBRANCH  30  33
ENDBRANCH   1  29
TORSDOF 8
ENDMDL
MODEL 5
REMARK VINA RESULT:      -9.5      3.827      6.231
REMARK  8 active torsions:
REMARK  status: ('A' for Active; 'I' for Inactive)
REMARK    1  A    between atoms: C_2  and  O_3 
REMARK    2  A    between atoms: O_3  and  C_4 
REMARK    3  A    between atoms: C_7  and  N_8 
REMARK       I    between atoms: N_8  and  C_9 
REMARK    4  A    between atoms: C_9  and  C_10 
REMARK    5  A    between atoms: C_12  and  N_13 
REMARK    6  A    between atoms: N_16  and  C_18 
REMARK    7  A    between atoms: C_18  and  C_19 
REMARK    8  A    between atoms: C_18  and  C_25 
ROOT
HETATM    1  C   UNL     1      20.202  44.268  46.875  1.00  0.00     0.164 C 
HETATM    2  N   UNL     1      21.115  43.770  47.919  1.00  0.00    -0.249 NA
HETATM    3  C   UNL     1      22.457  43.882  47.696  1.00  0.00     0.181 C 
HETATM    4  N   UNL     1      22.975  44.198  46.552  1.00  0.00    -0.185 NA
HETATM    5  C   UNL     1      22.140  44.454  45.500  1.00  0.00     0.247 C 
HETATM    6  O   UNL     1      22.437  45.216  44.583  1.00  0.00    -0.271 OA
HETATM    7  C   UNL     1      20.765  43.856  45.540  1.00  0.00     0.134 C 
HETATM    8  H   UNL     1      20.798  44.121  48.820  1.00  0.00     0.131 HD
ENDROOT
BRANCH   3   9
HETATM    9  N   UNL     1      23.265  43.636  48.781  1.00  0.00    -0.353 N 
HETATM   10  C   UNL     1      22.997  44.043  50.165  1.00  0.00     0.153 C 
HETATM   11  C   UNL     1      23.932  45.209  50.554  1.00  0.00     0.256 C 
HETATM   12  N   UNL     1      25.393  44.805  50.336  1.00  0.00    -0.056 N 
HETATM   13  H   UNL     1      25.565  43.960  50.884  1.00  0.00     0.281 HD
HETATM   14  C   UNL     1      25.613  44.364  48.881  1.00  0.00     0.256 C 
HETATM   15  C   UNL     1      24.658  43.197  48.556  1.00  0.00     0.153 C 
BRANCH  12  16
HETATM   16  C   UNL     1      26.429  45.825  50.830  1.00  0.00     0.254 C 
BRANCH  16  17
HETATM   17  C   UNL     1      26.376  47.127  50.031  1.00  0.00    -0.023 A 
HETATM   18  C   UNL     1      27.542  47.760  49.558  1.00  0.00     0.009 A 
HETATM   19  C   UNL     1      27.469  48.970  48.867  1.00  0.00     0.001 A 
HETATM   20  C   UNL     1      26.234  49.565  48.632  1.00  0.00     0.000 A 
HETATM   21  C   UNL     1      25.067  48.948  49.078  1.00  0.00     0.001 A 
HETATM   22  C   UNL     1      25.135  47.738  49.770  1.00  0.00     0.009 A 
ENDBRANCH  16  17
BRANCH  16  23
HETATM   23  C   UNL     1      26.485  45.990  52.360  1.00  0.00    -0.023 A 
HETATM   24  C   UNL     1      27.021  45.011  53.220  1.00  0.00     0.009 A 
HETATM   25  C   UNL     1      27.108  45.224  54.601  1.00  0.00     0.001 A 
HETATM   26  C   UNL     1      26.678  46.424  55.154  1.00  0.00     0.000 A 
HETATM   27  C   UNL     1      26.175  47.421  54.327  1.00  0.00     0.001 A 
HETATM   28  C   UNL     1      26.095  47.213  52.947  1.00  0.00     0.009 A 
ENDBRANCH  16  23
ENDBRANCH  12  16
ENDBRANCH   3   9
BRANCH   1  29
HETATM   29  C   UNL     1      19.968  45.785  47.146  1.00  0.00     0.240 C 
HETATM   30  N   UNL     1      20.366  46.283  48.370  1.00  0.00    -0.326 N 
HETATM   31  H   UNL     1      20.599  45.636  49.118  1.00  0.00     0.169 HD
HETATM   32  O   UNL     1      19.387  46.434  46.269  1.00  0.00    -0.271 OA
BRANCH  30  33
HETATM   33  C   UNL     1      20.273  47.623  48.807  1.00  0.00     0.034 A 
HETATM   34  C   UNL     1      21.254  48.590  48.584  1.00  0.00     0.032 A 
HETATM   35  C   UNL     1      21.086  49.899  49.060  1.00  0.00     0.039 A 
HETATM   36  C   UNL     1      19.931  50.253  49.755  1.00  0.00     0.068 A 
HETATM   37  C   UNL     1      18.955  49.285  49.985  1.00  0.00     0.039 A 
HETATM   38  C   UNL     1      19.127  47.978  49.526  1.00  0.00     0.032 A 
BRANCH  36  39
HETATM   39  O   UNL     1      19.632  51.490  50.251  1.00  0.00    -0.352 OA
BRANCH  39  40
HETATM   40  C   UNL     1      18.466  52.135  49.744  1.00  0.00     0.171 C 
HETATM   41  C   UNL     1      18.759  52.578  48.321  1.00  0.00     0.034 C 
ENDBRANCH  39  40
ENDBRANCH  36  39
ENDBRANCH  30  33
ENDBRANCH   1  29
TORSDOF 8
ENDMDL
MODEL 6
REMARK VINA RESULT:      -9.5      3.713      6.568
REMARK  8 active torsions:
REMARK  status: ('A' for Active; 'I' for Inactive)
REMARK    1  A    between atoms: C_2  and  O_3 
REMARK    2  A    between atoms: O_3  and  C_4 
REMARK    3  A    between atoms: C_7  and  N_8 
REMARK       I    between atoms: N_8  and  C_9 
REMARK    4  A    between atoms: C_9  and  C_10 
REMARK    5  A    between atoms: C_12  and  N_13 
REMARK    6  A    between atoms: N_16  and  C_18 
REMARK    7  A    between atoms: C_18  and  C_19 
REMARK    8  A    between atoms: C_18  and  C_25 
ROOT
HETATM    1  C   UNL     1      21.029  42.756  46.140  1.00  0.00     0.164 C 
HETATM    2  N   UNL     1      21.718  42.622  47.436  1.00  0.00    -0.249 NA
HETATM    3  C   UNL     1      23.067  42.826  47.463  1.00  0.00     0.181 C 
HETATM    4  N   UNL     1      23.805  42.921  46.402  1.00  0.00    -0.185 NA
HETATM    5  C   UNL     1      23.208  42.828  45.176  1.00  0.00     0.247 C 
HETATM    6  O   UNL     1      23.654  43.381  44.173  1.00  0.00    -0.271 OA
HETATM    7  C   UNL     1      21.895  42.107  45.092  1.00  0.00     0.134 C 
HETATM    8  H   UNL     1      21.191  43.137  48.137  1.00  0.00     0.131 HD
ENDROOT
BRANCH   3   9
HETATM    9  N   UNL     1      23.630  42.934  48.713  1.00  0.00    -0.353 N 
HETATM   10  C   UNL     1      22.902  43.117  49.974  1.00  0.00     0.153 C 
HETATM   11  C   UNL     1      23.091  44.565  50.477  1.00  0.00     0.256 C 
HETATM   12  N   UNL     1      24.583  44.882  50.613  1.00  0.00    -0.056 N 
HETATM   13  H   UNL     1      24.991  44.187  51.241  1.00  0.00     0.281 HD
HETATM   14  C   UNL     1      25.301  44.649  49.275  1.00  0.00     0.256 C 
HETATM   15  C   UNL     1      25.081  43.189  48.829  1.00  0.00     0.153 C 
BRANCH  12  16
HETATM   16  C   UNL     1      24.902  46.241  51.250  1.00  0.00     0.254 C 
BRANCH  16  17
HETATM   17  C   UNL     1      25.892  46.113  52.408  1.00  0.00    -0.023 A 
HETATM   18  C   UNL     1      26.728  44.990  52.554  1.00  0.00     0.009 A 
HETATM   19  C   UNL     1      27.594  44.879  53.643  1.00  0.00     0.001 A 
HETATM   20  C   UNL     1      27.642  45.887  54.601  1.00  0.00     0.000 A 
HETATM   21  C   UNL     1      26.834  47.013  54.468  1.00  0.00     0.001 A 
HETATM   22  C   UNL     1      25.967  47.129  53.380  1.00  0.00     0.009 A 
ENDBRANCH  16  17
BRANCH  16  23
HETATM   23  C   UNL     1      25.209  47.365  50.241  1.00  0.00    -0.023 A 
HETATM   24  C   UNL     1      24.204  48.118  49.601  1.00  0.00     0.009 A 
HETATM   25  C   UNL     1      24.525  49.170  48.735  1.00  0.00     0.001 A 
HETATM   26  C   UNL     1      25.853  49.506  48.501  1.00  0.00     0.000 A 
HETATM   27  C   UNL     1      26.864  48.803  49.143  1.00  0.00     0.001 A 
HETATM   28  C   UNL     1      26.546  47.757  50.014  1.00  0.00     0.009 A 
ENDBRANCH  16  23
ENDBRANCH  12  16
ENDBRANCH   3   9
BRANCH   1  29
HETATM   29  C   UNL     1      20.653  44.258  45.966  1.00  0.00     0.240 C 
HETATM   30  N   UNL     1      20.535  45.023  47.108  1.00  0.00    -0.326 N 
HETATM   31  H   UNL     1      20.488  44.561  48.013  1.00  0.00     0.169 HD
HETATM   32  O   UNL     1      20.428  44.657  44.817  1.00  0.00    -0.271 OA
BRANCH  30  33
HETATM   33  C   UNL     1      20.231  46.401  47.175  1.00  0.00     0.034 A 
HETATM   34  C   UNL     1      18.957  46.933  46.978  1.00  0.00     0.032 A 
HETATM   35  C   UNL     1      18.742  48.318  47.054  1.00  0.00     0.039 A 
HETATM   36  C   UNL     1      19.799  49.180  47.337  1.00  0.00     0.068 A 
HETATM   37  C   UNL     1      21.075  48.649  47.526  1.00  0.00     0.039 A 
HETATM   38  C   UNL     1      21.294  47.273  47.435  1.00  0.00     0.032 A 
BRANCH  36  39
HETATM   39  O   UNL     1      19.726  50.538  47.462  1.00  0.00    -0.352 OA
BRANCH  39  40
HETATM   40  C   UNL     1      18.914  51.057  48.513  1.00  0.00     0.171 C 
HETATM   41  C   UNL     1      19.821  51.381  49.686  1.00  0.00     0.034 C 
ENDBRANCH  39  40
ENDBRANCH  36  39
ENDBRANCH  30  33
ENDBRANCH   1  29
TORSDOF 8
ENDMDL
MODEL 7
REMARK VINA RESULT:      -9.3      3.232      5.161
REMARK  8 active torsions:
REMARK  status: ('A' for Active; 'I' for Inactive)
REMARK    1  A    between atoms: C_2  and  O_3 
REMARK    2  A    between atoms: O_3  and  C_4 
REMARK    3  A    between atoms: C_7  and  N_8 
REMARK       I    between atoms: N_8  and  C_9 
REMARK    4  A    between atoms: C_9  and  C_10 
REMARK    5  A    between atoms: C_12  and  N_13 
REMARK    6  A    between atoms: N_16  and  C_18 
REMARK    7  A    between atoms: C_18  and  C_19 
REMARK    8  A    between atoms: C_18  and  C_25 
ROOT
HETATM    1  C   UNL     1      21.113  42.579  46.236  1.00  0.00     0.164 C 
HETATM    2  N   UNL     1      21.896  41.992  47.337  1.00  0.00    -0.249 NA
HETATM    3  C   UNL     1      23.253  41.948  47.199  1.00  0.00     0.181 C 
HETATM    4  N   UNL     1      23.875  42.192  46.089  1.00  0.00    -0.185 NA
HETATM    5  C   UNL     1      23.142  42.530  44.985  1.00  0.00     0.247 C 
HETATM    6  O   UNL     1      23.580  43.245  44.087  1.00  0.00    -0.271 OA
HETATM    7  C   UNL     1      21.708  42.093  44.940  1.00  0.00     0.134 C 
HETATM    8  H   UNL     1      21.565  42.385  48.215  1.00  0.00     0.131 HD
ENDROOT
BRANCH   3   9
HETATM    9  N   UNL     1      23.959  41.623  48.334  1.00  0.00    -0.353 N 
HETATM   10  C   UNL     1      23.645  42.062  49.699  1.00  0.00     0.153 C 
HETATM   11  C   UNL     1      24.670  43.125  50.151  1.00  0.00     0.256 C 
HETATM   12  N   UNL     1      26.092  42.568  50.028  1.00  0.00    -0.056 N 
HETATM   13  H   UNL     1      26.137  41.712  50.583  1.00  0.00     0.281 HD
HETATM   14  C   UNL     1      26.358  42.101  48.589  1.00  0.00     0.256 C 
HETATM   15  C   UNL     1      25.309  41.039  48.199  1.00  0.00     0.153 C 
BRANCH  12  16
HETATM   16  C   UNL     1      27.195  43.475  50.591  1.00  0.00     0.254 C 
BRANCH  16  17
HETATM   17  C   UNL     1      26.750  44.935  50.672  1.00  0.00    -0.023 A 
HETATM   18  C   UNL     1      26.972  45.842  49.618  1.00  0.00     0.009 A 
HETATM   19  C   UNL     1      26.592  47.181  49.734  1.00  0.00     0.001 A 
HETATM   20  C   UNL     1      25.982  47.634  50.899  1.00  0.00     0.000 A 
HETATM   21  C   UNL     1      25.740  46.750  51.948  1.00  0.00     0.001 A 
HETATM   22  C   UNL     1      26.118  45.411  51.837  1.00  0.00     0.009 A 
ENDBRANCH  16  17
BRANCH  16  23
HETATM   23  C   UNL     1      27.894  42.926  51.849  1.00  0.00    -0.023 A 
HETATM   24  C   UNL     1      27.684  41.621  52.337  1.00  0.00     0.009 A 
HETATM   25  C   UNL     1      28.384  41.140  53.451  1.00  0.00     0.001 A 
HETATM   26  C   UNL     1      29.320  41.943  54.092  1.00  0.00     0.000 A 
HETATM   27  C   UNL     1      29.571  43.223  53.613  1.00  0.00     0.001 A 
HETATM   28  C   UNL     1      28.879  43.702  52.497  1.00  0.00     0.009 A 
ENDBRANCH  16  23
ENDBRANCH  12  16
ENDBRANCH   3   9
BRANCH   1  29
HETATM   29  C   UNL     1      21.037  44.116  46.487  1.00  0.00     0.240 C 
HETATM   30  N   UNL     1      21.295  44.567  47.765  1.00  0.00    -0.326 N 
HETATM   31  H   UNL     1      21.319  43.900  48.532  1.00  0.00     0.169 HD
HETATM   32  O   UNL     1      20.693  44.829  45.537  1.00  0.00    -0.271 OA
BRANCH  30  33
HETATM   33  C   UNL     1      21.307  45.911  48.200  1.00  0.00     0.034 A 
HETATM   34  C   UNL     1      20.160  46.650  48.491  1.00  0.00     0.032 A 
HETATM   35  C   UNL     1      20.259  47.985  48.911  1.00  0.00     0.039 A 
HETATM   36  C   UNL     1      21.508  48.588  49.053  1.00  0.00     0.068 A 
HETATM   37  C   UNL     1      22.653  47.851  48.755  1.00  0.00     0.039 A 
HETATM   38  C   UNL     1      22.556  46.528  48.320  1.00  0.00     0.032 A 
BRANCH  36  39
HETATM   39  O   UNL     1      21.747  49.865  49.472  1.00  0.00    -0.352 OA
BRANCH  39  40
HETATM   40  C   UNL     1      21.691  50.899  48.492  1.00  0.00     0.171 C 
HETATM   41  C   UNL     1      20.349  51.596  48.625  1.00  0.00     0.034 C 
ENDBRANCH  39  40
ENDBRANCH  36  39
ENDBRANCH  30  33
ENDBRANCH   1  29
TORSDOF 8
ENDMDL
MODEL 8
REMARK VINA RESULT:      -9.3      2.800      8.214
REMARK  8 active torsions:
REMARK  status: ('A' for Active; 'I' for Inactive)
REMARK    1  A    between atoms: C_2  and  O_3 
REMARK    2  A    between atoms: O_3  and  C_4 
REMARK    3  A    between atoms: C_7  and  N_8 
REMARK       I    between atoms: N_8  and  C_9 
REMARK    4  A    between atoms: C_9  and  C_10 
REMARK    5  A    between atoms: C_12  and  N_13 
REMARK    6  A    between atoms: N_16  and  C_18 
REMARK    7  A    between atoms: C_18  and  C_19 
REMARK    8  A    between atoms: C_18  and  C_25 
ROOT
HETATM    1  C   UNL     1      24.703  46.372  51.125  1.00  0.00     0.164 C 
HETATM    2  N   UNL     1      24.343  44.946  51.040  1.00  0.00    -0.249 NA
HETATM    3  C   UNL     1      25.156  44.127  50.310  1.00  0.00     0.181 C 
HETATM    4  N   UNL     1      26.092  44.554  49.523  1.00  0.00    -0.185 NA
HETATM    5  C   UNL     1      26.301  45.902  49.420  1.00  0.00     0.247 C 
HETATM    6  O   UNL     1      27.397  46.388  49.153  1.00  0.00    -0.271 OA
HETATM    7  C   UNL     1      25.158  46.812  49.758  1.00  0.00     0.134 C 
HETATM    8  H   UNL     1      24.123  44.611  51.975  1.00  0.00     0.131 HD
ENDROOT
BRANCH   3   9
HETATM    9  N   UNL     1      24.930  42.778  50.453  1.00  0.00    -0.353 N 
HETATM   10  C   UNL     1      25.722  41.855  51.275  1.00  0.00     0.153 C 
HETATM   11  C   UNL     1      26.581  40.953  50.361  1.00  0.00     0.256 C 
HETATM   12  N   UNL     1      25.687  40.222  49.356  1.00  0.00    -0.056 N 
HETATM   13  H   UNL     1      24.989  39.698  49.887  1.00  0.00     0.281 HD
HETATM   14  C   UNL     1      24.863  41.231  48.542  1.00  0.00     0.256 C 
HETATM   15  C   UNL     1      24.025  42.095  49.506  1.00  0.00     0.153 C 
BRANCH  12  16
HETATM   16  C   UNL     1      26.404  39.178  48.490  1.00  0.00     0.254 C 
BRANCH  16  17
HETATM   17  C   UNL     1      26.846  39.755  47.145  1.00  0.00    -0.023 A 
HETATM   18  C   UNL     1      27.939  40.635  47.033  1.00  0.00     0.009 A 
HETATM   19  C   UNL     1      28.296  41.180  45.799  1.00  0.00     0.001 A 
HETATM   20  C   UNL     1      27.573  40.852  44.656  1.00  0.00     0.000 A 
HETATM   21  C   UNL     1      26.497  39.971  44.742  1.00  0.00     0.001 A 
HETATM   22  C   UNL     1      26.136  39.424  45.974  1.00  0.00     0.009 A 
ENDBRANCH  16  17
BRANCH  16  23
HETATM   23  C   UNL     1      27.469  38.350  49.235  1.00  0.00    -0.023 A 
HETATM   24  C   UNL     1      28.746  38.852  49.556  1.00  0.00     0.009 A 
HETATM   25  C   UNL     1      29.664  38.088  50.286  1.00  0.00     0.001 A 
HETATM   26  C   UNL     1      29.325  36.815  50.728  1.00  0.00     0.000 A 
HETATM   27  C   UNL     1      28.061  36.307  50.455  1.00  0.00     0.001 A 
HETATM   28  C   UNL     1      27.139  37.071  49.732  1.00  0.00     0.009 A 
ENDBRANCH  16  23
ENDBRANCH  12  16
ENDBRANCH   3   9
BRANCH   1  29
HETATM   29  C   UNL     1      25.687  46.533  52.322  1.00  0.00     0.240 C 
HETATM   30  N   UNL     1      26.424  45.427  52.695  1.00  0.00    -0.326 N 
HETATM   31  H   UNL     1      26.166  44.513  52.334  1.00  0.00     0.169 HD
HETATM   32  O   UNL     1      25.703  47.626  52.900  1.00  0.00    -0.271 OA
BRANCH  30  33
HETATM   33  C   UNL     1      27.386  45.362  53.727  1.00  0.00     0.034 A 
HETATM   34  C   UNL     1      27.527  46.324  54.728  1.00  0.00     0.032 A 
HETATM   35  C   UNL     1      28.516  46.188  55.714  1.00  0.00     0.039 A 
HETATM   36  C   UNL     1      29.366  45.083  55.711  1.00  0.00     0.068 A 
HETATM   37  C   UNL     1      29.231  44.126  54.706  1.00  0.00     0.039 A 
HETATM   38  C   UNL     1      28.258  44.268  53.714  1.00  0.00     0.032 A 
BRANCH  36  39
HETATM   39  O   UNL     1      30.351  44.817  56.619  1.00  0.00    -0.352 OA
BRANCH  39  40
HETATM   40  C   UNL     1      31.428  43.986  56.193  1.00  0.00     0.171 C 
HETATM   41  C   UNL     1      31.922  43.208  57.400  1.00  0.00     0.034 C 
ENDBRANCH  39  40
ENDBRANCH  36  39
ENDBRANCH  30  33
ENDBRANCH   1  29
TORSDOF 8
ENDMDL
MODEL 9
REMARK VINA RESULT:      -9.2      5.045      9.997
REMARK  8 active torsions:
REMARK  status: ('A' for Active; 'I' for Inactive)
REMARK    1  A    between atoms: C_2  and  O_3 
REMARK    2  A    between atoms: O_3  and  C_4 
REMARK    3  A    between atoms: C_7  and  N_8 
REMARK       I    between atoms: N_8  and  C_9 
REMARK    4  A    between atoms: C_9  and  C_10 
REMARK    5  A    between atoms: C_12  and  N_13 
REMARK    6  A    between atoms: N_16  and  C_18 
REMARK    7  A    between atoms: C_18  and  C_19 
REMARK    8  A    between atoms: C_18  and  C_25 
ROOT
HETATM    1  C   UNL     1      22.301  44.510  45.809  1.00  0.00     0.164 C 
HETATM    2  N   UNL     1      21.188  45.443  46.061  1.00  0.00    -0.249 NA
HETATM    3  C   UNL     1      20.027  44.927  46.559  1.00  0.00     0.181 C 
HETATM    4  N   UNL     1      19.769  43.659  46.626  1.00  0.00    -0.185 NA
HETATM    5  C   UNL     1      20.714  42.772  46.189  1.00  0.00     0.247 C 
HETATM    6  O   UNL     1      20.821  41.635  46.642  1.00  0.00    -0.271 OA
HETATM    7  C   UNL     1      21.723  43.262  45.194  1.00  0.00     0.134 C 
HETATM    8  H   UNL     1      21.549  46.251  46.562  1.00  0.00     0.131 HD
ENDROOT
BRANCH   3   9
HETATM    9  N   UNL     1      19.107  45.847  47.006  1.00  0.00    -0.353 N 
HETATM   10  C   UNL     1      18.232  46.670  46.163  1.00  0.00     0.153 C 
HETATM   11  C   UNL     1      18.728  48.132  46.171  1.00  0.00     0.256 C 
HETATM   12  N   UNL     1      18.811  48.650  47.610  1.00  0.00    -0.056 N 
HETATM   13  H   UNL     1      17.886  48.543  48.030  1.00  0.00     0.281 HD
HETATM   14  C   UNL     1      19.716  47.740  48.453  1.00  0.00     0.256 C 
HETATM   15  C   UNL     1      19.167  46.299  48.411  1.00  0.00     0.153 C 
BRANCH  12  16
HETATM   16  C   UNL     1      19.147  50.142  47.744  1.00  0.00     0.254 C 
BRANCH  16  17
HETATM   17  C   UNL     1      18.028  50.922  48.434  1.00  0.00    -0.023 A 
HETATM   18  C   UNL     1      16.693  50.474  48.428  1.00  0.00     0.009 A 
HETATM   19  C   UNL     1      15.683  51.226  49.030  1.00  0.00     0.001 A 
HETATM   20  C   UNL     1      15.989  52.432  49.652  1.00  0.00     0.000 A 
HETATM   21  C   UNL     1      17.305  52.886  49.683  1.00  0.00     0.001 A 
HETATM   22  C   UNL     1      18.318  52.138  49.081  1.00  0.00     0.009 A 
ENDBRANCH  16  17
BRANCH  16  23
HETATM   23  C   UNL     1      20.570  50.433  48.259  1.00  0.00    -0.023 A 
HETATM   24  C   UNL     1      20.862  50.668  49.617  1.00  0.00     0.009 A 
HETATM   25  C   UNL     1      22.177  50.871  50.053  1.00  0.00     0.001 A 
HETATM   26  C   UNL     1      23.231  50.826  49.148  1.00  0.00     0.000 A 
HETATM   27  C   UNL     1      22.976  50.563  47.808  1.00  0.00     0.001 A 
HETATM   28  C   UNL     1      21.665  50.353  47.372  1.00  0.00     0.009 A 
ENDBRANCH  16  23
ENDBRANCH  12  16
ENDBRANCH   3   9
BRANCH   1  29
HETATM   29  C   UNL     1      23.105  44.378  47.138  1.00  0.00     0.240 C 
HETATM   30  N   UNL     1      23.042  45.429  48.030  1.00  0.00    -0.326 N 
HETATM   31  H   UNL     1      22.660  46.319  47.722  1.00  0.00     0.169 HD
HETATM   32  O   UNL     1      23.797  43.363  47.282  1.00  0.00    -0.271 OA
BRANCH  30  33
HETATM   33  C   UNL     1      23.668  45.503  49.294  1.00  0.00     0.034 A 
HETATM   34  C   UNL     1      23.698  44.456  50.215  1.00  0.00     0.032 A 
HETATM   35  C   UNL     1      24.335  44.615  51.455  1.00  0.00     0.039 A 
HETATM   36  C   UNL     1      24.956  45.820  51.779  1.00  0.00     0.068 A 
HETATM   37  C   UNL     1      24.919  46.869  50.861  1.00  0.00     0.039 A 
HETATM   38  C   UNL     1      24.271  46.719  49.633  1.00  0.00     0.032 A 
BRANCH  36  39
HETATM   39  O   UNL     1      25.628  46.100  52.934  1.00  0.00    -0.352 OA
BRANCH  39  40
HETATM   40  C   UNL     1      26.815  45.356  53.199  1.00  0.00     0.171 C 
HETATM   41  C   UNL     1      26.548  44.463  54.397  1.00  0.00     0.034 C 
ENDBRANCH  39  40
ENDBRANCH  36  39
ENDBRANCH  30  33
ENDBRANCH   1  29
TORSDOF 8
ENDMDL
MODEL 10
REMARK VINA RESULT:      -9.2      7.251     10.753
REMARK  8 active torsions:
REMARK  status: ('A' for Active; 'I' for Inactive)
REMARK    1  A    between atoms: C_2  and  O_3 
REMARK    2  A    between atoms: O_3  and  C_4 
REMARK    3  A    between atoms: C_7  and  N_8 
REMARK       I    between atoms: N_8  and  C_9 
REMARK    4  A    between atoms: C_9  and  C_10 
REMARK    5  A    between atoms: C_12  and  N_13 
REMARK    6  A    between atoms: N_16  and  C_18 
REMARK    7  A    between atoms: C_18  and  C_19 
REMARK    8  A    between atoms: C_18  and  C_25 
ROOT
HETATM    1  C   UNL     1      17.198  44.669  45.435  1.00  0.00     0.164 C 
HETATM    2  N   UNL     1      18.226  44.620  46.490  1.00  0.00    -0.249 NA
HETATM    3  C   UNL     1      19.489  45.023  46.166  1.00  0.00     0.181 C 
HETATM    4  N   UNL     1      19.889  45.243  44.954  1.00  0.00    -0.185 NA
HETATM    5  C   UNL     1      18.999  45.080  43.928  1.00  0.00     0.247 C 
HETATM    6  O   UNL     1      19.073  45.709  42.875  1.00  0.00    -0.271 OA
HETATM    7  C   UNL     1      17.827  44.173  44.159  1.00  0.00     0.134 C 
HETATM    8  H   UNL     1      17.844  45.039  47.335  1.00  0.00     0.131 HD
ENDROOT
BRANCH   3   9
HETATM    9  N   UNL     1      20.352  45.194  47.224  1.00  0.00    -0.353 N 
HETATM   10  C   UNL     1      19.967  45.384  48.627  1.00  0.00     0.153 C 
HETATM   11  C   UNL     1      20.206  46.853  49.037  1.00  0.00     0.256 C 
HETATM   12  N   UNL     1      21.664  47.241  48.773  1.00  0.00    -0.056 N 
HETATM   13  H   UNL     1      22.256  46.585  49.286  1.00  0.00     0.281 HD
HETATM   14  C   UNL     1      22.021  47.000  47.299  1.00  0.00     0.256 C 
HETATM   15  C   UNL     1      21.768  45.518  46.953  1.00  0.00     0.153 C 
BRANCH  12  16
HETATM   16  C   UNL     1      22.067  48.632  49.280  1.00  0.00     0.254 C 
BRANCH  16  17
HETATM   17  C   UNL     1      23.551  48.919  49.049  1.00  0.00    -0.023 A 
HETATM   18  C   UNL     1      23.987  49.963  48.211  1.00  0.00     0.009 A 
HETATM   19  C   UNL     1      25.348  50.177  47.984  1.00  0.00     0.001 A 
HETATM   20  C   UNL     1      26.294  49.358  48.593  1.00  0.00     0.000 A 
HETATM   21  C   UNL     1      25.883  48.330  49.438  1.00  0.00     0.001 A 
HETATM   22  C   UNL     1      24.524  48.111  49.667  1.00  0.00     0.009 A 
ENDBRANCH  16  17
BRANCH  16  23
HETATM   23  C   UNL     1      21.105  49.765  48.875  1.00  0.00    -0.023 A 
HETATM   24  C   UNL     1      20.579  49.898  47.574  1.00  0.00     0.009 A 
HETATM   25  C   UNL     1      19.661  50.907  47.261  1.00  0.00     0.001 A 
HETATM   26  C   UNL     1      19.232  51.795  48.240  1.00  0.00     0.000 A 
HETATM   27  C   UNL     1      19.708  51.667  49.539  1.00  0.00     0.001 A 
HETATM   28  C   UNL     1      20.619  50.656  49.856  1.00  0.00     0.009 A 
ENDBRANCH  16  23
ENDBRANCH  12  16
ENDBRANCH   3   9
BRANCH   1  29
HETATM   29  C   UNL     1      16.584  46.101  45.452  1.00  0.00     0.240 C 
HETATM   30  N   UNL     1      17.017  46.971  46.431  1.00  0.00    -0.326 N 
HETATM   31  H   UNL     1      17.550  46.608  47.218  1.00  0.00     0.169 HD
HETATM   32  O   UNL     1      15.701  46.349  44.621  1.00  0.00    -0.271 OA
BRANCH  30  33
HETATM   33  C   UNL     1      16.614  48.313  46.609  1.00  0.00     0.034 A 
HETATM   34  C   UNL     1      16.756  49.308  45.641  1.00  0.00     0.032 A 
HETATM   35  C   UNL     1      16.336  50.621  45.901  1.00  0.00     0.039 A 
HETATM   36  C   UNL     1      15.761  50.946  47.129  1.00  0.00     0.068 A 
HETATM   37  C   UNL     1      15.626  49.954  48.098  1.00  0.00     0.039 A 
HETATM   38  C   UNL     1      16.059  48.650  47.848  1.00  0.00     0.032 A 
BRANCH  36  39
HETATM   39  O   UNL     1      15.290  52.173  47.503  1.00  0.00    -0.352 OA
BRANCH  39  40
HETATM   40  C   UNL     1      15.425  52.536  48.875  1.00  0.00     0.171 C 
HETATM   41  C   UNL     1      14.826  53.920  49.052  1.00  0.00     0.034 C 
ENDBRANCH  39  40
ENDBRANCH  36  39
ENDBRANCH  30  33
ENDBRANCH   1  29
TORSDOF 8
ENDMDL
