MODEL 1
REMARK VINA RESULT:      -9.2      0.000      0.000
REMARK  4 active torsions:
REMARK  status: ('A' for Active; 'I' for Inactive)
REMARK    1  A    between atoms: C_2  and  C_3 
REMARK       I    between atoms: C_3  and  N_4 
REMARK    2  A    between atoms: N_4  and  C_5 
REMARK    3  A    between atoms: C_12  and  C_13 
REMARK       I    between atoms: C_13  and  N_14 
REMARK    4  A    between atoms: C_19  and  C_20 
ROOT
HETATM    1  C   UNL     1      26.318  44.313  52.243  1.00  0.00     0.036 A 
HETATM    2  C   UNL     1      27.134  43.188  52.023  1.00  0.00     0.046 A 
HETATM    3  C   UNL     1      26.670  42.130  51.216  1.00  0.00     0.030 A 
HETATM    4  C   UNL     1      25.406  42.224  50.651  1.00  0.00     0.063 A 
HETATM    5  N   UNL     1      25.240  41.069  49.939  1.00  0.00    -0.277 N 
HETATM    6  H   UNL     1      24.429  40.795  49.395  1.00  0.00     0.189 HD
HETATM    7  N   UNL     1      26.288  40.228  49.991  1.00  0.00    -0.168 NA
HETATM    8  C   UNL     1      27.180  40.872  50.778  1.00  0.00     0.156 A 
HETATM    9  C   UNL     1      24.570  43.325  50.845  1.00  0.00     0.034 A 
HETATM   10  C   UNL     1      25.054  44.366  51.653  1.00  0.00     0.032 A 
ENDROOT
BRANCH   1  11
HETATM   11  N   UNL     1      26.850  45.321  53.081  1.00  0.00    -0.323 N 
HETATM   12  C   UNL     1      26.923  45.325  54.462  1.00  0.00     0.251 C 
HETATM   13  O   UNL     1      26.462  44.448  55.183  1.00  0.00    -0.268 OA
HETATM   14  H   UNL     1      27.207  46.122  52.584  1.00  0.00     0.169 HD
BRANCH  12  15
HETATM   15  C   UNL     1      27.647  46.523  55.049  1.00  0.00     0.007 C 
HETATM   16  C   UNL     1      27.021  47.889  54.922  1.00  0.00     0.054 C 
HETATM   17  C   UNL     1      28.838  46.430  55.682  1.00  0.00     0.025 C 
BRANCH  17  18
HETATM   18  C   UNL     1      29.679  45.252  55.954  1.00  0.00    -0.014 A 
HETATM   19  C   UNL     1      30.431  45.135  57.136  1.00  0.00     0.044 A 
HETATM   20 CL   UNL     1      30.364  46.336  58.382  1.00  0.00    -0.083 Cl
HETATM   21  C   UNL     1      31.277  44.038  57.337  1.00  0.00     0.024 A 
HETATM   22  C   UNL     1      31.383  43.049  56.361  1.00  0.00     0.002 A 
HETATM   23  C   UNL     1      30.648  43.156  55.183  1.00  0.00     0.001 A 
HETATM   24  C   UNL     1      29.810  44.255  54.976  1.00  0.00     0.013 A 
ENDBRANCH  17  18
ENDBRANCH  12  15
ENDBRANCH   1  11
BRANCH   8  25
HETATM   25  C   UNL     1      28.488  40.286  51.098  1.00  0.00     0.270 C 
HETATM   26  N   UNL     1      29.097  39.665  50.042  1.00  0.00    -0.365 N 
HETATM   27  H   UNL     1      28.623  39.656  49.146  1.00  0.00     0.159 HD
HETATM   28  H   UNL     1      30.000  39.236  50.163  1.00  0.00     0.159 HD
HETATM   29  O   UNL     1      29.016  40.331  52.204  1.00  0.00    -0.266 OA
ENDBRANCH   8  25
TORSDOF 4
ENDMDL
MODEL 2
REMARK VINA RESULT:      -9.1      3.301      4.775
REMARK  4 active torsions:
REMARK  status: ('A' for Active; 'I' for Inactive)
REMARK    1  A    between atoms: C_2  and  C_3 
REMARK       I    between atoms: C_3  and  N_4 
REMARK    2  A    between atoms: N_4  and  C_5 
REMARK    3  A    between atoms: C_12  and  C_13 
REMARK       I    between atoms: C_13  and  N_14 
REMARK    4  A    between atoms: C_19  and  C_20 
ROOT
HETATM    1  C   UNL     1      25.494  46.045  51.788  1.00  0.00     0.036 A 
HETATM    2  C   UNL     1      24.699  46.855  50.955  1.00  0.00     0.046 A 
HETATM    3  C   UNL     1      24.036  46.288  49.848  1.00  0.00     0.030 A 
HETATM    4  C   UNL     1      24.184  44.931  49.603  1.00  0.00     0.063 A 
HETATM    5  N   UNL     1      23.439  44.681  48.485  1.00  0.00    -0.277 N 
HETATM    6  H   UNL     1      23.317  43.790  48.016  1.00  0.00     0.189 HD
HETATM    7  N   UNL     1      22.818  45.760  47.977  1.00  0.00    -0.168 NA
HETATM    8  C   UNL     1      23.178  46.762  48.812  1.00  0.00     0.156 A 
HETATM    9  C   UNL     1      24.962  44.096  50.408  1.00  0.00     0.034 A 
HETATM   10  C   UNL     1      25.613  44.684  51.504  1.00  0.00     0.032 A 
ENDROOT
BRANCH   1  11
HETATM   11  N   UNL     1      26.140  46.696  52.865  1.00  0.00    -0.323 N 
HETATM   12  C   UNL     1      26.061  46.390  54.211  1.00  0.00     0.251 C 
HETATM   13  O   UNL     1      25.342  45.517  54.682  1.00  0.00    -0.268 OA
HETATM   14  H   UNL     1      26.717  47.475  52.588  1.00  0.00     0.169 HD
BRANCH  12  15
HETATM   15  C   UNL     1      26.962  47.229  55.100  1.00  0.00     0.007 C 
HETATM   16  C   UNL     1      26.499  48.600  55.522  1.00  0.00     0.054 C 
HETATM   17  C   UNL     1      28.172  46.808  55.532  1.00  0.00     0.025 C 
BRANCH  17  18
HETATM   18  C   UNL     1      28.880  45.540  55.287  1.00  0.00    -0.014 A 
HETATM   19  C   UNL     1      29.919  45.098  56.125  1.00  0.00     0.044 A 
HETATM   20 CL   UNL     1      30.387  45.980  57.540  1.00  0.00    -0.083 Cl
HETATM   21  C   UNL     1      30.622  43.925  55.829  1.00  0.00     0.024 A 
HETATM   22  C   UNL     1      30.299  43.183  54.694  1.00  0.00     0.002 A 
HETATM   23  C   UNL     1      29.276  43.614  53.853  1.00  0.00     0.001 A 
HETATM   24  C   UNL     1      28.578  44.790  54.141  1.00  0.00     0.013 A 
ENDBRANCH  17  18
ENDBRANCH  12  15
ENDBRANCH   1  11
BRANCH   8  25
HETATM   25  C   UNL     1      22.707  48.138  48.610  1.00  0.00     0.270 C 
HETATM   26  N   UNL     1      21.794  48.559  49.539  1.00  0.00    -0.365 N 
HETATM   27  H   UNL     1      21.519  47.918  50.273  1.00  0.00     0.159 HD
HETATM   28  H   UNL     1      21.415  49.491  49.485  1.00  0.00     0.159 HD
HETATM   29  O   UNL     1      23.079  48.872  47.701  1.00  0.00    -0.266 OA
ENDBRANCH   8  25
TORSDOF 4
ENDMDL
MODEL 3
REMARK VINA RESULT:      -9.0      1.709      2.723
REMARK  4 active torsions:
REMARK  status: ('A' for Active; 'I' for Inactive)
REMARK    1  A    between atoms: C_2  and  C_3 
REMARK       I    between atoms: C_3  and  N_4 
REMARK    2  A    between atoms: N_4  and  C_5 
REMARK    3  A    between atoms: C_12  and  C_13 
REMARK       I    between atoms: C_13  and  N_14 
REMARK    4  A    between atoms: C_19  and  C_20 
ROOT
HETATM    1  C   UNL     1      27.128  43.439  52.289  1.00  0.00     0.036 A 
HETATM    2  C   UNL     1      26.131  43.600  51.309  1.00  0.00     0.046 A 
HETATM    3  C   UNL     1      25.733  42.500  50.523  1.00  0.00     0.030 A 
HETATM    4  C   UNL     1      26.339  41.271  50.737  1.00  0.00     0.063 A 
HETATM    5  N   UNL     1      25.758  40.419  49.841  1.00  0.00    -0.277 N 
HETATM    6  H   UNL     1      25.958  39.433  49.714  1.00  0.00     0.189 HD
HETATM    7  N   UNL     1      24.823  40.987  49.059  1.00  0.00    -0.168 NA
HETATM    8  C   UNL     1      24.798  42.275  49.471  1.00  0.00     0.156 A 
HETATM    9  C   UNL     1      27.330  41.072  51.701  1.00  0.00     0.034 A 
HETATM   10  C   UNL     1      27.710  42.183  52.472  1.00  0.00     0.032 A 
ENDROOT
BRANCH   1  11
HETATM   11  N   UNL     1      27.483  44.597  53.020  1.00  0.00    -0.323 N 
HETATM   12  C   UNL     1      27.192  44.889  54.341  1.00  0.00     0.251 C 
HETATM   13  O   UNL     1      26.505  44.185  55.071  1.00  0.00    -0.268 OA
HETATM   14  H   UNL     1      28.006  45.274  52.488  1.00  0.00     0.169 HD
BRANCH  12  15
HETATM   15  C   UNL     1      27.808  46.179  54.849  1.00  0.00     0.007 C 
HETATM   16  C   UNL     1      27.131  47.488  54.528  1.00  0.00     0.054 C 
HETATM   17  C   UNL     1      28.947  46.218  55.577  1.00  0.00     0.025 C 
BRANCH  17  18
HETATM   18  C   UNL     1      29.818  45.123  56.037  1.00  0.00    -0.014 A 
HETATM   19  C   UNL     1      30.437  45.150  57.299  1.00  0.00     0.044 A 
HETATM   20 CL   UNL     1      30.162  46.438  58.423  1.00  0.00    -0.083 Cl
HETATM   21  C   UNL     1      31.316  44.130  57.682  1.00  0.00     0.024 A 
HETATM   22  C   UNL     1      31.587  43.076  56.812  1.00  0.00     0.002 A 
HETATM   23  C   UNL     1      30.984  43.042  55.556  1.00  0.00     0.001 A 
HETATM   24  C   UNL     1      30.114  44.063  55.168  1.00  0.00     0.013 A 
ENDBRANCH  17  18
ENDBRANCH  12  15
ENDBRANCH   1  11
BRANCH   8  25
HETATM   25  C   UNL     1      23.895  43.260  48.861  1.00  0.00     0.270 C 
HETATM   26  N   UNL     1      24.105  43.461  47.524  1.00  0.00    -0.365 N 
HETATM   27  H   UNL     1      24.840  42.935  47.065  1.00  0.00     0.159 HD
HETATM   28  H   UNL     1      23.532  44.116  47.018  1.00  0.00     0.159 HD
HETATM   29  O   UNL     1      23.018  43.866  49.468  1.00  0.00    -0.266 OA
ENDBRANCH   8  25
TORSDOF 4
ENDMDL
MODEL 4
REMARK VINA RESULT:      -9.0      2.268      3.473
REMARK  4 active torsions:
REMARK  status: ('A' for Active; 'I' for Inactive)
REMARK    1  A    between atoms: C_2  and  C_3 
REMARK       I    between atoms: C_3  and  N_4 
REMARK    2  A    between atoms: N_4  and  C_5 
REMARK    3  A    between atoms: C_12  and  C_13 
REMARK       I    between atoms: C_13  and  N_14 
REMARK    4  A    between atoms: C_19  and  C_20 
ROOT
HETATM    1  C   UNL     1      27.095  41.573  50.111  1.00  0.00     0.036 A 
HETATM    2  C   UNL     1      27.790  40.400  50.458  1.00  0.00     0.046 A 
HETATM    3  C   UNL     1      28.264  39.539  49.448  1.00  0.00     0.030 A 
HETATM    4  C   UNL     1      28.033  39.872  48.122  1.00  0.00     0.063 A 
HETATM    5  N   UNL     1      28.598  38.866  47.391  1.00  0.00    -0.277 N 
HETATM    6  H   UNL     1      28.619  38.779  46.380  1.00  0.00     0.189 HD
HETATM    7  N   UNL     1      29.178  37.901  48.127  1.00  0.00    -0.168 NA
HETATM    8  C   UNL     1      28.979  38.306  49.402  1.00  0.00     0.156 A 
HETATM    9  C   UNL     1      27.349  41.029  47.740  1.00  0.00     0.034 A 
HETATM   10  C   UNL     1      26.886  41.871  48.763  1.00  0.00     0.032 A 
ENDROOT
BRANCH   1  11
HETATM   11  N   UNL     1      26.635  42.371  51.185  1.00  0.00    -0.323 N 
HETATM   12  C   UNL     1      27.054  43.642  51.537  1.00  0.00     0.251 C 
HETATM   13  O   UNL     1      27.960  44.252  50.983  1.00  0.00    -0.268 OA
HETATM   14  H   UNL     1      25.922  41.934  51.746  1.00  0.00     0.169 HD
BRANCH  12  15
HETATM   15  C   UNL     1      26.283  44.260  52.690  1.00  0.00     0.007 C 
HETATM   16  C   UNL     1      24.867  44.722  52.456  1.00  0.00     0.054 C 
HETATM   17  C   UNL     1      26.807  44.425  53.925  1.00  0.00     0.025 C 
BRANCH  17  18
HETATM   18  C   UNL     1      28.141  44.080  54.445  1.00  0.00    -0.014 A 
HETATM   19  C   UNL     1      28.939  45.021  55.120  1.00  0.00     0.044 A 
HETATM   20 CL   UNL     1      28.377  46.626  55.447  1.00  0.00    -0.083 Cl
HETATM   21  C   UNL     1      30.231  44.687  55.541  1.00  0.00     0.024 A 
HETATM   22  C   UNL     1      30.741  43.414  55.291  1.00  0.00     0.002 A 
HETATM   23  C   UNL     1      29.963  42.476  54.617  1.00  0.00     0.001 A 
HETATM   24  C   UNL     1      28.676  42.810  54.188  1.00  0.00     0.013 A 
ENDBRANCH  17  18
ENDBRANCH  12  15
ENDBRANCH   1  11
BRANCH   8  25
HETATM   25  C   UNL     1      29.466  37.520  50.543  1.00  0.00     0.270 C 
HETATM   26  N   UNL     1      28.662  36.465  50.881  1.00  0.00    -0.365 N 
HETATM   27  H   UNL     1      27.820  36.306  50.340  1.00  0.00     0.159 HD
HETATM   28  H   UNL     1      28.915  35.866  51.649  1.00  0.00     0.159 HD
HETATM   29  O   UNL     1      30.499  37.760  51.160  1.00  0.00    -0.266 OA
ENDBRANCH   8  25
TORSDOF 4
ENDMDL
MODEL 5
REMARK VINA RESULT:      -8.7      4.758      6.912
REMARK  4 active torsions:
REMARK  status: ('A' for Active; 'I' for Inactive)
REMARK    1  A    between atoms: C_2  and  C_3 
REMARK       I    between atoms: C_3  and  N_4 
REMARK    2  A    between atoms: N_4  and  C_5 
REMARK    3  A    between atoms: C_12  and  C_13 
REMARK       I    between atoms: C_13  and  N_14 
REMARK    4  A    between atoms: C_19  and  C_20 
ROOT
HETATM    1  C   UNL     1      25.475  46.877  50.078  1.00  0.00     0.036 A 
HETATM    2  C   UNL     1      24.181  47.213  49.638  1.00  0.00     0.046 A 
HETATM    3  C   UNL     1      23.959  48.439  48.979  1.00  0.00     0.030 A 
HETATM    4  C   UNL     1      25.032  49.294  48.777  1.00  0.00     0.063 A 
HETATM    5  N   UNL     1      24.514  50.380  48.128  1.00  0.00    -0.277 N 
HETATM    6  H   UNL     1      25.014  51.207  47.821  1.00  0.00     0.189 HD
HETATM    7  N   UNL     1      23.193  50.307  47.890  1.00  0.00    -0.168 NA
HETATM    8  C   UNL     1      22.836  49.111  48.412  1.00  0.00     0.156 A 
HETATM    9  C   UNL     1      26.330  48.994  49.197  1.00  0.00     0.034 A 
HETATM   10  C   UNL     1      26.526  47.767  49.851  1.00  0.00     0.032 A 
ENDROOT
BRANCH   1  11
HETATM   11  N   UNL     1      25.608  45.638  50.748  1.00  0.00    -0.323 N 
HETATM   12  C   UNL     1      26.665  44.748  50.682  1.00  0.00     0.251 C 
HETATM   13  O   UNL     1      27.643  44.885  49.958  1.00  0.00    -0.268 OA
HETATM   14  H   UNL     1      24.822  45.400  51.332  1.00  0.00     0.169 HD
BRANCH  12  15
HETATM   15  C   UNL     1      26.535  43.551  51.607  1.00  0.00     0.007 C 
HETATM   16  C   UNL     1      25.986  42.259  51.056  1.00  0.00     0.054 C 
HETATM   17  C   UNL     1      26.886  43.584  52.912  1.00  0.00     0.025 C 
BRANCH  17  18
HETATM   18  C   UNL     1      27.440  44.684  53.719  1.00  0.00    -0.014 A 
HETATM   19  C   UNL     1      28.674  44.567  54.383  1.00  0.00     0.044 A 
HETATM   20 CL   UNL     1      29.657  43.148  54.238  1.00  0.00    -0.083 Cl
HETATM   21  C   UNL     1      29.144  45.601  55.200  1.00  0.00     0.024 A 
HETATM   22  C   UNL     1      28.388  46.760  55.366  1.00  0.00     0.002 A 
HETATM   23  C   UNL     1      27.161  46.885  54.719  1.00  0.00     0.001 A 
HETATM   24  C   UNL     1      26.685  45.850  53.909  1.00  0.00     0.013 A 
ENDBRANCH  17  18
ENDBRANCH  12  15
ENDBRANCH   1  11
BRANCH   8  25
HETATM   25  C   UNL     1      21.448  48.633  48.363  1.00  0.00     0.270 C 
HETATM   26  N   UNL     1      20.812  48.634  49.574  1.00  0.00    -0.365 N 
HETATM   27  H   UNL     1      21.323  48.954  50.389  1.00  0.00     0.159 HD
HETATM   28  H   UNL     1      19.856  48.327  49.640  1.00  0.00     0.159 HD
HETATM   29  O   UNL     1      20.879  48.260  47.342  1.00  0.00    -0.266 OA
ENDBRANCH   8  25
TORSDOF 4
ENDMDL
MODEL 6
REMARK VINA RESULT:      -8.6      8.443     11.566
REMARK  4 active torsions:
REMARK  status: ('A' for Active; 'I' for Inactive)
REMARK    1  A    between atoms: C_2  and  C_3 
REMARK       I    between atoms: C_3  and  N_4 
REMARK    2  A    between atoms: N_4  and  C_5 
REMARK    3  A    between atoms: C_12  and  C_13 
REMARK       I    between atoms: C_13  and  N_14 
REMARK    4  A    between atoms: C_19  and  C_20 
ROOT
HETATM    1  C   UNL     1      22.558  49.358  48.971  1.00  0.00     0.036 A 
HETATM    2  C   UNL     1      23.543  48.503  49.498  1.00  0.00     0.046 A 
HETATM    3  C   UNL     1      24.896  48.685  49.146  1.00  0.00     0.030 A 
HETATM    4  C   UNL     1      25.228  49.716  48.280  1.00  0.00     0.063 A 
HETATM    5  N   UNL     1      26.584  49.641  48.129  1.00  0.00    -0.277 N 
HETATM    6  H   UNL     1      27.172  50.242  47.561  1.00  0.00     0.189 HD
HETATM    7  N   UNL     1      27.166  48.648  48.823  1.00  0.00    -0.168 NA
HETATM    8  C   UNL     1      26.133  48.048  49.457  1.00  0.00     0.156 A 
HETATM    9  C   UNL     1      24.279  50.587  47.738  1.00  0.00     0.034 A 
HETATM   10  C   UNL     1      22.938  50.384  48.103  1.00  0.00     0.032 A 
ENDROOT
BRANCH   1  11
HETATM   11  N   UNL     1      21.224  49.094  49.358  1.00  0.00    -0.323 N 
HETATM   12  C   UNL     1      20.341  49.947  49.996  1.00  0.00     0.251 C 
HETATM   13  O   UNL     1      20.624  51.074  50.384  1.00  0.00    -0.268 OA
HETATM   14  H   UNL     1      20.908  48.164  49.135  1.00  0.00     0.169 HD
BRANCH  12  15
HETATM   15  C   UNL     1      18.944  49.381  50.181  1.00  0.00     0.007 C 
HETATM   16  C   UNL     1      18.619  48.643  51.454  1.00  0.00     0.054 C 
HETATM   17  C   UNL     1      17.969  49.502  49.253  1.00  0.00     0.025 C 
BRANCH  17  18
HETATM   18  C   UNL     1      17.989  50.156  47.933  1.00  0.00    -0.014 A 
HETATM   19  C   UNL     1      17.810  51.543  47.792  1.00  0.00     0.044 A 
HETATM   20 CL   UNL     1      17.623  52.584  49.164  1.00  0.00    -0.083 Cl
HETATM   21  C   UNL     1      17.763  52.129  46.522  1.00  0.00     0.024 A 
HETATM   22  C   UNL     1      17.891  51.338  45.381  1.00  0.00     0.002 A 
HETATM   23  C   UNL     1      18.063  49.962  45.509  1.00  0.00     0.001 A 
HETATM   24  C   UNL     1      18.101  49.373  46.775  1.00  0.00     0.013 A 
ENDBRANCH  17  18
ENDBRANCH  12  15
ENDBRANCH   1  11
BRANCH   8  25
HETATM   25  C   UNL     1      26.338  46.891  50.338  1.00  0.00     0.270 C 
HETATM   26  N   UNL     1      26.835  45.785  49.704  1.00  0.00    -0.365 N 
HETATM   27  H   UNL     1      27.023  45.841  48.709  1.00  0.00     0.159 HD
HETATM   28  H   UNL     1      27.013  44.943  50.226  1.00  0.00     0.159 HD
HETATM   29  O   UNL     1      26.095  46.883  51.540  1.00  0.00    -0.266 OA
ENDBRANCH   8  25
TORSDOF 4
ENDMDL
MODEL 7
REMARK VINA RESULT:      -8.5      3.139      5.403
REMARK  4 active torsions:
REMARK  status: ('A' for Active; 'I' for Inactive)
REMARK    1  A    between atoms: C_2  and  C_3 
REMARK       I    between atoms: C_3  and  N_4 
REMARK    2  A    between atoms: N_4  and  C_5 
REMARK    3  A    between atoms: C_12  and  C_13 
REMARK       I    between atoms: C_13  and  N_14 
REMARK    4  A    between atoms: C_19  and  C_20 
ROOT
HETATM    1  C   UNL     1      24.844  43.364  50.824  1.00  0.00     0.036 A 
HETATM    2  C   UNL     1      24.664  44.753  50.680  1.00  0.00     0.046 A 
HETATM    3  C   UNL     1      23.847  45.252  49.645  1.00  0.00     0.030 A 
HETATM    4  C   UNL     1      23.234  44.354  48.785  1.00  0.00     0.063 A 
HETATM    5  N   UNL     1      22.524  45.121  47.904  1.00  0.00    -0.277 N 
HETATM    6  H   UNL     1      21.952  44.798  47.132  1.00  0.00     0.189 HD
HETATM    7  N   UNL     1      22.623  46.446  48.115  1.00  0.00    -0.168 NA
HETATM    8  C   UNL     1      23.439  46.541  49.190  1.00  0.00     0.156 A 
HETATM    9  C   UNL     1      23.387  42.970  48.898  1.00  0.00     0.034 A 
HETATM   10  C   UNL     1      24.205  42.497  49.937  1.00  0.00     0.032 A 
ENDROOT
BRANCH   1  11
HETATM   11  N   UNL     1      25.694  42.948  51.875  1.00  0.00    -0.323 N 
HETATM   12  C   UNL     1      27.061  43.131  51.984  1.00  0.00     0.251 C 
HETATM   13  O   UNL     1      27.762  43.647  51.122  1.00  0.00    -0.268 OA
HETATM   14  H   UNL     1      25.220  42.456  52.616  1.00  0.00     0.169 HD
BRANCH  12  15
HETATM   15  C   UNL     1      27.657  42.646  53.293  1.00  0.00     0.007 C 
HETATM   16  C   UNL     1      28.031  41.191  53.429  1.00  0.00     0.054 C 
HETATM   17  C   UNL     1      27.867  43.455  54.355  1.00  0.00     0.025 C 
BRANCH  17  18
HETATM   18  C   UNL     1      27.604  44.895  54.518  1.00  0.00    -0.014 A 
HETATM   19  C   UNL     1      28.530  45.752  55.139  1.00  0.00     0.044 A 
HETATM   20 CL   UNL     1      30.071  45.183  55.690  1.00  0.00    -0.083 Cl
HETATM   21  C   UNL     1      28.225  47.102  55.344  1.00  0.00     0.024 A 
HETATM   22  C   UNL     1      26.994  47.611  54.935  1.00  0.00     0.002 A 
HETATM   23  C   UNL     1      26.065  46.771  54.325  1.00  0.00     0.001 A 
HETATM   24  C   UNL     1      26.364  45.420  54.127  1.00  0.00     0.013 A 
ENDBRANCH  17  18
ENDBRANCH  12  15
ENDBRANCH   1  11
BRANCH   8  25
HETATM   25  C   UNL     1      23.814  47.842  49.759  1.00  0.00     0.270 C 
HETATM   26  N   UNL     1      22.844  48.801  49.649  1.00  0.00    -0.365 N 
HETATM   27  H   UNL     1      21.969  48.556  49.202  1.00  0.00     0.159 HD
HETATM   28  H   UNL     1      23.008  49.726  50.014  1.00  0.00     0.159 HD
HETATM   29  O   UNL     1      24.892  48.081  50.293  1.00  0.00    -0.266 OA
ENDBRANCH   8  25
TORSDOF 4
ENDMDL
MODEL 8
REMARK VINA RESULT:      -8.5      3.092      7.444
REMARK  4 active torsions:
REMARK  status: ('A' for Active; 'I' for Inactive)
REMARK    1  A    between atoms: C_2  and  C_3 
REMARK       I    between atoms: C_3  and  N_4 
REMARK    2  A    between atoms: N_4  and  C_5 
REMARK    3  A    between atoms: C_12  and  C_13 
REMARK       I    between atoms: C_13  and  N_14 
REMARK    4  A    between atoms: C_19  and  C_20 
ROOT
HETATM    1  C   UNL     1      29.174  43.515  53.194  1.00  0.00     0.036 A 
HETATM    2  C   UNL     1      28.521  44.648  53.713  1.00  0.00     0.046 A 
HETATM    3  C   UNL     1      28.891  45.157  54.975  1.00  0.00     0.030 A 
HETATM    4  C   UNL     1      29.902  44.522  55.681  1.00  0.00     0.063 A 
HETATM    5  N   UNL     1      30.032  45.229  56.843  1.00  0.00    -0.277 N 
HETATM    6  H   UNL     1      30.679  45.048  57.603  1.00  0.00     0.189 HD
HETATM    7  N   UNL     1      29.190  46.272  56.957  1.00  0.00    -0.168 NA
HETATM    8  C   UNL     1      28.479  46.239  55.807  1.00  0.00     0.156 A 
HETATM    9  C   UNL     1      30.574  43.397  55.197  1.00  0.00     0.034 A 
HETATM   10  C   UNL     1      30.188  42.909  53.939  1.00  0.00     0.032 A 
ENDROOT
BRANCH   1  11
HETATM   11  N   UNL     1      28.729  43.057  51.932  1.00  0.00    -0.323 N 
HETATM   12  C   UNL     1      27.902  41.981  51.663  1.00  0.00     0.251 C 
HETATM   13  O   UNL     1      27.474  41.207  52.511  1.00  0.00    -0.268 OA
HETATM   14  H   UNL     1      29.076  43.595  51.154  1.00  0.00     0.169 HD
BRANCH  12  15
HETATM   15  C   UNL     1      27.537  41.820  50.199  1.00  0.00     0.007 C 
HETATM   16  C   UNL     1      27.996  40.586  49.463  1.00  0.00     0.054 C 
HETATM   17  C   UNL     1      26.820  42.736  49.511  1.00  0.00     0.025 C 
BRANCH  17  18
HETATM   18  C   UNL     1      26.246  44.019  49.952  1.00  0.00    -0.014 A 
HETATM   19  C   UNL     1      24.964  44.100  50.523  1.00  0.00     0.044 A 
HETATM   20 CL   UNL     1      24.003  42.688  50.810  1.00  0.00    -0.083 Cl
HETATM   21  C   UNL     1      24.415  45.340  50.868  1.00  0.00     0.024 A 
HETATM   22  C   UNL     1      25.137  46.511  50.645  1.00  0.00     0.002 A 
HETATM   23  C   UNL     1      26.406  46.444  50.073  1.00  0.00     0.001 A 
HETATM   24  C   UNL     1      26.952  45.208  49.720  1.00  0.00     0.013 A 
ENDBRANCH  17  18
ENDBRANCH  12  15
ENDBRANCH   1  11
BRANCH   8  25
HETATM   25  C   UNL     1      27.429  47.226  55.523  1.00  0.00     0.270 C 
HETATM   26  N   UNL     1      27.155  47.385  54.192  1.00  0.00    -0.365 N 
HETATM   27  H   UNL     1      27.674  46.831  53.520  1.00  0.00     0.159 HD
HETATM   28  H   UNL     1      26.447  48.039  53.899  1.00  0.00     0.159 HD
HETATM   29  O   UNL     1      26.830  47.867  56.380  1.00  0.00    -0.266 OA
ENDBRANCH   8  25
TORSDOF 4
ENDMDL
MODEL 9
REMARK VINA RESULT:      -8.3      7.661     10.863
REMARK  4 active torsions:
REMARK  status: ('A' for Active; 'I' for Inactive)
REMARK    1  A    between atoms: C_2  and  C_3 
REMARK       I    between atoms: C_3  and  N_4 
REMARK    2  A    between atoms: N_4  and  C_5 
REMARK    3  A    between atoms: C_12  and  C_13 
REMARK       I    between atoms: C_13  and  N_14 
REMARK    4  A    between atoms: C_19  and  C_20 
ROOT
HETATM    1  C   UNL     1      22.932  48.859  48.585  1.00  0.00     0.036 A 
HETATM    2  C   UNL     1      23.910  47.988  49.102  1.00  0.00     0.046 A 
HETATM    3  C   UNL     1      25.268  48.365  49.084  1.00  0.00     0.030 A 
HETATM    4  C   UNL     1      25.613  49.599  48.553  1.00  0.00     0.063 A 
HETATM    5  N   UNL     1      26.972  49.678  48.672  1.00  0.00    -0.277 N 
HETATM    6  H   UNL     1      27.569  50.446  48.384  1.00  0.00     0.189 HD
HETATM    7  N   UNL     1      27.545  48.599  49.235  1.00  0.00    -0.168 NA
HETATM    8  C   UNL     1      26.501  47.779  49.495  1.00  0.00     0.156 A 
HETATM    9  C   UNL     1      24.671  50.490  48.034  1.00  0.00     0.034 A 
HETATM   10  C   UNL     1      23.325  50.092  48.062  1.00  0.00     0.032 A 
ENDROOT
BRANCH   1  11
HETATM   11  N   UNL     1      21.596  48.396  48.622  1.00  0.00    -0.323 N 
HETATM   12  C   UNL     1      20.951  47.590  47.701  1.00  0.00     0.251 C 
HETATM   13  O   UNL     1      21.450  47.201  46.652  1.00  0.00    -0.268 OA
HETATM   14  H   UNL     1      21.074  48.711  49.424  1.00  0.00     0.169 HD
BRANCH  12  15
HETATM   15  C   UNL     1      19.539  47.196  48.092  1.00  0.00     0.007 C 
HETATM   16  C   UNL     1      19.157  45.737  48.073  1.00  0.00     0.054 C 
HETATM   17  C   UNL     1      18.595  48.092  48.454  1.00  0.00     0.025 C 
BRANCH  17  18
HETATM   18  C   UNL     1      18.670  49.559  48.563  1.00  0.00    -0.014 A 
HETATM   19  C   UNL     1      18.743  50.207  49.809  1.00  0.00     0.044 A 
HETATM   20 CL   UNL     1      18.821  49.320  51.295  1.00  0.00    -0.083 Cl
HETATM   21  C   UNL     1      18.743  51.604  49.887  1.00  0.00     0.024 A 
HETATM   22  C   UNL     1      18.666  52.369  48.724  1.00  0.00     0.002 A 
HETATM   23  C   UNL     1      18.586  51.739  47.484  1.00  0.00     0.001 A 
HETATM   24  C   UNL     1      18.577  50.344  47.405  1.00  0.00     0.013 A 
ENDBRANCH  17  18
ENDBRANCH  12  15
ENDBRANCH   1  11
BRANCH   8  25
HETATM   25  C   UNL     1      26.694  46.465  50.122  1.00  0.00     0.270 C 
HETATM   26  N   UNL     1      26.166  46.362  51.380  1.00  0.00    -0.365 N 
HETATM   27  H   UNL     1      25.695  47.167  51.776  1.00  0.00     0.159 HD
HETATM   28  H   UNL     1      26.245  45.497  51.890  1.00  0.00     0.159 HD
HETATM   29  O   UNL     1      27.272  45.522  49.592  1.00  0.00    -0.266 OA
ENDBRANCH   8  25
TORSDOF 4
ENDMDL
MODEL 10
REMARK VINA RESULT:      -8.0      7.303     10.464
REMARK  4 active torsions:
REMARK  status: ('A' for Active; 'I' for Inactive)
REMARK    1  A    between atoms: C_2  and  C_3 
REMARK       I    between atoms: C_3  and  N_4 
REMARK    2  A    between atoms: N_4  and  C_5 
REMARK    3  A    between atoms: C_12  and  C_13 
REMARK       I    between atoms: C_13  and  N_14 
REMARK    4  A    between atoms: C_19  and  C_20 
ROOT
HETATM    1  C   UNL     1      23.197  49.637  48.456  1.00  0.00     0.036 A 
HETATM    2  C   UNL     1      23.386  48.458  49.201  1.00  0.00     0.046 A 
HETATM    3  C   UNL     1      24.691  48.004  49.481  1.00  0.00     0.030 A 
HETATM    4  C   UNL     1      25.769  48.739  49.012  1.00  0.00     0.063 A 
HETATM    5  N   UNL     1      26.880  48.063  49.432  1.00  0.00    -0.277 N 
HETATM    6  H   UNL     1      27.849  48.313  49.267  1.00  0.00     0.189 HD
HETATM    7  N   UNL     1      26.619  46.947  50.135  1.00  0.00    -0.168 NA
HETATM    8  C   UNL     1      25.267  46.899  50.173  1.00  0.00     0.156 A 
HETATM    9  C   UNL     1      25.621  49.915  48.272  1.00  0.00     0.034 A 
HETATM   10  C   UNL     1      24.312  50.346  48.006  1.00  0.00     0.032 A 
ENDROOT
BRANCH   1  11
HETATM   11  N   UNL     1      21.857  50.011  48.202  1.00  0.00    -0.323 N 
HETATM   12  C   UNL     1      20.993  50.694  49.040  1.00  0.00     0.251 C 
HETATM   13  O   UNL     1      21.261  51.028  50.188  1.00  0.00    -0.268 OA
HETATM   14  H   UNL     1      21.516  49.728  47.297  1.00  0.00     0.169 HD
BRANCH  12  15
HETATM   15  C   UNL     1      19.648  51.024  48.421  1.00  0.00     0.007 C 
HETATM   16  C   UNL     1      19.165  52.452  48.443  1.00  0.00     0.054 C 
HETATM   17  C   UNL     1      18.848  50.095  47.850  1.00  0.00     0.025 C 
BRANCH  17  18
HETATM   18  C   UNL     1      19.046  48.645  47.685  1.00  0.00    -0.014 A 
HETATM   19  C   UNL     1      18.998  47.761  48.777  1.00  0.00     0.044 A 
HETATM   20 CL   UNL     1      18.633  48.309  50.379  1.00  0.00    -0.083 Cl
HETATM   21  C   UNL     1      19.259  46.397  48.602  1.00  0.00     0.024 A 
HETATM   22  C   UNL     1      19.574  45.903  47.337  1.00  0.00     0.002 A 
HETATM   23  C   UNL     1      19.632  46.769  46.249  1.00  0.00     0.001 A 
HETATM   24  C   UNL     1      19.380  48.132  46.423  1.00  0.00     0.013 A 
ENDBRANCH  17  18
ENDBRANCH  12  15
ENDBRANCH   1  11
BRANCH   8  25
HETATM   25  C   UNL     1      24.555  45.813  50.859  1.00  0.00     0.270 C 
HETATM   26  N   UNL     1      23.614  45.186  50.089  1.00  0.00    -0.365 N 
HETATM   27  H   UNL     1      23.480  45.502  49.135  1.00  0.00     0.159 HD
HETATM   28  H   UNL     1      23.076  44.426  50.472  1.00  0.00     0.159 HD
HETATM   29  O   UNL     1      24.763  45.471  52.019  1.00  0.00    -0.266 OA
ENDBRANCH   8  25
TORSDOF 4
ENDMDL
