MODEL 1
REMARK VINA RESULT:      -8.5      0.000      0.000
REMARK  5 active torsions:
REMARK  status: ('A' for Active; 'I' for Inactive)
REMARK    1  A    between atoms: C_6  and  N_7 
REMARK       I    between atoms: N_7  and  C_8 
REMARK    2  A    between atoms: C_8  and  C_9 
REMARK    3  A    between atoms: C_9  and  C_10 
REMARK    4  A    between atoms: C_12  and  O_13 
REMARK    5  A    between atoms: C_19  and  C_20 
ROOT
HETATM    1  C   UNL     1      31.372  43.203  56.976  1.00  0.00     0.073 C 
HETATM    2  C   UNL     1      30.570  44.375  56.542  1.00  0.00     0.065 A 
HETATM    3  N   UNL     1      30.682  45.539  57.192  1.00  0.00    -0.177 NA
HETATM    4  N   UNL     1      29.841  46.358  56.537  1.00  0.00    -0.262 N 
HETATM    5  H   UNL     1      29.757  47.329  56.826  1.00  0.00     0.191 HD
HETATM    6  C   UNL     1      29.158  45.750  55.514  1.00  0.00     0.137 A 
HETATM    7  C   UNL     1      29.640  44.456  55.466  1.00  0.00     0.046 A 
ENDROOT
BRANCH   6   8
HETATM    8  N   UNL     1      28.206  46.386  54.738  1.00  0.00    -0.311 N 
HETATM    9  C   UNL     1      27.238  47.211  55.289  1.00  0.00     0.227 C 
HETATM   10  O   UNL     1      27.164  47.487  56.486  1.00  0.00    -0.273 OA
HETATM   11  H   UNL     1      28.261  46.276  53.732  1.00  0.00     0.170 HD
BRANCH   9  12
HETATM   12  C   UNL     1      26.214  47.698  54.283  1.00  0.00     0.141 C 
BRANCH  12  13
HETATM   13  C   UNL     1      25.919  46.812  53.091  1.00  0.00    -0.047 A 
HETATM   14  C   UNL     1      25.366  45.523  53.186  1.00  0.00     0.044 A 
HETATM   15  C   UNL     1      25.018  44.804  52.038  1.00  0.00     0.068 A 
HETATM   16  C   UNL     1      25.255  45.358  50.780  1.00  0.00     0.037 A 
HETATM   17  C   UNL     1      25.811  46.629  50.663  1.00  0.00     0.003 A 
HETATM   18  C   UNL     1      26.130  47.354  51.810  1.00  0.00     0.007 A 
BRANCH  15  19
HETATM   19  O   UNL     1      24.447  43.561  52.014  1.00  0.00    -0.356 OA
HETATM   20  C   UNL     1      24.711  42.752  50.874  1.00  0.00     0.210 C 
ENDBRANCH  15  19
ENDBRANCH  12  13
ENDBRANCH   9  12
ENDBRANCH   6   8
BRANCH   7  21
HETATM   21  C   UNL     1      29.288  43.481  54.454  1.00  0.00    -0.020 A 
HETATM   22  C   UNL     1      30.283  42.972  53.610  1.00  0.00     0.014 A 
HETATM   23  C   UNL     1      29.959  42.054  52.609  1.00  0.00     0.020 A 
HETATM   24  C   UNL     1      28.638  41.645  52.451  1.00  0.00     0.011 A 
HETATM   25 BR   UNL     1      28.195  40.412  51.088  1.00  0.00    -0.051 Br
HETATM   26  C   UNL     1      27.638  42.138  53.289  1.00  0.00     0.020 A 
HETATM   27  C   UNL     1      27.963  43.053  54.295  1.00  0.00     0.014 A 
ENDBRANCH   7  21
TORSDOF 5
ENDMDL
MODEL 2
REMARK VINA RESULT:      -8.3      3.755      5.467
REMARK  5 active torsions:
REMARK  status: ('A' for Active; 'I' for Inactive)
REMARK    1  A    between atoms: C_6  and  N_7 
REMARK       I    between atoms: N_7  and  C_8 
REMARK    2  A    between atoms: C_8  and  C_9 
REMARK    3  A    between atoms: C_9  and  C_10 
REMARK    4  A    between atoms: C_12  and  O_13 
REMARK    5  A    between atoms: C_19  and  C_20 
ROOT
HETATM    1  C   UNL     1      28.860  40.490  52.379  1.00  0.00     0.073 C 
HETATM    2  C   UNL     1      27.896  41.532  51.944  1.00  0.00     0.065 A 
HETATM    3  N   UNL     1      27.033  41.272  50.954  1.00  0.00    -0.177 NA
HETATM    4  N   UNL     1      26.324  42.407  50.835  1.00  0.00    -0.262 N 
HETATM    5  H   UNL     1      25.572  42.462  50.154  1.00  0.00     0.191 HD
HETATM    6  C   UNL     1      26.729  43.406  51.685  1.00  0.00     0.137 A 
HETATM    7  C   UNL     1      27.735  42.853  52.452  1.00  0.00     0.046 A 
ENDROOT
BRANCH   6   8
HETATM    8  N   UNL     1      26.176  44.674  51.702  1.00  0.00    -0.311 N 
HETATM    9  C   UNL     1      26.316  45.554  50.640  1.00  0.00     0.227 C 
HETATM   10  O   UNL     1      26.893  45.281  49.587  1.00  0.00    -0.273 OA
HETATM   11  H   UNL     1      25.611  44.936  52.502  1.00  0.00     0.170 HD
BRANCH   9  12
HETATM   12  C   UNL     1      25.752  46.933  50.918  1.00  0.00     0.141 C 
BRANCH  12  13
HETATM   13  C   UNL     1      25.929  47.994  49.853  1.00  0.00    -0.047 A 
HETATM   14  C   UNL     1      24.869  48.555  49.117  1.00  0.00     0.044 A 
HETATM   15  C   UNL     1      25.093  49.610  48.226  1.00  0.00     0.068 A 
HETATM   16  C   UNL     1      26.389  50.091  48.039  1.00  0.00     0.037 A 
HETATM   17  C   UNL     1      27.453  49.544  48.750  1.00  0.00     0.003 A 
HETATM   18  C   UNL     1      27.223  48.511  49.658  1.00  0.00     0.007 A 
BRANCH  15  19
HETATM   19  O   UNL     1      24.136  50.248  47.485  1.00  0.00    -0.356 OA
HETATM   20  C   UNL     1      22.780  49.927  47.769  1.00  0.00     0.210 C 
ENDBRANCH  15  19
ENDBRANCH  12  13
ENDBRANCH   9  12
ENDBRANCH   6   8
BRANCH   7  21
HETATM   21  C   UNL     1      28.378  43.512  53.570  1.00  0.00    -0.020 A 
HETATM   22  C   UNL     1      27.714  44.553  54.233  1.00  0.00     0.014 A 
HETATM   23  C   UNL     1      28.328  45.222  55.293  1.00  0.00     0.020 A 
HETATM   24  C   UNL     1      29.610  44.850  55.691  1.00  0.00     0.011 A 
HETATM   25 BR   UNL     1      30.448  45.762  57.119  1.00  0.00    -0.051 Br
HETATM   26  C   UNL     1      30.280  43.811  55.046  1.00  0.00     0.020 A 
HETATM   27  C   UNL     1      29.662  43.139  53.987  1.00  0.00     0.014 A 
ENDBRANCH   7  21
TORSDOF 5
ENDMDL
MODEL 3
REMARK VINA RESULT:      -8.2      3.493      6.624
REMARK  5 active torsions:
REMARK  status: ('A' for Active; 'I' for Inactive)
REMARK    1  A    between atoms: C_6  and  N_7 
REMARK       I    between atoms: N_7  and  C_8 
REMARK    2  A    between atoms: C_8  and  C_9 
REMARK    3  A    between atoms: C_9  and  C_10 
REMARK    4  A    between atoms: C_12  and  O_13 
REMARK    5  A    between atoms: C_19  and  C_20 
ROOT
HETATM    1  C   UNL     1      25.025  40.622  48.957  1.00  0.00     0.073 C 
HETATM    2  C   UNL     1      26.307  40.538  49.702  1.00  0.00     0.065 A 
HETATM    3  N   UNL     1      27.009  39.398  49.697  1.00  0.00    -0.177 NA
HETATM    4  N   UNL     1      28.089  39.680  50.444  1.00  0.00    -0.262 N 
HETATM    5  H   UNL     1      28.806  38.973  50.579  1.00  0.00     0.191 HD
HETATM    6  C   UNL     1      28.088  40.950  50.966  1.00  0.00     0.137 A 
HETATM    7  C   UNL     1      26.949  41.553  50.469  1.00  0.00     0.046 A 
ENDROOT
BRANCH   6   8
HETATM    8  N   UNL     1      29.074  41.439  51.804  1.00  0.00    -0.311 N 
HETATM    9  C   UNL     1      28.903  41.515  53.178  1.00  0.00     0.227 C 
HETATM   10  O   UNL     1      27.900  41.121  53.773  1.00  0.00    -0.273 OA
HETATM   11  H   UNL     1      29.962  41.700  51.392  1.00  0.00     0.170 HD
BRANCH   9  12
HETATM   12  C   UNL     1      30.047  42.205  53.893  1.00  0.00     0.141 C 
BRANCH  12  13
HETATM   13  C   UNL     1      29.769  43.547  54.538  1.00  0.00    -0.047 A 
HETATM   14  C   UNL     1      28.699  44.386  54.179  1.00  0.00     0.044 A 
HETATM   15  C   UNL     1      28.438  45.561  54.892  1.00  0.00     0.068 A 
HETATM   16  C   UNL     1      29.270  45.923  55.951  1.00  0.00     0.037 A 
HETATM   17  C   UNL     1      30.341  45.112  56.316  1.00  0.00     0.003 A 
HETATM   18  C   UNL     1      30.581  43.928  55.622  1.00  0.00     0.007 A 
BRANCH  15  19
HETATM   19  O   UNL     1      27.410  46.431  54.651  1.00  0.00    -0.356 OA
HETATM   20  C   UNL     1      27.700  47.818  54.767  1.00  0.00     0.210 C 
ENDBRANCH  15  19
ENDBRANCH  12  13
ENDBRANCH   9  12
ENDBRANCH   6   8
BRANCH   7  21
HETATM   21  C   UNL     1      26.601  42.945  50.661  1.00  0.00    -0.020 A 
HETATM   22  C   UNL     1      26.954  43.886  49.685  1.00  0.00     0.014 A 
HETATM   23  C   UNL     1      26.655  45.238  49.866  1.00  0.00     0.020 A 
HETATM   24  C   UNL     1      26.002  45.649  51.025  1.00  0.00     0.011 A 
HETATM   25 BR   UNL     1      25.606  47.481  51.277  1.00  0.00    -0.051 Br
HETATM   26  C   UNL     1      25.638  44.723  52.001  1.00  0.00     0.020 A 
HETATM   27  C   UNL     1      25.934  43.369  51.818  1.00  0.00     0.014 A 
ENDBRANCH   7  21
TORSDOF 5
ENDMDL
MODEL 4
REMARK VINA RESULT:      -7.8      3.895      5.803
REMARK  5 active torsions:
REMARK  status: ('A' for Active; 'I' for Inactive)
REMARK    1  A    between atoms: C_6  and  N_7 
REMARK       I    between atoms: N_7  and  C_8 
REMARK    2  A    between atoms: C_8  and  C_9 
REMARK    3  A    between atoms: C_9  and  C_10 
REMARK    4  A    between atoms: C_12  and  O_13 
REMARK    5  A    between atoms: C_19  and  C_20 
ROOT
HETATM    1  C   UNL     1      26.565  40.092  50.859  1.00  0.00     0.073 C 
HETATM    2  C   UNL     1      26.012  41.448  50.616  1.00  0.00     0.065 A 
HETATM    3  N   UNL     1      24.989  41.610  49.766  1.00  0.00    -0.177 NA
HETATM    4  N   UNL     1      24.748  42.932  49.799  1.00  0.00    -0.262 N 
HETATM    5  H   UNL     1      23.987  43.318  49.247  1.00  0.00     0.191 HD
HETATM    6  C   UNL     1      25.608  43.634  50.607  1.00  0.00     0.137 A 
HETATM    7  C   UNL     1      26.427  42.685  51.187  1.00  0.00     0.046 A 
ENDROOT
BRANCH   6   8
HETATM    8  N   UNL     1      25.577  45.009  50.753  1.00  0.00    -0.311 N 
HETATM    9  C   UNL     1      26.477  45.840  50.103  1.00  0.00     0.227 C 
HETATM   10  O   UNL     1      27.338  45.446  49.317  1.00  0.00    -0.273 OA
HETATM   11  H   UNL     1      24.837  45.411  51.316  1.00  0.00     0.170 HD
BRANCH   9  12
HETATM   12  C   UNL     1      26.356  47.296  50.506  1.00  0.00     0.141 C 
BRANCH  12  13
HETATM   13  C   UNL     1      25.587  48.220  49.587  1.00  0.00    -0.047 A 
HETATM   14  C   UNL     1      24.184  48.259  49.503  1.00  0.00     0.044 A 
HETATM   15  C   UNL     1      23.537  49.214  48.712  1.00  0.00     0.068 A 
HETATM   16  C   UNL     1      24.294  50.120  47.970  1.00  0.00     0.037 A 
HETATM   17  C   UNL     1      25.684  50.094  48.031  1.00  0.00     0.003 A 
HETATM   18  C   UNL     1      26.325  49.158  48.842  1.00  0.00     0.007 A 
BRANCH  15  19
HETATM   19  O   UNL     1      22.183  49.362  48.582  1.00  0.00    -0.356 OA
HETATM   20  C   UNL     1      21.726  50.466  47.811  1.00  0.00     0.210 C 
ENDBRANCH  15  19
ENDBRANCH  12  13
ENDBRANCH   9  12
ENDBRANCH   6   8
BRANCH   7  21
HETATM   21  C   UNL     1      27.414  42.962  52.210  1.00  0.00    -0.020 A 
HETATM   22  C   UNL     1      28.772  42.751  51.935  1.00  0.00     0.014 A 
HETATM   23  C   UNL     1      29.736  42.982  52.918  1.00  0.00     0.020 A 
HETATM   24  C   UNL     1      29.342  43.424  54.179  1.00  0.00     0.011 A 
HETATM   25 BR   UNL     1      30.645  43.725  55.515  1.00  0.00    -0.051 Br
HETATM   26  C   UNL     1      27.995  43.644  54.464  1.00  0.00     0.020 A 
HETATM   27  C   UNL     1      27.030  43.417  53.478  1.00  0.00     0.014 A 
ENDBRANCH   7  21
TORSDOF 5
ENDMDL
MODEL 5
REMARK VINA RESULT:      -7.8      1.807      2.514
REMARK  5 active torsions:
REMARK  status: ('A' for Active; 'I' for Inactive)
REMARK    1  A    between atoms: C_6  and  N_7 
REMARK       I    between atoms: N_7  and  C_8 
REMARK    2  A    between atoms: C_8  and  C_9 
REMARK    3  A    between atoms: C_9  and  C_10 
REMARK    4  A    between atoms: C_12  and  O_13 
REMARK    5  A    between atoms: C_19  and  C_20 
ROOT
HETATM    1  C   UNL     1      31.449  43.132  56.369  1.00  0.00     0.073 C 
HETATM    2  C   UNL     1      30.480  44.214  56.061  1.00  0.00     0.065 A 
HETATM    3  N   UNL     1      30.500  45.350  56.768  1.00  0.00    -0.177 NA
HETATM    4  N   UNL     1      29.518  46.088  56.224  1.00  0.00    -0.262 N 
HETATM    5  H   UNL     1      29.340  47.026  56.573  1.00  0.00     0.191 HD
HETATM    6  C   UNL     1      28.836  45.450  55.217  1.00  0.00     0.137 A 
HETATM    7  C   UNL     1      29.466  44.231  55.060  1.00  0.00     0.046 A 
ENDROOT
BRANCH   6   8
HETATM    8  N   UNL     1      27.757  46.000  54.549  1.00  0.00    -0.311 N 
HETATM    9  C   UNL     1      26.506  45.403  54.553  1.00  0.00     0.227 C 
HETATM   10  O   UNL     1      26.231  44.377  55.175  1.00  0.00    -0.273 OA
HETATM   11  H   UNL     1      27.887  46.893  54.088  1.00  0.00     0.170 HD
BRANCH   9  12
HETATM   12  C   UNL     1      25.503  46.093  53.651  1.00  0.00     0.141 C 
BRANCH  12  13
HETATM   13  C   UNL     1      25.850  46.228  52.184  1.00  0.00    -0.047 A 
HETATM   14  C   UNL     1      25.999  47.459  51.520  1.00  0.00     0.044 A 
HETATM   15  C   UNL     1      26.429  47.511  50.190  1.00  0.00     0.068 A 
HETATM   16  C   UNL     1      26.681  46.324  49.501  1.00  0.00     0.037 A 
HETATM   17  C   UNL     1      26.530  45.095  50.136  1.00  0.00     0.003 A 
HETATM   18  C   UNL     1      26.128  45.048  51.470  1.00  0.00     0.007 A 
BRANCH  15  19
HETATM   19  O   UNL     1      26.637  48.649  49.459  1.00  0.00    -0.356 OA
HETATM   20  C   UNL     1      25.506  49.214  48.810  1.00  0.00     0.210 C 
ENDBRANCH  15  19
ENDBRANCH  12  13
ENDBRANCH   9  12
ENDBRANCH   6   8
BRANCH   7  21
HETATM   21  C   UNL     1      29.157  43.270  54.022  1.00  0.00    -0.020 A 
HETATM   22  C   UNL     1      28.747  41.978  54.377  1.00  0.00     0.014 A 
HETATM   23  C   UNL     1      28.474  41.028  53.391  1.00  0.00     0.020 A 
HETATM   24  C   UNL     1      28.611  41.369  52.048  1.00  0.00     0.011 A 
HETATM   25 BR   UNL     1      28.254  40.080  50.713  1.00  0.00    -0.051 Br
HETATM   26  C   UNL     1      29.011  42.653  51.681  1.00  0.00     0.020 A 
HETATM   27  C   UNL     1      29.280  43.606  52.668  1.00  0.00     0.014 A 
ENDBRANCH   7  21
TORSDOF 5
ENDMDL
MODEL 6
REMARK VINA RESULT:      -7.7      3.849      7.037
REMARK  5 active torsions:
REMARK  status: ('A' for Active; 'I' for Inactive)
REMARK    1  A    between atoms: C_6  and  N_7 
REMARK       I    between atoms: N_7  and  C_8 
REMARK    2  A    between atoms: C_8  and  C_9 
REMARK    3  A    between atoms: C_9  and  C_10 
REMARK    4  A    between atoms: C_12  and  O_13 
REMARK    5  A    between atoms: C_19  and  C_20 
ROOT
HETATM    1  C   UNL     1      27.795  39.885  47.106  1.00  0.00     0.073 C 
HETATM    2  C   UNL     1      28.162  39.941  48.543  1.00  0.00     0.065 A 
HETATM    3  N   UNL     1      29.179  39.200  49.002  1.00  0.00    -0.177 NA
HETATM    4  N   UNL     1      29.233  39.500  50.311  1.00  0.00    -0.262 N 
HETATM    5  H   UNL     1      29.950  39.080  50.895  1.00  0.00     0.191 HD
HETATM    6  C   UNL     1      28.259  40.376  50.720  1.00  0.00     0.137 A 
HETATM    7  C   UNL     1      27.561  40.714  49.577  1.00  0.00     0.046 A 
ENDROOT
BRANCH   6   8
HETATM    8  N   UNL     1      28.093  40.787  52.031  1.00  0.00    -0.311 N 
HETATM    9  C   UNL     1      28.725  41.912  52.537  1.00  0.00     0.227 C 
HETATM   10  O   UNL     1      29.439  42.662  51.871  1.00  0.00    -0.273 OA
HETATM   11  H   UNL     1      27.448  40.267  52.615  1.00  0.00     0.170 HD
BRANCH   9  12
HETATM   12  C   UNL     1      28.518  42.106  54.026  1.00  0.00     0.141 C 
BRANCH  12  13
HETATM   13  C   UNL     1      29.121  43.337  54.667  1.00  0.00    -0.047 A 
HETATM   14  C   UNL     1      28.470  44.581  54.749  1.00  0.00     0.044 A 
HETATM   15  C   UNL     1      29.042  45.646  55.453  1.00  0.00     0.068 A 
HETATM   16  C   UNL     1      30.290  45.483  56.054  1.00  0.00     0.037 A 
HETATM   17  C   UNL     1      30.956  44.263  55.977  1.00  0.00     0.003 A 
HETATM   18  C   UNL     1      30.370  43.195  55.298  1.00  0.00     0.007 A 
BRANCH  15  19
HETATM   19  O   UNL     1      28.485  46.884  55.622  1.00  0.00    -0.356 OA
HETATM   20  C   UNL     1      27.218  47.110  55.019  1.00  0.00     0.210 C 
ENDBRANCH  15  19
ENDBRANCH  12  13
ENDBRANCH   9  12
ENDBRANCH   6   8
BRANCH   7  21
HETATM   21  C   UNL     1      26.513  41.712  49.514  1.00  0.00    -0.020 A 
HETATM   22  C   UNL     1      25.177  41.303  49.406  1.00  0.00     0.014 A 
HETATM   23  C   UNL     1      24.154  42.250  49.313  1.00  0.00     0.020 A 
HETATM   24  C   UNL     1      24.468  43.606  49.327  1.00  0.00     0.011 A 
HETATM   25 BR   UNL     1      23.086  44.889  49.188  1.00  0.00    -0.051 Br
HETATM   26  C   UNL     1      25.792  44.026  49.441  1.00  0.00     0.020 A 
HETATM   27  C   UNL     1      26.816  43.079  49.539  1.00  0.00     0.014 A 
ENDBRANCH   7  21
TORSDOF 5
ENDMDL
MODEL 7
REMARK VINA RESULT:      -7.7      2.988      6.514
REMARK  5 active torsions:
REMARK  status: ('A' for Active; 'I' for Inactive)
REMARK    1  A    between atoms: C_6  and  N_7 
REMARK       I    between atoms: N_7  and  C_8 
REMARK    2  A    between atoms: C_8  and  C_9 
REMARK    3  A    between atoms: C_9  and  C_10 
REMARK    4  A    between atoms: C_12  and  O_13 
REMARK    5  A    between atoms: C_19  and  C_20 
ROOT
HETATM    1  C   UNL     1      22.873  41.976  48.694  1.00  0.00     0.073 C 
HETATM    2  C   UNL     1      23.445  42.958  49.650  1.00  0.00     0.065 A 
HETATM    3  N   UNL     1      22.677  43.939  50.139  1.00  0.00    -0.177 NA
HETATM    4  N   UNL     1      23.499  44.615  50.960  1.00  0.00    -0.262 N 
HETATM    5  H   UNL     1      23.144  45.410  51.484  1.00  0.00     0.191 HD
HETATM    6  C   UNL     1      24.782  44.129  50.984  1.00  0.00     0.137 A 
HETATM    7  C   UNL     1      24.773  43.019  50.162  1.00  0.00     0.046 A 
ENDROOT
BRANCH   6   8
HETATM    8  N   UNL     1      25.808  44.698  51.718  1.00  0.00    -0.311 N 
HETATM    9  C   UNL     1      25.821  44.679  53.104  1.00  0.00     0.227 C 
HETATM   10  O   UNL     1      24.965  44.126  53.796  1.00  0.00    -0.273 OA
HETATM   11  H   UNL     1      26.592  45.094  51.212  1.00  0.00     0.170 HD
BRANCH   9  12
HETATM   12  C   UNL     1      26.960  45.474  53.710  1.00  0.00     0.141 C 
BRANCH  12  13
HETATM   13  C   UNL     1      28.185  44.712  54.169  1.00  0.00    -0.047 A 
HETATM   14  C   UNL     1      29.072  45.170  55.159  1.00  0.00     0.044 A 
HETATM   15  C   UNL     1      30.122  44.365  55.612  1.00  0.00     0.068 A 
HETATM   16  C   UNL     1      30.313  43.102  55.050  1.00  0.00     0.037 A 
HETATM   17  C   UNL     1      29.452  42.633  54.062  1.00  0.00     0.003 A 
HETATM   18  C   UNL     1      28.390  43.427  53.633  1.00  0.00     0.007 A 
BRANCH  15  19
HETATM   19  O   UNL     1      31.022  44.696  56.588  1.00  0.00    -0.356 OA
HETATM   20  C   UNL     1      30.502  45.295  57.768  1.00  0.00     0.210 C 
ENDBRANCH  15  19
ENDBRANCH  12  13
ENDBRANCH   9  12
ENDBRANCH   6   8
BRANCH   7  21
HETATM   21  C   UNL     1      25.890  42.115  49.983  1.00  0.00    -0.020 A 
HETATM   22  C   UNL     1      26.567  42.089  48.756  1.00  0.00     0.014 A 
HETATM   23  C   UNL     1      27.627  41.204  48.552  1.00  0.00     0.020 A 
HETATM   24  C   UNL     1      28.011  40.342  49.576  1.00  0.00     0.011 A 
HETATM   25 BR   UNL     1      29.438  39.134  49.298  1.00  0.00    -0.051 Br
HETATM   26  C   UNL     1      27.351  40.362  50.804  1.00  0.00     0.020 A 
HETATM   27  C   UNL     1      26.293  41.252  51.010  1.00  0.00     0.014 A 
ENDBRANCH   7  21
TORSDOF 5
ENDMDL
MODEL 8
REMARK VINA RESULT:      -7.6      3.462      5.729
REMARK  5 active torsions:
REMARK  status: ('A' for Active; 'I' for Inactive)
REMARK    1  A    between atoms: C_6  and  N_7 
REMARK       I    between atoms: N_7  and  C_8 
REMARK    2  A    between atoms: C_8  and  C_9 
REMARK    3  A    between atoms: C_9  and  C_10 
REMARK    4  A    between atoms: C_12  and  O_13 
REMARK    5  A    between atoms: C_19  and  C_20 
ROOT
HETATM    1  C   UNL     1      29.077  38.886  50.214  1.00  0.00     0.073 C 
HETATM    2  C   UNL     1      27.769  39.588  50.209  1.00  0.00     0.065 A 
HETATM    3  N   UNL     1      26.769  39.133  49.444  1.00  0.00    -0.177 NA
HETATM    4  N   UNL     1      25.759  39.983  49.691  1.00  0.00    -0.262 N 
HETATM    5  H   UNL     1      24.859  39.840  49.242  1.00  0.00     0.191 HD
HETATM    6  C   UNL     1      26.085  40.996  50.558  1.00  0.00     0.137 A 
HETATM    7  C   UNL     1      27.387  40.746  50.946  1.00  0.00     0.046 A 
ENDROOT
BRANCH   6   8
HETATM    8  N   UNL     1      25.218  42.012  50.917  1.00  0.00    -0.311 N 
HETATM    9  C   UNL     1      24.731  42.926  49.995  1.00  0.00     0.227 C 
HETATM   10  O   UNL     1      24.981  42.893  48.790  1.00  0.00    -0.273 OA
HETATM   11  H   UNL     1      24.897  42.047  51.878  1.00  0.00     0.170 HD
BRANCH   9  12
HETATM   12  C   UNL     1      23.906  44.034  50.619  1.00  0.00     0.141 C 
BRANCH  12  13
HETATM   13  C   UNL     1      24.638  45.095  51.414  1.00  0.00    -0.047 A 
HETATM   14  C   UNL     1      25.104  44.911  52.728  1.00  0.00     0.044 A 
HETATM   15  C   UNL     1      25.868  45.896  53.363  1.00  0.00     0.068 A 
HETATM   16  C   UNL     1      26.143  47.091  52.698  1.00  0.00     0.037 A 
HETATM   17  C   UNL     1      25.682  47.297  51.400  1.00  0.00     0.003 A 
HETATM   18  C   UNL     1      24.945  46.302  50.760  1.00  0.00     0.007 A 
BRANCH  15  19
HETATM   19  O   UNL     1      26.398  45.811  54.622  1.00  0.00    -0.356 OA
HETATM   20  C   UNL     1      27.611  46.512  54.860  1.00  0.00     0.210 C 
ENDBRANCH  15  19
ENDBRANCH  12  13
ENDBRANCH   9  12
ENDBRANCH   6   8
BRANCH   7  21
HETATM   21  C   UNL     1      28.107  41.497  51.954  1.00  0.00    -0.020 A 
HETATM   22  C   UNL     1      28.451  40.876  53.162  1.00  0.00     0.014 A 
HETATM   23  C   UNL     1      29.118  41.591  54.158  1.00  0.00     0.020 A 
HETATM   24  C   UNL     1      29.442  42.928  53.947  1.00  0.00     0.011 A 
HETATM   25 BR   UNL     1      30.334  43.901  55.300  1.00  0.00    -0.051 Br
HETATM   26  C   UNL     1      29.113  43.556  52.746  1.00  0.00     0.020 A 
HETATM   27  C   UNL     1      28.449  42.839  51.747  1.00  0.00     0.014 A 
ENDBRANCH   7  21
TORSDOF 5
ENDMDL
MODEL 9
REMARK VINA RESULT:      -7.5      2.798      6.786
REMARK  5 active torsions:
REMARK  status: ('A' for Active; 'I' for Inactive)
REMARK    1  A    between atoms: C_6  and  N_7 
REMARK       I    between atoms: N_7  and  C_8 
REMARK    2  A    between atoms: C_8  and  C_9 
REMARK    3  A    between atoms: C_9  and  C_10 
REMARK    4  A    between atoms: C_12  and  O_13 
REMARK    5  A    between atoms: C_19  and  C_20 
ROOT
HETATM    1  C   UNL     1      23.660  47.638  49.291  1.00  0.00     0.073 C 
HETATM    2  C   UNL     1      24.627  47.065  50.261  1.00  0.00     0.065 A 
HETATM    3  N   UNL     1      25.281  47.870  51.107  1.00  0.00    -0.177 NA
HETATM    4  N   UNL     1      26.044  47.031  51.828  1.00  0.00    -0.262 N 
HETATM    5  H   UNL     1      26.632  47.398  52.571  1.00  0.00     0.191 HD
HETATM    6  C   UNL     1      25.938  45.717  51.446  1.00  0.00     0.137 A 
HETATM    7  C   UNL     1      24.988  45.699  50.444  1.00  0.00     0.046 A 
ENDROOT
BRANCH   6   8
HETATM    8  N   UNL     1      26.668  44.688  52.015  1.00  0.00    -0.311 N 
HETATM    9  C   UNL     1      26.210  43.979  53.114  1.00  0.00     0.227 C 
HETATM   10  O   UNL     1      25.115  44.161  53.648  1.00  0.00    -0.273 OA
HETATM   11  H   UNL     1      27.540  44.423  51.573  1.00  0.00     0.170 HD
BRANCH   9  12
HETATM   12  C   UNL     1      27.219  42.990  53.661  1.00  0.00     0.141 C 
BRANCH  12  13
HETATM   13  C   UNL     1      28.415  43.542  54.407  1.00  0.00    -0.047 A 
HETATM   14  C   UNL     1      28.378  44.698  55.207  1.00  0.00     0.044 A 
HETATM   15  C   UNL     1      29.493  45.090  55.955  1.00  0.00     0.068 A 
HETATM   16  C   UNL     1      30.669  44.343  55.882  1.00  0.00     0.037 A 
HETATM   17  C   UNL     1      30.730  43.200  55.090  1.00  0.00     0.003 A 
HETATM   18  C   UNL     1      29.608  42.797  54.366  1.00  0.00     0.007 A 
BRANCH  15  19
HETATM   19  O   UNL     1      29.558  46.174  56.787  1.00  0.00    -0.356 OA
HETATM   20  C   UNL     1      30.328  46.031  57.974  1.00  0.00     0.210 C 
ENDBRANCH  15  19
ENDBRANCH  12  13
ENDBRANCH   9  12
ENDBRANCH   6   8
BRANCH   7  21
HETATM   21  C   UNL     1      24.464  44.499  49.824  1.00  0.00    -0.020 A 
HETATM   22  C   UNL     1      25.318  43.683  49.070  1.00  0.00     0.014 A 
HETATM   23  C   UNL     1      24.826  42.538  48.440  1.00  0.00     0.020 A 
HETATM   24  C   UNL     1      23.478  42.210  48.562  1.00  0.00     0.011 A 
HETATM   25 BR   UNL     1      22.808  40.667  47.699  1.00  0.00    -0.051 Br
HETATM   26  C   UNL     1      22.619  43.009  49.315  1.00  0.00     0.020 A 
HETATM   27  C   UNL     1      23.113  44.152  49.951  1.00  0.00     0.014 A 
ENDBRANCH   7  21
TORSDOF 5
ENDMDL
MODEL 10
REMARK VINA RESULT:      -7.5      3.658      6.271
REMARK  5 active torsions:
REMARK  status: ('A' for Active; 'I' for Inactive)
REMARK    1  A    between atoms: C_6  and  N_7 
REMARK       I    between atoms: N_7  and  C_8 
REMARK    2  A    between atoms: C_8  and  C_9 
REMARK    3  A    between atoms: C_9  and  C_10 
REMARK    4  A    between atoms: C_12  and  O_13 
REMARK    5  A    between atoms: C_19  and  C_20 
ROOT
HETATM    1  C   UNL     1      27.420  40.112  47.639  1.00  0.00     0.073 C 
HETATM    2  C   UNL     1      27.734  40.453  49.050  1.00  0.00     0.065 A 
HETATM    3  N   UNL     1      28.703  39.793  49.697  1.00  0.00    -0.177 NA
HETATM    4  N   UNL     1      28.719  40.356  50.917  1.00  0.00    -0.262 N 
HETATM    5  H   UNL     1      29.397  40.044  51.606  1.00  0.00     0.191 HD
HETATM    6  C   UNL     1      27.765  41.328  51.093  1.00  0.00     0.137 A 
HETATM    7  C   UNL     1      27.125  41.442  49.875  1.00  0.00     0.046 A 
ENDROOT
BRANCH   6   8
HETATM    8  N   UNL     1      27.567  42.005  52.282  1.00  0.00    -0.311 N 
HETATM    9  C   UNL     1      28.601  42.645  52.948  1.00  0.00     0.227 C 
HETATM   10  O   UNL     1      29.757  42.710  52.530  1.00  0.00    -0.273 OA
HETATM   11  H   UNL     1      26.621  42.070  52.641  1.00  0.00     0.170 HD
BRANCH   9  12
HETATM   12  C   UNL     1      28.197  43.208  54.296  1.00  0.00     0.141 C 
BRANCH  12  13
HETATM   13  C   UNL     1      27.964  44.701  54.395  1.00  0.00    -0.047 A 
HETATM   14  C   UNL     1      26.954  45.388  53.699  1.00  0.00     0.044 A 
HETATM   15  C   UNL     1      26.726  46.750  53.922  1.00  0.00     0.068 A 
HETATM   16  C   UNL     1      27.533  47.444  54.823  1.00  0.00     0.037 A 
HETATM   17  C   UNL     1      28.545  46.786  55.516  1.00  0.00     0.003 A 
HETATM   18  C   UNL     1      28.751  45.422  55.311  1.00  0.00     0.007 A 
BRANCH  15  19
HETATM   19  O   UNL     1      25.755  47.508  53.326  1.00  0.00    -0.356 OA
HETATM   20  C   UNL     1      25.301  47.084  52.047  1.00  0.00     0.210 C 
ENDBRANCH  15  19
ENDBRANCH  12  13
ENDBRANCH   9  12
ENDBRANCH   6   8
BRANCH   7  21
HETATM   21  C   UNL     1      26.120  42.437  49.560  1.00  0.00    -0.020 A 
HETATM   22  C   UNL     1      26.469  43.794  49.560  1.00  0.00     0.014 A 
HETATM   23  C   UNL     1      25.509  44.770  49.290  1.00  0.00     0.020 A 
HETATM   24  C   UNL     1      24.197  44.389  49.019  1.00  0.00     0.011 A 
HETATM   25 BR   UNL     1      22.892  45.711  48.664  1.00  0.00    -0.051 Br
HETATM   26  C   UNL     1      23.838  43.042  49.008  1.00  0.00     0.020 A 
HETATM   27  C   UNL     1      24.800  42.065  49.274  1.00  0.00     0.014 A 
ENDBRANCH   7  21
TORSDOF 5
ENDMDL
