MODEL 1
REMARK VINA RESULT:      -9.1      0.000      0.000
REMARK  6 active torsions:
REMARK  status: ('A' for Active; 'I' for Inactive)
REMARK    1  A    between atoms: C_2  and  S_3 
REMARK    2  A    between atoms: C_2  and  C_11 
REMARK    3  A    between atoms: S_3  and  C_4 
REMARK    4  A    between atoms: C_4  and  C_5 
REMARK       I    between atoms: C_11  and  N_12 
REMARK    5  A    between atoms: N_12  and  C_13 
REMARK    6  A    between atoms: C_15  and  C_16 
ROOT
HETATM    1  C   UNL     1      25.803  44.098  52.536  1.00  0.00     0.235 C 
HETATM    2  N   UNL     1      26.571  43.314  53.345  1.00  0.00    -0.326 N 
HETATM    3  O   UNL     1      24.590  43.841  52.523  1.00  0.00    -0.272 OA
HETATM    4  H   UNL     1      25.993  42.582  53.745  1.00  0.00     0.169 HD
ENDROOT
BRANCH   2   5
HETATM    5  C   UNL     1      27.930  43.264  53.700  1.00  0.00     0.035 A 
HETATM    6  C   UNL     1      28.491  43.772  54.872  1.00  0.00     0.042 A 
HETATM    7  C   UNL     1      29.873  43.676  55.124  1.00  0.00    -0.021 A 
HETATM    8  C   UNL     1      30.698  43.053  54.182  1.00  0.00     0.012 A 
HETATM    9  C   UNL     1      30.150  42.516  53.021  1.00  0.00     0.003 A 
HETATM   10  C   UNL     1      28.776  42.615  52.788  1.00  0.00     0.029 A 
BRANCH   7  11
HETATM   11  C   UNL     1      30.446  44.219  56.344  1.00  0.00     0.010 A 
HETATM   12  C   UNL     1      31.412  43.686  57.230  1.00  0.00     0.152 A 
HETATM   13  N   UNL     1      31.670  44.494  58.262  1.00  0.00    -0.187 NA
HETATM   14  N   UNL     1      30.866  45.548  58.044  1.00  0.00    -0.289 N 
HETATM   15  H   UNL     1      30.880  46.311  58.712  1.00  0.00     0.188 HD
HETATM   16  C   UNL     1      30.113  45.431  56.911  1.00  0.00     0.123 A 
ENDBRANCH   7  11
ENDBRANCH   2   5
BRANCH   1  17
HETATM   17  C   UNL     1      26.366  45.208  51.653  1.00  0.00     0.135 C 
HETATM   18  C   UNL     1      26.347  44.802  50.178  1.00  0.00     0.031 C 
BRANCH  17  19
HETATM   19  S   UNL     1      25.435  46.777  51.907  1.00  0.00    -0.150 SA
BRANCH  19  20
HETATM   20  C   UNL     1      24.635  46.986  50.278  1.00  0.00     0.113 C 
BRANCH  20  21
HETATM   21  C   UNL     1      25.254  48.134  49.516  1.00  0.00    -0.049 A 
HETATM   22  C   UNL     1      24.454  49.006  48.763  1.00  0.00     0.008 A 
HETATM   23  C   UNL     1      25.029  50.067  48.060  1.00  0.00     0.001 A 
HETATM   24  C   UNL     1      26.407  50.266  48.102  1.00  0.00     0.000 A 
HETATM   25  C   UNL     1      27.214  49.403  48.840  1.00  0.00     0.001 A 
HETATM   26  C   UNL     1      26.641  48.340  49.541  1.00  0.00     0.008 A 
ENDBRANCH  20  21
ENDBRANCH  19  20
ENDBRANCH  17  19
ENDBRANCH   1  17
TORSDOF 6
ENDMDL
MODEL 2
REMARK VINA RESULT:      -8.6      1.668      2.508
REMARK  6 active torsions:
REMARK  status: ('A' for Active; 'I' for Inactive)
REMARK    1  A    between atoms: C_2  and  S_3 
REMARK    2  A    between atoms: C_2  and  C_11 
REMARK    3  A    between atoms: S_3  and  C_4 
REMARK    4  A    between atoms: C_4  and  C_5 
REMARK       I    between atoms: C_11  and  N_12 
REMARK    5  A    between atoms: N_12  and  C_13 
REMARK    6  A    between atoms: C_15  and  C_16 
ROOT
HETATM    1  C   UNL     1      25.201  44.556  52.187  1.00  0.00     0.235 C 
HETATM    2  N   UNL     1      25.524  44.917  53.462  1.00  0.00    -0.326 N 
HETATM    3  O   UNL     1      24.058  44.108  52.022  1.00  0.00    -0.272 OA
HETATM    4  H   UNL     1      24.760  44.667  54.081  1.00  0.00     0.169 HD
ENDROOT
BRANCH   2   5
HETATM    5  C   UNL     1      26.642  45.490  54.093  1.00  0.00     0.035 A 
HETATM    6  C   UNL     1      27.694  44.794  54.686  1.00  0.00     0.042 A 
HETATM    7  C   UNL     1      28.765  45.471  55.303  1.00  0.00    -0.021 A 
HETATM    8  C   UNL     1      28.775  46.868  55.312  1.00  0.00     0.012 A 
HETATM    9  C   UNL     1      27.746  47.578  54.699  1.00  0.00     0.003 A 
HETATM   10  C   UNL     1      26.694  46.892  54.089  1.00  0.00     0.029 A 
BRANCH   7  11
HETATM   11  C   UNL     1      29.851  44.733  55.927  1.00  0.00     0.010 A 
HETATM   12  C   UNL     1      30.589  44.993  57.106  1.00  0.00     0.152 A 
HETATM   13  N   UNL     1      31.529  44.075  57.341  1.00  0.00    -0.187 NA
HETATM   14  N   UNL     1      31.401  43.222  56.310  1.00  0.00    -0.289 N 
HETATM   15  H   UNL     1      32.025  42.424  56.264  1.00  0.00     0.188 HD
HETATM   16  C   UNL     1      30.413  43.573  55.436  1.00  0.00     0.123 A 
ENDBRANCH   7  11
ENDBRANCH   2   5
BRANCH   1  17
HETATM   17  C   UNL     1      26.172  44.644  51.014  1.00  0.00     0.135 C 
HETATM   18  C   UNL     1      26.866  43.302  50.771  1.00  0.00     0.031 C 
BRANCH  17  19
HETATM   19  S   UNL     1      25.304  45.210  49.491  1.00  0.00    -0.150 SA
BRANCH  19  20
HETATM   20  C   UNL     1      24.619  46.812  50.044  1.00  0.00     0.113 C 
BRANCH  20  21
HETATM   21  C   UNL     1      25.419  47.964  49.481  1.00  0.00    -0.049 A 
HETATM   22  C   UNL     1      26.811  48.014  49.642  1.00  0.00     0.008 A 
HETATM   23  C   UNL     1      27.547  49.079  49.121  1.00  0.00     0.001 A 
HETATM   24  C   UNL     1      26.901  50.104  48.435  1.00  0.00     0.000 A 
HETATM   25  C   UNL     1      25.517  50.070  48.274  1.00  0.00     0.001 A 
HETATM   26  C   UNL     1      24.778  49.008  48.797  1.00  0.00     0.008 A 
ENDBRANCH  20  21
ENDBRANCH  19  20
ENDBRANCH  17  19
ENDBRANCH   1  17
TORSDOF 6
ENDMDL
MODEL 3
REMARK VINA RESULT:      -8.6      3.151      7.999
REMARK  6 active torsions:
REMARK  status: ('A' for Active; 'I' for Inactive)
REMARK    1  A    between atoms: C_2  and  S_3 
REMARK    2  A    between atoms: C_2  and  C_11 
REMARK    3  A    between atoms: S_3  and  C_4 
REMARK    4  A    between atoms: C_4  and  C_5 
REMARK       I    between atoms: C_11  and  N_12 
REMARK    5  A    between atoms: N_12  and  C_13 
REMARK    6  A    between atoms: C_15  and  C_16 
ROOT
HETATM    1  C   UNL     1      27.315  42.122  51.512  1.00  0.00     0.235 C 
HETATM    2  N   UNL     1      26.619  43.116  50.890  1.00  0.00    -0.326 N 
HETATM    3  O   UNL     1      27.422  41.059  50.883  1.00  0.00    -0.272 OA
HETATM    4  H   UNL     1      26.233  42.760  50.022  1.00  0.00     0.169 HD
ENDROOT
BRANCH   2   5
HETATM    5  C   UNL     1      26.291  44.451  51.187  1.00  0.00     0.035 A 
HETATM    6  C   UNL     1      26.441  45.542  50.331  1.00  0.00     0.042 A 
HETATM    7  C   UNL     1      26.089  46.844  50.735  1.00  0.00    -0.021 A 
HETATM    8  C   UNL     1      25.573  47.045  52.019  1.00  0.00     0.012 A 
HETATM    9  C   UNL     1      25.391  45.962  52.875  1.00  0.00     0.003 A 
HETATM   10  C   UNL     1      25.741  44.677  52.457  1.00  0.00     0.029 A 
BRANCH   7  11
HETATM   11  C   UNL     1      26.260  47.974  49.837  1.00  0.00     0.010 A 
HETATM   12  C   UNL     1      27.426  48.654  49.415  1.00  0.00     0.152 A 
HETATM   13  N   UNL     1      27.165  49.666  48.584  1.00  0.00    -0.187 NA
HETATM   14  N   UNL     1      25.827  49.641  48.472  1.00  0.00    -0.289 N 
HETATM   15  H   UNL     1      25.380  50.335  47.882  1.00  0.00     0.188 HD
HETATM   16  C   UNL     1      25.238  48.650  49.203  1.00  0.00     0.123 A 
ENDBRANCH   7  11
ENDBRANCH   2   5
BRANCH   1  17
HETATM   17  C   UNL     1      27.908  42.253  52.911  1.00  0.00     0.135 C 
HETATM   18  C   UNL     1      28.282  40.884  53.481  1.00  0.00     0.031 C 
BRANCH  17  19
HETATM   19  S   UNL     1      29.370  43.373  52.896  1.00  0.00    -0.150 SA
BRANCH  19  20
HETATM   20  C   UNL     1      28.909  44.581  54.188  1.00  0.00     0.113 C 
BRANCH  20  21
HETATM   21  C   UNL     1      29.785  44.425  55.409  1.00  0.00    -0.049 A 
HETATM   22  C   UNL     1      30.610  43.301  55.559  1.00  0.00     0.008 A 
HETATM   23  C   UNL     1      31.419  43.160  56.688  1.00  0.00     0.001 A 
HETATM   24  C   UNL     1      31.411  44.139  57.678  1.00  0.00     0.000 A 
HETATM   25  C   UNL     1      30.591  45.258  57.545  1.00  0.00     0.001 A 
HETATM   26  C   UNL     1      29.779  45.400  56.419  1.00  0.00     0.008 A 
ENDBRANCH  20  21
ENDBRANCH  19  20
ENDBRANCH  17  19
ENDBRANCH   1  17
TORSDOF 6
ENDMDL
MODEL 4
REMARK VINA RESULT:      -8.4     12.381     13.492
REMARK  6 active torsions:
REMARK  status: ('A' for Active; 'I' for Inactive)
REMARK    1  A    between atoms: C_2  and  S_3 
REMARK    2  A    between atoms: C_2  and  C_11 
REMARK    3  A    between atoms: S_3  and  C_4 
REMARK    4  A    between atoms: C_4  and  C_5 
REMARK       I    between atoms: C_11  and  N_12 
REMARK    5  A    between atoms: N_12  and  C_13 
REMARK    6  A    between atoms: C_15  and  C_16 
ROOT
HETATM    1  C   UNL     1      28.952  46.566  39.894  1.00  0.00     0.235 C 
HETATM    2  N   UNL     1      30.204  47.027  40.176  1.00  0.00    -0.326 N 
HETATM    3  O   UNL     1      28.760  45.358  40.093  1.00  0.00    -0.272 OA
HETATM    4  H   UNL     1      30.796  46.243  40.433  1.00  0.00     0.169 HD
ENDROOT
BRANCH   2   5
HETATM    5  C   UNL     1      30.845  48.277  40.149  1.00  0.00     0.035 A 
HETATM    6  C   UNL     1      31.450  48.912  41.233  1.00  0.00     0.042 A 
HETATM    7  C   UNL     1      32.058  50.176  41.097  1.00  0.00    -0.021 A 
HETATM    8  C   UNL     1      32.060  50.801  39.847  1.00  0.00     0.012 A 
HETATM    9  C   UNL     1      31.485  50.168  38.748  1.00  0.00     0.003 A 
HETATM   10  C   UNL     1      30.891  48.913  38.899  1.00  0.00     0.029 A 
BRANCH   7  11
HETATM   11  C   UNL     1      32.675  50.831  42.237  1.00  0.00     0.010 A 
HETATM   12  C   UNL     1      32.181  51.088  43.538  1.00  0.00     0.152 A 
HETATM   13  N   UNL     1      33.059  51.737  44.307  1.00  0.00    -0.187 NA
HETATM   14  N   UNL     1      34.121  51.902  43.501  1.00  0.00    -0.289 N 
HETATM   15  H   UNL     1      34.934  52.385  43.868  1.00  0.00     0.188 HD
HETATM   16  C   UNL     1      33.941  51.380  42.252  1.00  0.00     0.123 A 
ENDBRANCH   7  11
ENDBRANCH   2   5
BRANCH   1  17
HETATM   17  C   UNL     1      27.837  47.442  39.330  1.00  0.00     0.135 C 
HETATM   18  C   UNL     1      26.705  46.589  38.754  1.00  0.00     0.031 C 
BRANCH  17  19
HETATM   19  S   UNL     1      27.195  48.590  40.620  1.00  0.00    -0.150 SA
BRANCH  19  20
HETATM   20  C   UNL     1      26.864  50.090  39.631  1.00  0.00     0.113 C 
BRANCH  20  21
HETATM   21  C   UNL     1      27.824  51.198  39.994  1.00  0.00    -0.049 A 
HETATM   22  C   UNL     1      28.286  52.092  39.017  1.00  0.00     0.008 A 
HETATM   23  C   UNL     1      29.174  53.116  39.354  1.00  0.00     0.001 A 
HETATM   24  C   UNL     1      29.608  53.256  40.670  1.00  0.00     0.000 A 
HETATM   25  C   UNL     1      29.161  52.371  41.650  1.00  0.00     0.001 A 
HETATM   26  C   UNL     1      28.277  51.345  41.314  1.00  0.00     0.008 A 
ENDBRANCH  20  21
ENDBRANCH  19  20
ENDBRANCH  17  19
ENDBRANCH   1  17
TORSDOF 6
ENDMDL
MODEL 5
REMARK VINA RESULT:      -8.3      2.983      3.926
REMARK  6 active torsions:
REMARK  status: ('A' for Active; 'I' for Inactive)
REMARK    1  A    between atoms: C_2  and  S_3 
REMARK    2  A    between atoms: C_2  and  C_11 
REMARK    3  A    between atoms: S_3  and  C_4 
REMARK    4  A    between atoms: C_4  and  C_5 
REMARK       I    between atoms: C_11  and  N_12 
REMARK    5  A    between atoms: N_12  and  C_13 
REMARK    6  A    between atoms: C_15  and  C_16 
ROOT
HETATM    1  C   UNL     1      26.798  40.742  50.925  1.00  0.00     0.235 C 
HETATM    2  N   UNL     1      27.095  41.024  52.225  1.00  0.00    -0.326 N 
HETATM    3  O   UNL     1      26.127  39.718  50.731  1.00  0.00    -0.272 OA
HETATM    4  H   UNL     1      26.763  40.267  52.814  1.00  0.00     0.169 HD
ENDROOT
BRANCH   2   5
HETATM    5  C   UNL     1      27.766  42.057  52.902  1.00  0.00     0.035 A 
HETATM    6  C   UNL     1      27.210  43.272  53.303  1.00  0.00     0.042 A 
HETATM    7  C   UNL     1      27.979  44.246  53.969  1.00  0.00    -0.021 A 
HETATM    8  C   UNL     1      29.326  43.985  54.240  1.00  0.00     0.012 A 
HETATM    9  C   UNL     1      29.889  42.766  53.871  1.00  0.00     0.003 A 
HETATM   10  C   UNL     1      29.111  41.809  53.216  1.00  0.00     0.029 A 
BRANCH   7  11
HETATM   11  C   UNL     1      27.391  45.511  54.372  1.00  0.00     0.010 A 
HETATM   12  C   UNL     1      26.055  45.972  54.311  1.00  0.00     0.152 A 
HETATM   13  N   UNL     1      25.914  47.218  54.772  1.00  0.00    -0.187 NA
HETATM   14  N   UNL     1      27.163  47.563  55.128  1.00  0.00    -0.289 N 
HETATM   15  H   UNL     1      27.316  48.490  55.512  1.00  0.00     0.188 HD
HETATM   16  C   UNL     1      28.082  46.578  54.907  1.00  0.00     0.123 A 
ENDBRANCH   7  11
ENDBRANCH   2   5
BRANCH   1  17
HETATM   17  C   UNL     1      27.277  41.585  49.747  1.00  0.00     0.135 C 
HETATM   18  C   UNL     1      28.116  40.751  48.777  1.00  0.00     0.031 C 
BRANCH  17  19
HETATM   19  S   UNL     1      25.849  42.355  48.874  1.00  0.00    -0.150 SA
BRANCH  19  20
HETATM   20  C   UNL     1      25.008  43.214  50.250  1.00  0.00     0.113 C 
BRANCH  20  21
HETATM   21  C   UNL     1      25.412  44.668  50.306  1.00  0.00    -0.049 A 
HETATM   22  C   UNL     1      24.605  45.610  50.961  1.00  0.00     0.008 A 
HETATM   23  C   UNL     1      24.980  46.954  51.012  1.00  0.00     0.001 A 
HETATM   24  C   UNL     1      26.164  47.370  50.407  1.00  0.00     0.000 A 
HETATM   25  C   UNL     1      26.972  46.446  49.746  1.00  0.00     0.001 A 
HETATM   26  C   UNL     1      26.596  45.103  49.692  1.00  0.00     0.008 A 
ENDBRANCH  20  21
ENDBRANCH  19  20
ENDBRANCH  17  19
ENDBRANCH   1  17
TORSDOF 6
ENDMDL
MODEL 6
REMARK VINA RESULT:      -8.2      3.824      7.389
REMARK  6 active torsions:
REMARK  status: ('A' for Active; 'I' for Inactive)
REMARK    1  A    between atoms: C_2  and  S_3 
REMARK    2  A    between atoms: C_2  and  C_11 
REMARK    3  A    between atoms: S_3  and  C_4 
REMARK    4  A    between atoms: C_4  and  C_5 
REMARK       I    between atoms: C_11  and  N_12 
REMARK    5  A    between atoms: N_12  and  C_13 
REMARK    6  A    between atoms: C_15  and  C_16 
ROOT
HETATM    1  C   UNL     1      25.229  43.584  51.618  1.00  0.00     0.235 C 
HETATM    2  N   UNL     1      24.939  42.345  51.128  1.00  0.00    -0.326 N 
HETATM    3  O   UNL     1      24.423  44.046  52.439  1.00  0.00    -0.272 OA
HETATM    4  H   UNL     1      24.035  42.050  51.483  1.00  0.00     0.169 HD
ENDROOT
BRANCH   2   5
HETATM    5  C   UNL     1      25.559  41.442  50.247  1.00  0.00     0.035 A 
HETATM    6  C   UNL     1      26.737  40.737  50.490  1.00  0.00     0.042 A 
HETATM    7  C   UNL     1      27.278  39.861  49.528  1.00  0.00    -0.021 A 
HETATM    8  C   UNL     1      26.616  39.692  48.309  1.00  0.00     0.012 A 
HETATM    9  C   UNL     1      25.424  40.368  48.062  1.00  0.00     0.003 A 
HETATM   10  C   UNL     1      24.898  41.229  49.027  1.00  0.00     0.029 A 
BRANCH   7  11
HETATM   11  C   UNL     1      28.512  39.140  49.789  1.00  0.00     0.010 A 
HETATM   12  C   UNL     1      29.274  38.278  48.965  1.00  0.00     0.152 A 
HETATM   13  N   UNL     1      30.354  37.792  49.582  1.00  0.00    -0.187 NA
HETATM   14  N   UNL     1      30.287  38.337  50.808  1.00  0.00    -0.289 N 
HETATM   15  H   UNL     1      31.014  38.107  51.478  1.00  0.00     0.188 HD
HETATM   16  C   UNL     1      29.204  39.149  50.983  1.00  0.00     0.123 A 
ENDBRANCH   7  11
ENDBRANCH   2   5
BRANCH   1  17
HETATM   17  C   UNL     1      26.439  44.404  51.181  1.00  0.00     0.135 C 
HETATM   18  C   UNL     1      26.177  45.903  51.341  1.00  0.00     0.031 C 
BRANCH  17  19
HETATM   19  S   UNL     1      27.940  43.902  52.123  1.00  0.00    -0.150 SA
BRANCH  19  20
HETATM   20  C   UNL     1      27.642  44.715  53.732  1.00  0.00     0.113 C 
BRANCH  20  21
HETATM   21  C   UNL     1      28.833  44.555  54.646  1.00  0.00    -0.049 A 
HETATM   22  C   UNL     1      29.183  45.570  55.548  1.00  0.00     0.008 A 
HETATM   23  C   UNL     1      30.285  45.420  56.394  1.00  0.00     0.001 A 
HETATM   24  C   UNL     1      31.047  44.255  56.345  1.00  0.00     0.000 A 
HETATM   25  C   UNL     1      30.714  43.241  55.449  1.00  0.00     0.001 A 
HETATM   26  C   UNL     1      29.615  43.391  54.600  1.00  0.00     0.008 A 
ENDBRANCH  20  21
ENDBRANCH  19  20
ENDBRANCH  17  19
ENDBRANCH   1  17
TORSDOF 6
ENDMDL
MODEL 7
REMARK VINA RESULT:      -8.2     12.200     13.275
REMARK  6 active torsions:
REMARK  status: ('A' for Active; 'I' for Inactive)
REMARK    1  A    between atoms: C_2  and  S_3 
REMARK    2  A    between atoms: C_2  and  C_11 
REMARK    3  A    between atoms: S_3  and  C_4 
REMARK    4  A    between atoms: C_4  and  C_5 
REMARK       I    between atoms: C_11  and  N_12 
REMARK    5  A    between atoms: N_12  and  C_13 
REMARK    6  A    between atoms: C_15  and  C_16 
ROOT
HETATM    1  C   UNL     1      27.172  48.320  40.566  1.00  0.00     0.235 C 
HETATM    2  N   UNL     1      28.203  48.271  41.458  1.00  0.00    -0.326 N 
HETATM    3  O   UNL     1      26.041  48.129  41.033  1.00  0.00    -0.272 OA
HETATM    4  H   UNL     1      27.844  47.997  42.366  1.00  0.00     0.169 HD
ENDROOT
BRANCH   2   5
HETATM    5  C   UNL     1      29.595  48.461  41.397  1.00  0.00     0.035 A 
HETATM    6  C   UNL     1      30.330  49.376  42.150  1.00  0.00     0.042 A 
HETATM    7  C   UNL     1      31.727  49.491  42.002  1.00  0.00    -0.021 A 
HETATM    8  C   UNL     1      32.387  48.666  41.087  1.00  0.00     0.012 A 
HETATM    9  C   UNL     1      31.671  47.728  40.349  1.00  0.00     0.003 A 
HETATM   10  C   UNL     1      30.288  47.624  40.510  1.00  0.00     0.029 A 
BRANCH   7  11
HETATM   11  C   UNL     1      32.480  50.456  42.785  1.00  0.00     0.010 A 
HETATM   12  C   UNL     1      32.111  51.222  43.916  1.00  0.00     0.152 A 
HETATM   13  N   UNL     1      33.094  52.017  44.346  1.00  0.00    -0.187 NA
HETATM   14  N   UNL     1      34.098  51.767  43.489  1.00  0.00    -0.289 N 
HETATM   15  H   UNL     1      34.972  52.268  43.612  1.00  0.00     0.188 HD
HETATM   16  C   UNL     1      33.781  50.842  42.536  1.00  0.00     0.123 A 
ENDBRANCH   7  11
ENDBRANCH   2   5
BRANCH   1  17
HETATM   17  C   UNL     1      27.360  48.553  39.070  1.00  0.00     0.135 C 
HETATM   18  C   UNL     1      26.223  47.920  38.267  1.00  0.00     0.031 C 
BRANCH  17  19
HETATM   19  S   UNL     1      27.491  50.353  38.703  1.00  0.00    -0.150 SA
BRANCH  19  20
HETATM   20  C   UNL     1      29.265  50.508  38.293  1.00  0.00     0.113 C 
BRANCH  20  21
HETATM   21  C   UNL     1      29.944  51.505  39.201  1.00  0.00    -0.049 A 
HETATM   22  C   UNL     1      29.211  52.203  40.172  1.00  0.00     0.008 A 
HETATM   23  C   UNL     1      29.841  53.124  41.011  1.00  0.00     0.001 A 
HETATM   24  C   UNL     1      31.209  53.358  40.887  1.00  0.00     0.000 A 
HETATM   25  C   UNL     1      31.947  52.677  39.922  1.00  0.00     0.001 A 
HETATM   26  C   UNL     1      31.319  51.758  39.080  1.00  0.00     0.008 A 
ENDBRANCH  20  21
ENDBRANCH  19  20
ENDBRANCH  17  19
ENDBRANCH   1  17
TORSDOF 6
ENDMDL
MODEL 8
REMARK VINA RESULT:      -8.0     12.779     14.786
REMARK  6 active torsions:
REMARK  status: ('A' for Active; 'I' for Inactive)
REMARK    1  A    between atoms: C_2  and  S_3 
REMARK    2  A    between atoms: C_2  and  C_11 
REMARK    3  A    between atoms: S_3  and  C_4 
REMARK    4  A    between atoms: C_4  and  C_5 
REMARK       I    between atoms: C_11  and  N_12 
REMARK    5  A    between atoms: N_12  and  C_13 
REMARK    6  A    between atoms: C_15  and  C_16 
ROOT
HETATM    1  C   UNL     1      26.158  49.869  38.715  1.00  0.00     0.235 C 
HETATM    2  N   UNL     1      27.058  50.892  38.669  1.00  0.00    -0.326 N 
HETATM    3  O   UNL     1      25.398  49.771  37.741  1.00  0.00    -0.272 OA
HETATM    4  H   UNL     1      26.879  51.456  37.846  1.00  0.00     0.169 HD
ENDROOT
BRANCH   2   5
HETATM    5  C   UNL     1      28.104  51.349  39.491  1.00  0.00     0.035 A 
HETATM    6  C   UNL     1      29.459  51.358  39.164  1.00  0.00     0.042 A 
HETATM    7  C   UNL     1      30.429  51.831  40.070  1.00  0.00    -0.021 A 
HETATM    8  C   UNL     1      30.021  52.306  41.320  1.00  0.00     0.012 A 
HETATM    9  C   UNL     1      28.669  52.330  41.651  1.00  0.00     0.003 A 
HETATM   10  C   UNL     1      27.720  51.862  40.739  1.00  0.00     0.029 A 
BRANCH   7  11
HETATM   11  C   UNL     1      31.839  51.825  39.721  1.00  0.00     0.010 A 
HETATM   12  C   UNL     1      32.493  51.485  38.514  1.00  0.00     0.152 A 
HETATM   13  N   UNL     1      33.821  51.596  38.594  1.00  0.00    -0.187 NA
HETATM   14  N   UNL     1      34.026  52.006  39.857  1.00  0.00    -0.289 N 
HETATM   15  H   UNL     1      34.980  52.160  40.166  1.00  0.00     0.188 HD
HETATM   16  C   UNL     1      32.873  52.156  40.573  1.00  0.00     0.123 A 
ENDBRANCH   7  11
ENDBRANCH   2   5
BRANCH   1  17
HETATM   17  C   UNL     1      26.033  48.906  39.892  1.00  0.00     0.135 C 
HETATM   18  C   UNL     1      24.733  48.103  39.811  1.00  0.00     0.031 C 
BRANCH  17  19
HETATM   19  S   UNL     1      27.488  47.779  39.967  1.00  0.00    -0.150 SA
BRANCH  19  20
HETATM   20  C   UNL     1      28.212  48.235  41.581  1.00  0.00     0.113 C 
BRANCH  20  21
HETATM   21  C   UNL     1      29.716  48.340  41.488  1.00  0.00    -0.049 A 
HETATM   22  C   UNL     1      30.394  47.894  40.344  1.00  0.00     0.008 A 
HETATM   23  C   UNL     1      31.784  47.992  40.260  1.00  0.00     0.001 A 
HETATM   24  C   UNL     1      32.510  48.536  41.318  1.00  0.00     0.000 A 
HETATM   25  C   UNL     1      31.849  48.976  42.463  1.00  0.00     0.001 A 
HETATM   26  C   UNL     1      30.460  48.876  42.550  1.00  0.00     0.008 A 
ENDBRANCH  20  21
ENDBRANCH  19  20
ENDBRANCH  17  19
ENDBRANCH   1  17
TORSDOF 6
ENDMDL
MODEL 9
REMARK VINA RESULT:      -7.9     12.398     13.694
REMARK  6 active torsions:
REMARK  status: ('A' for Active; 'I' for Inactive)
REMARK    1  A    between atoms: C_2  and  S_3 
REMARK    2  A    between atoms: C_2  and  C_11 
REMARK    3  A    between atoms: S_3  and  C_4 
REMARK    4  A    between atoms: C_4  and  C_5 
REMARK       I    between atoms: C_11  and  N_12 
REMARK    5  A    between atoms: N_12  and  C_13 
REMARK    6  A    between atoms: C_15  and  C_16 
ROOT
HETATM    1  C   UNL     1      26.823  47.800  40.852  1.00  0.00     0.235 C 
HETATM    2  N   UNL     1      26.823  49.071  41.346  1.00  0.00    -0.326 N 
HETATM    3  O   UNL     1      25.731  47.215  40.859  1.00  0.00    -0.272 OA
HETATM    4  H   UNL     1      25.903  49.284  41.717  1.00  0.00     0.169 HD
ENDROOT
BRANCH   2   5
HETATM    5  C   UNL     1      27.778  50.093  41.492  1.00  0.00     0.035 A 
HETATM    6  C   UNL     1      29.121  49.919  41.825  1.00  0.00     0.042 A 
HETATM    7  C   UNL     1      29.992  51.018  41.957  1.00  0.00    -0.021 A 
HETATM    8  C   UNL     1      29.499  52.309  41.742  1.00  0.00     0.012 A 
HETATM    9  C   UNL     1      28.168  52.498  41.382  1.00  0.00     0.003 A 
HETATM   10  C   UNL     1      27.319  51.397  41.251  1.00  0.00     0.029 A 
BRANCH   7  11
HETATM   11  C   UNL     1      31.386  50.824  42.314  1.00  0.00     0.010 A 
HETATM   12  C   UNL     1      32.385  51.754  42.687  1.00  0.00     0.152 A 
HETATM   13  N   UNL     1      33.565  51.179  42.929  1.00  0.00    -0.187 NA
HETATM   14  N   UNL     1      33.330  49.875  42.708  1.00  0.00    -0.289 N 
HETATM   15  H   UNL     1      34.095  49.219  42.826  1.00  0.00     0.188 HD
HETATM   16  C   UNL     1      32.042  49.611  42.336  1.00  0.00     0.123 A 
ENDBRANCH   7  11
ENDBRANCH   2   5
BRANCH   1  17
HETATM   17  C   UNL     1      28.076  47.089  40.349  1.00  0.00     0.135 C 
HETATM   18  C   UNL     1      27.937  45.571  40.478  1.00  0.00     0.031 C 
BRANCH  17  19
HETATM   19  S   UNL     1      28.437  47.562  38.606  1.00  0.00    -0.150 SA
BRANCH  19  20
HETATM   20  C   UNL     1      30.192  48.055  38.724  1.00  0.00     0.113 C 
BRANCH  20  21
HETATM   21  C   UNL     1      30.345  49.549  38.566  1.00  0.00    -0.049 A 
HETATM   22  C   UNL     1      31.595  50.162  38.739  1.00  0.00     0.008 A 
HETATM   23  C   UNL     1      31.734  51.544  38.591  1.00  0.00     0.001 A 
HETATM   24  C   UNL     1      30.627  52.326  38.271  1.00  0.00     0.000 A 
HETATM   25  C   UNL     1      29.378  51.730  38.104  1.00  0.00     0.001 A 
HETATM   26  C   UNL     1      29.236  50.350  38.254  1.00  0.00     0.008 A 
ENDBRANCH  20  21
ENDBRANCH  19  20
ENDBRANCH  17  19
ENDBRANCH   1  17
TORSDOF 6
ENDMDL
MODEL 10
REMARK VINA RESULT:      -7.9     12.256     14.176
REMARK  6 active torsions:
REMARK  status: ('A' for Active; 'I' for Inactive)
REMARK    1  A    between atoms: C_2  and  S_3 
REMARK    2  A    between atoms: C_2  and  C_11 
REMARK    3  A    between atoms: S_3  and  C_4 
REMARK    4  A    between atoms: C_4  and  C_5 
REMARK       I    between atoms: C_11  and  N_12 
REMARK    5  A    between atoms: N_12  and  C_13 
REMARK    6  A    between atoms: C_15  and  C_16 
ROOT
HETATM    1  C   UNL     1      28.751  51.779  38.894  1.00  0.00     0.235 C 
HETATM    2  N   UNL     1      30.065  52.039  38.636  1.00  0.00    -0.326 N 
HETATM    3  O   UNL     1      27.951  52.097  38.003  1.00  0.00    -0.272 OA
HETATM    4  H   UNL     1      30.139  52.539  37.756  1.00  0.00     0.169 HD
ENDROOT
BRANCH   2   5
HETATM    5  C   UNL     1      31.283  51.822  39.304  1.00  0.00     0.035 A 
HETATM    6  C   UNL     1      31.482  51.869  40.683  1.00  0.00     0.042 A 
HETATM    7  C   UNL     1      32.752  51.644  41.249  1.00  0.00    -0.021 A 
HETATM    8  C   UNL     1      33.833  51.362  40.409  1.00  0.00     0.012 A 
HETATM    9  C   UNL     1      33.646  51.284  39.031  1.00  0.00     0.003 A 
HETATM   10  C   UNL     1      32.379  51.504  38.487  1.00  0.00     0.029 A 
BRANCH   7  11
HETATM   11  C   UNL     1      32.948  51.706  42.687  1.00  0.00     0.010 A 
HETATM   12  C   UNL     1      32.013  51.744  43.748  1.00  0.00     0.152 A 
HETATM   13  N   UNL     1      32.594  51.814  44.949  1.00  0.00    -0.187 NA
HETATM   14  N   UNL     1      33.907  51.825  44.662  1.00  0.00    -0.289 N 
HETATM   15  H   UNL     1      34.567  51.880  45.430  1.00  0.00     0.188 HD
HETATM   16  C   UNL     1      34.170  51.765  43.324  1.00  0.00     0.123 A 
ENDBRANCH   7  11
ENDBRANCH   2   5
BRANCH   1  17
HETATM   17  C   UNL     1      28.251  51.172  40.201  1.00  0.00     0.135 C 
HETATM   18  C   UNL     1      27.666  52.248  41.119  1.00  0.00     0.031 C 
BRANCH  17  19
HETATM   19  S   UNL     1      27.010  49.852  39.873  1.00  0.00    -0.150 SA
BRANCH  19  20
HETATM   20  C   UNL     1      27.586  48.532  40.997  1.00  0.00     0.113 C 
BRANCH  20  21
HETATM   21  C   UNL     1      29.090  48.402  40.952  1.00  0.00    -0.049 A 
HETATM   22  C   UNL     1      29.858  48.577  42.112  1.00  0.00     0.008 A 
HETATM   23  C   UNL     1      31.249  48.455  42.068  1.00  0.00     0.001 A 
HETATM   24  C   UNL     1      31.885  48.159  40.865  1.00  0.00     0.000 A 
HETATM   25  C   UNL     1      31.134  47.990  39.703  1.00  0.00     0.001 A 
HETATM   26  C   UNL     1      29.744  48.114  39.744  1.00  0.00     0.008 A 
ENDBRANCH  20  21
ENDBRANCH  19  20
ENDBRANCH  17  19
ENDBRANCH   1  17
TORSDOF 6
ENDMDL
