MODEL 1
REMARK VINA RESULT:      -8.7      0.000      0.000
REMARK  5 active torsions:
REMARK  status: ('A' for Active; 'I' for Inactive)
REMARK    1  A    between atoms: C_8  and  C_9 
REMARK    2  A    between atoms: C_9  and  N_10 
REMARK    3  A    between atoms: N_10  and  C_13 
REMARK    4  A    between atoms: C_13  and  C_14 
REMARK    5  A    between atoms: C_13  and  C_19 
ROOT
HETATM    1  N   UNL     1      25.186  46.892  51.895  1.00  0.00    -0.056 N 
HETATM    2  H   UNL     1      26.038  47.464  51.925  1.00  0.00     0.278 HD
HETATM    3  H   UNL     1      24.519  47.303  52.561  1.00  0.00     0.278 HD
ENDROOT
BRANCH   1   4
HETATM    4  C   UNL     1      24.611  46.981  50.528  1.00  0.00     0.275 C 
BRANCH   4   5
HETATM    5  C   UNL     1      25.299  48.034  49.721  1.00  0.00     0.004 A 
HETATM    6  C   UNL     1      24.572  48.902  48.921  1.00  0.00     0.113 A 
HETATM    7  C   UNL     1      25.171  49.880  48.162  1.00  0.00     0.105 A 
HETATM    8  O   UNL     1      23.212  48.920  48.809  1.00  0.00    -0.322 OA
HETATM    9  C   UNL     1      26.536  50.056  48.161  1.00  0.00     0.040 A 
HETATM   10  O   UNL     1      24.272  50.616  47.460  1.00  0.00    -0.323 OA
HETATM   11  C   UNL     1      27.303  49.203  48.958  1.00  0.00     0.003 A 
HETATM   12  C   UNL     1      26.692  48.198  49.732  1.00  0.00     0.012 A 
HETATM   13  C   UNL     1      23.038  49.963  47.811  1.00  0.00     0.352 A 
ENDBRANCH   4   5
ENDBRANCH   1   4
BRANCH   1  14
HETATM   14  C   UNL     1      25.544  45.509  52.349  1.00  0.00     0.292 C 
BRANCH  14  15
HETATM   15  C   UNL     1      26.045  44.625  51.243  1.00  0.00     0.190 A 
HETATM   16  N   UNL     1      27.187  44.851  50.584  1.00  0.00    -0.109 NA
HETATM   17  O   UNL     1      27.267  43.765  49.706  1.00  0.00    -0.205 OA
HETATM   18  C   UNL     1      26.187  42.981  49.964  1.00  0.00     0.288 A 
HETATM   19  N   UNL     1      25.416  43.438  50.926  1.00  0.00    -0.215 NA
ENDBRANCH  14  15
BRANCH  14  20
HETATM   20  C   UNL     1      26.657  45.555  53.385  1.00  0.00    -0.020 A 
HETATM   21  C   UNL     1      27.008  46.786  53.971  1.00  0.00     0.011 A 
HETATM   22  C   UNL     1      28.044  46.861  54.908  1.00  0.00     0.024 A 
HETATM   23  C   UNL     1      28.741  45.712  55.271  1.00  0.00     0.034 A 
HETATM   24 CL   UNL     1      30.014  45.807  56.421  1.00  0.00    -0.084 Cl
HETATM   25  C   UNL     1      28.409  44.484  54.704  1.00  0.00     0.024 A 
HETATM   26  C   UNL     1      27.375  44.404  53.766  1.00  0.00     0.011 A 
ENDBRANCH  14  20
ENDBRANCH   1  14
TORSDOF 5
ENDMDL
MODEL 2
REMARK VINA RESULT:      -8.6      0.915      1.393
REMARK  5 active torsions:
REMARK  status: ('A' for Active; 'I' for Inactive)
REMARK    1  A    between atoms: C_8  and  C_9 
REMARK    2  A    between atoms: C_9  and  N_10 
REMARK    3  A    between atoms: N_10  and  C_13 
REMARK    4  A    between atoms: C_13  and  C_14 
REMARK    5  A    between atoms: C_13  and  C_19 
ROOT
HETATM    1  N   UNL     1      26.124  46.489  51.847  1.00  0.00    -0.056 N 
HETATM    2  H   UNL     1      27.030  46.748  51.440  1.00  0.00     0.278 HD
HETATM    3  H   UNL     1      26.015  47.027  52.716  1.00  0.00     0.278 HD
ENDROOT
BRANCH   1   4
HETATM    4  C   UNL     1      25.053  46.895  50.900  1.00  0.00     0.275 C 
BRANCH   4   5
HETATM    5  C   UNL     1      25.543  47.936  49.945  1.00  0.00     0.004 A 
HETATM    6  C   UNL     1      24.658  48.621  49.127  1.00  0.00     0.113 A 
HETATM    7  C   UNL     1      25.074  49.581  48.234  1.00  0.00     0.105 A 
HETATM    8  O   UNL     1      23.304  48.459  49.120  1.00  0.00    -0.322 OA
HETATM    9  C   UNL     1      26.401  49.922  48.109  1.00  0.00     0.040 A 
HETATM   10  O   UNL     1      24.042  50.123  47.538  1.00  0.00    -0.323 OA
HETATM   11  C   UNL     1      27.323  49.257  48.920  1.00  0.00     0.003 A 
HETATM   12  C   UNL     1      26.901  48.271  49.831  1.00  0.00     0.012 A 
HETATM   13  C   UNL     1      22.930  49.364  48.045  1.00  0.00     0.352 A 
ENDBRANCH   4   5
ENDBRANCH   1   4
BRANCH   1  14
HETATM   14  C   UNL     1      26.167  45.028  52.175  1.00  0.00     0.292 C 
BRANCH  14  15
HETATM   15  C   UNL     1      26.347  44.147  50.971  1.00  0.00     0.190 A 
HETATM   16  N   UNL     1      27.243  44.395  50.009  1.00  0.00    -0.109 NA
HETATM   17  O   UNL     1      27.091  43.305  49.147  1.00  0.00    -0.205 OA
HETATM   18  C   UNL     1      26.151  42.498  49.706  1.00  0.00     0.288 A 
HETATM   19  N   UNL     1      25.681  42.944  50.850  1.00  0.00    -0.215 NA
ENDBRANCH  14  15
BRANCH  14  20
HETATM   20  C   UNL     1      27.335  44.718  53.098  1.00  0.00    -0.020 A 
HETATM   21  C   UNL     1      28.138  43.590  52.846  1.00  0.00     0.011 A 
HETATM   22  C   UNL     1      29.204  43.268  53.693  1.00  0.00     0.024 A 
HETATM   23  C   UNL     1      29.480  44.065  54.800  1.00  0.00     0.034 A 
HETATM   24 CL   UNL     1      30.788  43.666  55.839  1.00  0.00    -0.084 Cl
HETATM   25  C   UNL     1      28.699  45.186  55.067  1.00  0.00     0.024 A 
HETATM   26  C   UNL     1      27.632  45.512  54.224  1.00  0.00     0.011 A 
ENDBRANCH  14  20
ENDBRANCH   1  14
TORSDOF 5
ENDMDL
MODEL 3
REMARK VINA RESULT:      -8.3      1.131      1.886
REMARK  5 active torsions:
REMARK  status: ('A' for Active; 'I' for Inactive)
REMARK    1  A    between atoms: C_8  and  C_9 
REMARK    2  A    between atoms: C_9  and  N_10 
REMARK    3  A    between atoms: N_10  and  C_13 
REMARK    4  A    between atoms: C_13  and  C_14 
REMARK    5  A    between atoms: C_13  and  C_19 
ROOT
HETATM    1  N   UNL     1      25.044  46.719  51.426  1.00  0.00    -0.056 N 
HETATM    2  H   UNL     1      25.928  47.198  51.221  1.00  0.00     0.278 HD
HETATM    3  H   UNL     1      24.541  47.290  52.117  1.00  0.00     0.278 HD
ENDROOT
BRANCH   1   4
HETATM    4  C   UNL     1      24.241  46.666  50.177  1.00  0.00     0.275 C 
BRANCH   4   5
HETATM    5  C   UNL     1      24.342  47.948  49.416  1.00  0.00     0.004 A 
HETATM    6  C   UNL     1      25.574  48.542  49.188  1.00  0.00     0.113 A 
HETATM    7  C   UNL     1      25.704  49.723  48.496  1.00  0.00     0.105 A 
HETATM    8  O   UNL     1      26.779  48.035  49.578  1.00  0.00    -0.322 OA
HETATM    9  C   UNL     1      24.611  50.383  47.983  1.00  0.00     0.040 A 
HETATM   10  O   UNL     1      26.998  50.121  48.387  1.00  0.00    -0.323 OA
HETATM   11  C   UNL     1      23.352  49.814  48.190  1.00  0.00     0.003 A 
HETATM   12  C   UNL     1      23.215  48.607  48.901  1.00  0.00     0.012 A 
HETATM   13  C   UNL     1      27.673  49.092  49.133  1.00  0.00     0.352 A 
ENDBRANCH   4   5
ENDBRANCH   1   4
BRANCH   1  14
HETATM   14  C   UNL     1      25.372  45.388  52.032  1.00  0.00     0.292 C 
BRANCH  14  15
HETATM   15  C   UNL     1      25.976  44.417  51.059  1.00  0.00     0.190 A 
HETATM   16  N   UNL     1      27.074  44.684  50.343  1.00  0.00    -0.109 NA
HETATM   17  O   UNL     1      27.289  43.497  49.636  1.00  0.00    -0.205 OA
HETATM   18  C   UNL     1      26.322  42.629  50.038  1.00  0.00     0.288 A 
HETATM   19  N   UNL     1      25.506  43.124  50.941  1.00  0.00    -0.215 NA
ENDBRANCH  14  15
BRANCH  14  20
HETATM   20  C   UNL     1      26.387  45.543  53.154  1.00  0.00    -0.020 A 
HETATM   21  C   UNL     1      26.671  46.827  53.659  1.00  0.00     0.011 A 
HETATM   22  C   UNL     1      27.619  47.001  54.673  1.00  0.00     0.024 A 
HETATM   23  C   UNL     1      28.294  45.901  55.194  1.00  0.00     0.034 A 
HETATM   24 CL   UNL     1      29.458  46.119  56.438  1.00  0.00    -0.084 Cl
HETATM   25  C   UNL     1      28.027  44.623  54.709  1.00  0.00     0.024 A 
HETATM   26  C   UNL     1      27.082  44.443  53.695  1.00  0.00     0.011 A 
ENDBRANCH  14  20
ENDBRANCH   1  14
TORSDOF 5
ENDMDL
MODEL 4
REMARK VINA RESULT:      -8.2      2.908      4.600
REMARK  5 active torsions:
REMARK  status: ('A' for Active; 'I' for Inactive)
REMARK    1  A    between atoms: C_8  and  C_9 
REMARK    2  A    between atoms: C_9  and  N_10 
REMARK    3  A    between atoms: N_10  and  C_13 
REMARK    4  A    between atoms: C_13  and  C_14 
REMARK    5  A    between atoms: C_13  and  C_19 
ROOT
HETATM    1  N   UNL     1      23.511  47.798  50.033  1.00  0.00    -0.056 N 
HETATM    2  H   UNL     1      23.853  48.760  50.139  1.00  0.00     0.278 HD
HETATM    3  H   UNL     1      23.037  47.545  50.910  1.00  0.00     0.278 HD
ENDROOT
BRANCH   1   4
HETATM    4  C   UNL     1      22.516  47.774  48.930  1.00  0.00     0.275 C 
BRANCH   4   5
HETATM    5  C   UNL     1      21.676  49.011  48.934  1.00  0.00     0.004 A 
HETATM    6  C   UNL     1      20.341  48.960  49.302  1.00  0.00     0.113 A 
HETATM    7  C   UNL     1      19.538  50.076  49.312  1.00  0.00     0.105 A 
HETATM    8  O   UNL     1      19.678  47.842  49.715  1.00  0.00    -0.322 OA
HETATM    9  C   UNL     1      20.022  51.316  48.962  1.00  0.00     0.040 A 
HETATM   10  O   UNL     1      18.268  49.799  49.707  1.00  0.00    -0.323 OA
HETATM   11  C   UNL     1      21.365  51.408  48.590  1.00  0.00     0.003 A 
HETATM   12  C   UNL     1      22.188  50.266  48.574  1.00  0.00     0.012 A 
HETATM   13  C   UNL     1      18.336  48.374  49.892  1.00  0.00     0.352 A 
ENDBRANCH   4   5
ENDBRANCH   1   4
BRANCH   1  14
HETATM   14  C   UNL     1      24.700  46.906  49.842  1.00  0.00     0.292 C 
BRANCH  14  15
HETATM   15  C   UNL     1      25.952  47.646  49.468  1.00  0.00     0.190 A 
HETATM   16  N   UNL     1      27.105  47.033  49.173  1.00  0.00    -0.109 NA
HETATM   17  O   UNL     1      27.952  48.096  48.842  1.00  0.00    -0.205 OA
HETATM   18  C   UNL     1      27.204  49.228  48.932  1.00  0.00     0.288 A 
HETATM   19  N   UNL     1      25.954  49.013  49.277  1.00  0.00    -0.215 NA
ENDBRANCH  14  15
BRANCH  14  20
HETATM   20  C   UNL     1      25.023  46.157  51.126  1.00  0.00    -0.020 A 
HETATM   21  C   UNL     1      24.861  44.759  51.172  1.00  0.00     0.011 A 
HETATM   22  C   UNL     1      25.127  44.049  52.348  1.00  0.00     0.024 A 
HETATM   23  C   UNL     1      25.555  44.722  53.488  1.00  0.00     0.034 A 
HETATM   24 CL   UNL     1      25.880  43.847  54.930  1.00  0.00    -0.084 Cl
HETATM   25  C   UNL     1      25.723  46.104  53.463  1.00  0.00     0.024 A 
HETATM   26  C   UNL     1      25.457  46.819  52.291  1.00  0.00     0.011 A 
ENDBRANCH  14  20
ENDBRANCH   1  14
TORSDOF 5
ENDMDL
MODEL 5
REMARK VINA RESULT:      -8.2      3.242      7.065
REMARK  5 active torsions:
REMARK  status: ('A' for Active; 'I' for Inactive)
REMARK    1  A    between atoms: C_8  and  C_9 
REMARK    2  A    between atoms: C_9  and  N_10 
REMARK    3  A    between atoms: N_10  and  C_13 
REMARK    4  A    between atoms: C_13  and  C_14 
REMARK    5  A    between atoms: C_13  and  C_19 
ROOT
HETATM    1  N   UNL     1      26.590  46.215  52.869  1.00  0.00    -0.056 N 
HETATM    2  H   UNL     1      26.591  47.214  53.105  1.00  0.00     0.278 HD
HETATM    3  H   UNL     1      27.460  46.022  52.358  1.00  0.00     0.278 HD
ENDROOT
BRANCH   1   4
HETATM    4  C   UNL     1      26.598  45.437  54.134  1.00  0.00     0.275 C 
BRANCH   4   5
HETATM    5  C   UNL     1      27.885  44.696  54.304  1.00  0.00     0.004 A 
HETATM    6  C   UNL     1      28.766  45.029  55.321  1.00  0.00     0.113 A 
HETATM    7  C   UNL     1      29.960  44.372  55.504  1.00  0.00     0.105 A 
HETATM    8  O   UNL     1      28.559  45.997  56.260  1.00  0.00    -0.322 OA
HETATM    9  C   UNL     1      30.346  43.336  54.684  1.00  0.00     0.040 A 
HETATM   10  O   UNL     1      30.664  44.859  56.558  1.00  0.00    -0.323 OA
HETATM   11  C   UNL     1      29.483  42.968  53.650  1.00  0.00     0.003 A 
HETATM   12  C   UNL     1      28.261  43.642  53.458  1.00  0.00     0.012 A 
HETATM   13  C   UNL     1      29.812  45.934  56.993  1.00  0.00     0.352 A 
ENDBRANCH   4   5
ENDBRANCH   1   4
BRANCH   1  14
HETATM   14  C   UNL     1      25.422  45.957  51.967  1.00  0.00     0.292 C 
BRANCH  14  15
HETATM   15  C   UNL     1      25.207  47.031  50.939  1.00  0.00     0.190 A 
HETATM   16  N   UNL     1      26.123  47.962  50.649  1.00  0.00    -0.109 NA
HETATM   17  O   UNL     1      25.519  48.692  49.622  1.00  0.00    -0.205 OA
HETATM   18  C   UNL     1      24.323  48.094  49.375  1.00  0.00     0.288 A 
HETATM   19  N   UNL     1      24.090  47.043  50.128  1.00  0.00    -0.215 NA
ENDBRANCH  14  15
BRANCH  14  20
HETATM   20  C   UNL     1      25.620  44.665  51.188  1.00  0.00    -0.020 A 
HETATM   21  C   UNL     1      24.739  43.587  51.398  1.00  0.00     0.011 A 
HETATM   22  C   UNL     1      24.913  42.379  50.713  1.00  0.00     0.024 A 
HETATM   23  C   UNL     1      25.965  42.233  49.813  1.00  0.00     0.034 A 
HETATM   24 CL   UNL     1      26.176  40.749  48.975  1.00  0.00    -0.084 Cl
HETATM   25  C   UNL     1      26.847  43.288  49.590  1.00  0.00     0.024 A 
HETATM   26  C   UNL     1      26.678  44.496  50.272  1.00  0.00     0.011 A 
ENDBRANCH  14  20
ENDBRANCH   1  14
TORSDOF 5
ENDMDL
MODEL 6
REMARK VINA RESULT:      -8.1      5.475      7.755
REMARK  5 active torsions:
REMARK  status: ('A' for Active; 'I' for Inactive)
REMARK    1  A    between atoms: C_8  and  C_9 
REMARK    2  A    between atoms: C_9  and  N_10 
REMARK    3  A    between atoms: N_10  and  C_13 
REMARK    4  A    between atoms: C_13  and  C_14 
REMARK    5  A    between atoms: C_13  and  C_19 
ROOT
HETATM    1  N   UNL     1      22.051  49.627  50.000  1.00  0.00    -0.056 N 
HETATM    2  H   UNL     1      22.906  49.618  50.567  1.00  0.00     0.278 HD
HETATM    3  H   UNL     1      21.473  48.834  50.308  1.00  0.00     0.278 HD
ENDROOT
BRANCH   1   4
HETATM    4  C   UNL     1      21.317  50.888  50.279  1.00  0.00     0.275 C 
BRANCH   4   5
HETATM    5  C   UNL     1      20.072  50.981  49.458  1.00  0.00     0.004 A 
HETATM    6  C   UNL     1      19.146  49.950  49.455  1.00  0.00     0.113 A 
HETATM    7  C   UNL     1      17.992  49.999  48.708  1.00  0.00     0.105 A 
HETATM    8  O   UNL     1      19.238  48.804  50.190  1.00  0.00    -0.322 OA
HETATM    9  C   UNL     1      17.688  51.087  47.922  1.00  0.00     0.040 A 
HETATM   10  O   UNL     1      17.229  48.886  48.858  1.00  0.00    -0.323 OA
HETATM   11  C   UNL     1      18.596  52.148  47.901  1.00  0.00     0.003 A 
HETATM   12  C   UNL     1      19.780  52.098  48.661  1.00  0.00     0.012 A 
HETATM   13  C   UNL     1      18.050  48.098  49.738  1.00  0.00     0.352 A 
ENDBRANCH   4   5
ENDBRANCH   1   4
BRANCH   1  14
HETATM   14  C   UNL     1      22.446  49.420  48.569  1.00  0.00     0.292 C 
BRANCH  14  15
HETATM   15  C   UNL     1      23.919  49.576  48.324  1.00  0.00     0.190 A 
HETATM   16  N   UNL     1      24.422  50.221  47.265  1.00  0.00    -0.109 NA
HETATM   17  O   UNL     1      25.802  50.159  47.483  1.00  0.00    -0.205 OA
HETATM   18  C   UNL     1      25.977  49.522  48.672  1.00  0.00     0.288 A 
HETATM   19  N   UNL     1      24.854  49.171  49.256  1.00  0.00    -0.215 NA
ENDBRANCH  14  15
BRANCH  14  20
HETATM   20  C   UNL     1      22.091  48.014  48.111  1.00  0.00    -0.020 A 
HETATM   21  C   UNL     1      21.050  47.830  47.180  1.00  0.00     0.011 A 
HETATM   22  C   UNL     1      20.687  46.546  46.760  1.00  0.00     0.024 A 
HETATM   23  C   UNL     1      21.354  45.433  47.263  1.00  0.00     0.034 A 
HETATM   24 CL   UNL     1      20.905  43.858  46.746  1.00  0.00    -0.084 Cl
HETATM   25  C   UNL     1      22.387  45.593  48.183  1.00  0.00     0.024 A 
HETATM   26  C   UNL     1      22.754  46.874  48.607  1.00  0.00     0.011 A 
ENDBRANCH  14  20
ENDBRANCH   1  14
TORSDOF 5
ENDMDL
MODEL 7
REMARK VINA RESULT:      -8.0      3.559      6.798
REMARK  5 active torsions:
REMARK  status: ('A' for Active; 'I' for Inactive)
REMARK    1  A    between atoms: C_8  and  C_9 
REMARK    2  A    between atoms: C_9  and  N_10 
REMARK    3  A    between atoms: N_10  and  C_13 
REMARK    4  A    between atoms: C_13  and  C_14 
REMARK    5  A    between atoms: C_13  and  C_19 
ROOT
HETATM    1  N   UNL     1      25.798  43.415  52.823  1.00  0.00    -0.056 N 
HETATM    2  H   UNL     1      25.045  42.764  53.072  1.00  0.00     0.278 HD
HETATM    3  H   UNL     1      25.517  44.347  53.155  1.00  0.00     0.278 HD
ENDROOT
BRANCH   1   4
HETATM    4  C   UNL     1      27.030  43.004  53.544  1.00  0.00     0.275 C 
BRANCH   4   5
HETATM    5  C   UNL     1      27.651  44.163  54.255  1.00  0.00     0.004 A 
HETATM    6  C   UNL     1      28.894  44.041  54.858  1.00  0.00     0.113 A 
HETATM    7  C   UNL     1      29.493  45.084  55.524  1.00  0.00     0.105 A 
HETATM    8  O   UNL     1      29.671  42.920  54.845  1.00  0.00    -0.322 OA
HETATM    9  C   UNL     1      28.891  46.318  55.623  1.00  0.00     0.040 A 
HETATM   10  O   UNL     1      30.705  44.746  56.033  1.00  0.00    -0.323 OA
HETATM   11  C   UNL     1      27.639  46.480  55.025  1.00  0.00     0.003 A 
HETATM   12  C   UNL     1      27.021  45.413  54.346  1.00  0.00     0.012 A 
HETATM   13  C   UNL     1      30.787  43.357  55.668  1.00  0.00     0.352 A 
ENDBRANCH   4   5
ENDBRANCH   1   4
BRANCH   1  14
HETATM   14  C   UNL     1      25.910  43.439  51.329  1.00  0.00     0.292 C 
BRANCH  14  15
HETATM   15  C   UNL     1      24.692  42.910  50.626  1.00  0.00     0.190 A 
HETATM   16  N   UNL     1      23.444  43.143  51.048  1.00  0.00    -0.109 NA
HETATM   17  O   UNL     1      22.659  42.516  50.075  1.00  0.00    -0.205 OA
HETATM   18  C   UNL     1      23.520  42.013  49.150  1.00  0.00     0.288 A 
HETATM   19  N   UNL     1      24.784  42.255  49.415  1.00  0.00    -0.215 NA
ENDBRANCH  14  15
BRANCH  14  20
HETATM   20  C   UNL     1      26.098  44.863  50.826  1.00  0.00    -0.020 A 
HETATM   21  C   UNL     1      27.102  45.136  49.878  1.00  0.00     0.011 A 
HETATM   22  C   UNL     1      27.313  46.440  49.418  1.00  0.00     0.024 A 
HETATM   23  C   UNL     1      26.528  47.485  49.897  1.00  0.00     0.034 A 
HETATM   24 CL   UNL     1      26.790  49.085  49.330  1.00  0.00    -0.084 Cl
HETATM   25  C   UNL     1      25.528  47.236  50.833  1.00  0.00     0.024 A 
HETATM   26  C   UNL     1      25.314  45.934  51.298  1.00  0.00     0.011 A 
ENDBRANCH  14  20
ENDBRANCH   1  14
TORSDOF 5
ENDMDL
MODEL 8
REMARK VINA RESULT:      -7.9      4.374      7.380
REMARK  5 active torsions:
REMARK  status: ('A' for Active; 'I' for Inactive)
REMARK    1  A    between atoms: C_8  and  C_9 
REMARK    2  A    between atoms: C_9  and  N_10 
REMARK    3  A    between atoms: N_10  and  C_13 
REMARK    4  A    between atoms: C_13  and  C_14 
REMARK    5  A    between atoms: C_13  and  C_19 
ROOT
HETATM    1  N   UNL     1      27.921  42.601  52.879  1.00  0.00    -0.056 N 
HETATM    2  H   UNL     1      27.647  41.628  53.053  1.00  0.00     0.278 HD
HETATM    3  H   UNL     1      27.238  43.201  53.359  1.00  0.00     0.278 HD
ENDROOT
BRANCH   1   4
HETATM    4  C   UNL     1      29.260  42.825  53.484  1.00  0.00     0.275 C 
BRANCH   4   5
HETATM    5  C   UNL     1      29.227  43.957  54.460  1.00  0.00     0.004 A 
HETATM    6  C   UNL     1      30.104  43.993  55.534  1.00  0.00     0.113 A 
HETATM    7  C   UNL     1      30.100  45.015  56.454  1.00  0.00     0.105 A 
HETATM    8  O   UNL     1      31.072  43.067  55.793  1.00  0.00    -0.322 OA
HETATM    9  C   UNL     1      29.222  46.071  56.354  1.00  0.00     0.040 A 
HETATM   10  O   UNL     1      31.042  44.850  57.417  1.00  0.00    -0.323 OA
HETATM   11  C   UNL     1      28.325  46.072  55.283  1.00  0.00     0.003 A 
HETATM   12  C   UNL     1      28.325  45.025  54.343  1.00  0.00     0.012 A 
HETATM   13  C   UNL     1      31.609  43.582  57.043  1.00  0.00     0.352 A 
ENDBRANCH   4   5
ENDBRANCH   1   4
BRANCH   1  14
HETATM   14  C   UNL     1      27.838  42.847  51.403  1.00  0.00     0.292 C 
BRANCH  14  15
HETATM   15  C   UNL     1      27.311  41.674  50.627  1.00  0.00     0.190 A 
HETATM   16  N   UNL     1      27.795  41.305  49.436  1.00  0.00    -0.109 NA
HETATM   17  O   UNL     1      27.053  40.160  49.133  1.00  0.00    -0.205 OA
HETATM   18  C   UNL     1      26.234  39.939  50.195  1.00  0.00     0.288 A 
HETATM   19  N   UNL     1      26.372  40.816  51.164  1.00  0.00    -0.215 NA
ENDBRANCH  14  15
BRANCH  14  20
HETATM   20  C   UNL     1      26.898  44.004  51.103  1.00  0.00    -0.020 A 
HETATM   21  C   UNL     1      27.193  44.880  50.040  1.00  0.00     0.011 A 
HETATM   22  C   UNL     1      26.359  45.966  49.757  1.00  0.00     0.024 A 
HETATM   23  C   UNL     1      25.223  46.193  50.530  1.00  0.00     0.034 A 
HETATM   24 CL   UNL     1      24.201  47.529  50.180  1.00  0.00    -0.084 Cl
HETATM   25  C   UNL     1      24.912  45.339  51.584  1.00  0.00     0.024 A 
HETATM   26  C   UNL     1      25.743  44.252  51.872  1.00  0.00     0.011 A 
ENDBRANCH  14  20
ENDBRANCH   1  14
TORSDOF 5
ENDMDL
MODEL 9
REMARK VINA RESULT:      -7.9      4.555      7.184
REMARK  5 active torsions:
REMARK  status: ('A' for Active; 'I' for Inactive)
REMARK    1  A    between atoms: C_8  and  C_9 
REMARK    2  A    between atoms: C_9  and  N_10 
REMARK    3  A    between atoms: N_10  and  C_13 
REMARK    4  A    between atoms: C_13  and  C_14 
REMARK    5  A    between atoms: C_13  and  C_19 
ROOT
HETATM    1  N   UNL     1      28.815  41.962  52.745  1.00  0.00    -0.056 N 
HETATM    2  H   UNL     1      29.084  41.494  53.618  1.00  0.00     0.278 HD
HETATM    3  H   UNL     1      29.602  41.865  52.091  1.00  0.00     0.278 HD
ENDROOT
BRANCH   1   4
HETATM    4  C   UNL     1      27.637  41.254  52.181  1.00  0.00     0.275 C 
BRANCH   4   5
HETATM    5  C   UNL     1      27.871  40.868  50.756  1.00  0.00     0.004 A 
HETATM    6  C   UNL     1      28.659  39.772  50.439  1.00  0.00     0.113 A 
HETATM    7  C   UNL     1      28.900  39.391  49.140  1.00  0.00     0.105 A 
HETATM    8  O   UNL     1      29.252  38.939  51.341  1.00  0.00    -0.322 OA
HETATM    9  C   UNL     1      28.362  40.078  48.075  1.00  0.00     0.040 A 
HETATM   10  O   UNL     1      29.693  38.291  49.061  1.00  0.00    -0.323 OA
HETATM   11  C   UNL     1      27.560  41.186  48.354  1.00  0.00     0.003 A 
HETATM   12  C   UNL     1      27.315  41.581  49.683  1.00  0.00     0.012 A 
HETATM   13  C   UNL     1      29.976  38.047  50.450  1.00  0.00     0.352 A 
ENDBRANCH   4   5
ENDBRANCH   1   4
BRANCH   1  14
HETATM   14  C   UNL     1      28.603  43.415  53.047  1.00  0.00     0.292 C 
BRANCH  14  15
HETATM   15  C   UNL     1      27.159  43.789  53.216  1.00  0.00     0.190 A 
HETATM   16  N   UNL     1      26.439  43.465  54.297  1.00  0.00    -0.109 NA
HETATM   17  O   UNL     1      25.198  44.057  54.040  1.00  0.00    -0.205 OA
HETATM   18  C   UNL     1      25.320  44.710  52.854  1.00  0.00     0.288 A 
HETATM   19  N   UNL     1      26.515  44.613  52.315  1.00  0.00    -0.215 NA
ENDBRANCH  14  15
BRANCH  14  20
HETATM   20  C   UNL     1      29.290  43.799  54.349  1.00  0.00    -0.020 A 
HETATM   21  C   UNL     1      28.986  45.032  54.955  1.00  0.00     0.011 A 
HETATM   22  C   UNL     1      29.621  45.422  56.139  1.00  0.00     0.024 A 
HETATM   23  C   UNL     1      30.566  44.588  56.730  1.00  0.00     0.034 A 
HETATM   24 CL   UNL     1      31.345  45.070  58.184  1.00  0.00    -0.084 Cl
HETATM   25  C   UNL     1      30.881  43.363  56.148  1.00  0.00     0.024 A 
HETATM   26  C   UNL     1      30.250  42.970  54.964  1.00  0.00     0.011 A 
ENDBRANCH  14  20
ENDBRANCH   1  14
TORSDOF 5
ENDMDL
MODEL 10
REMARK VINA RESULT:      -7.8      2.664      3.850
REMARK  5 active torsions:
REMARK  status: ('A' for Active; 'I' for Inactive)
REMARK    1  A    between atoms: C_8  and  C_9 
REMARK    2  A    between atoms: C_9  and  N_10 
REMARK    3  A    between atoms: N_10  and  C_13 
REMARK    4  A    between atoms: C_13  and  C_14 
REMARK    5  A    between atoms: C_13  and  C_19 
ROOT
HETATM    1  N   UNL     1      25.730  45.524  50.055  1.00  0.00    -0.056 N 
HETATM    2  H   UNL     1      25.036  44.806  49.816  1.00  0.00     0.278 HD
HETATM    3  H   UNL     1      26.300  45.688  49.215  1.00  0.00     0.278 HD
ENDROOT
BRANCH   1   4
HETATM    4  C   UNL     1      25.008  46.778  50.392  1.00  0.00     0.275 C 
BRANCH   4   5
HETATM    5  C   UNL     1      25.579  47.945  49.653  1.00  0.00     0.004 A 
HETATM    6  C   UNL     1      24.761  48.791  48.921  1.00  0.00     0.113 A 
HETATM    7  C   UNL     1      25.252  49.871  48.226  1.00  0.00     0.105 A 
HETATM    8  O   UNL     1      23.404  48.686  48.822  1.00  0.00    -0.322 OA
HETATM    9  C   UNL     1      26.594  50.177  48.225  1.00  0.00     0.040 A 
HETATM   10  O   UNL     1      24.276  50.562  47.584  1.00  0.00    -0.323 OA
HETATM   11  C   UNL     1      27.451  49.350  48.954  1.00  0.00     0.003 A 
HETATM   12  C   UNL     1      26.951  48.241  49.663  1.00  0.00     0.012 A 
HETATM   13  C   UNL     1      23.116  49.772  47.900  1.00  0.00     0.352 A 
ENDBRANCH   4   5
ENDBRANCH   1   4
BRANCH   1  14
HETATM   14  C   UNL     1      26.603  44.977  51.143  1.00  0.00     0.292 C 
BRANCH  14  15
HETATM   15  C   UNL     1      25.907  44.859  52.469  1.00  0.00     0.190 A 
HETATM   16  N   UNL     1      24.856  44.059  52.677  1.00  0.00    -0.109 NA
HETATM   17  O   UNL     1      24.588  44.234  54.038  1.00  0.00    -0.205 OA
HETATM   18  C   UNL     1      25.536  45.087  54.511  1.00  0.00     0.288 A 
HETATM   19  N   UNL     1      26.400  45.478  53.600  1.00  0.00    -0.215 NA
ENDBRANCH  14  15
BRANCH  14  20
HETATM   20  C   UNL     1      27.080  43.575  50.795  1.00  0.00    -0.020 A 
HETATM   21  C   UNL     1      26.692  42.994  49.573  1.00  0.00     0.011 A 
HETATM   22  C   UNL     1      27.096  41.697  49.238  1.00  0.00     0.024 A 
HETATM   23  C   UNL     1      27.890  40.966  50.117  1.00  0.00     0.034 A 
HETATM   24 CL   UNL     1      28.384  39.373  49.704  1.00  0.00    -0.084 Cl
HETATM   25  C   UNL     1      28.286  41.522  51.330  1.00  0.00     0.024 A 
HETATM   26  C   UNL     1      27.884  42.817  51.670  1.00  0.00     0.011 A 
ENDBRANCH  14  20
ENDBRANCH   1  14
TORSDOF 5
ENDMDL
