MODEL 1
REMARK VINA RESULT:      -8.5      0.000      0.000
REMARK  7 active torsions:
REMARK  status: ('A' for Active; 'I' for Inactive)
REMARK    1  A    between atoms: O_2  and  C_3 
REMARK    2  A    between atoms: C_6  and  C_7 
REMARK    3  A    between atoms: C_7  and  C_8 
REMARK       I    between atoms: C_8  and  N_9 
REMARK    4  A    between atoms: N_9  and  C_10 
REMARK    5  A    between atoms: C_10  and  C_11 
REMARK    6  A    between atoms: C_14  and  N_15 
REMARK       I    between atoms: N_15  and  C_16 
REMARK    7  A    between atoms: C_16  and  C_17 
ROOT
HETATM    1  C   UNL     1      25.421  42.337  50.185  1.00  0.00    -0.040 A 
HETATM    2  C   UNL     1      24.113  42.674  50.556  1.00  0.00     0.011 A 
HETATM    3  C   UNL     1      23.599  43.952  50.296  1.00  0.00     0.030 A 
HETATM    4  C   UNL     1      24.389  44.922  49.680  1.00  0.00     0.035 A 
HETATM    5  C   UNL     1      25.700  44.594  49.320  1.00  0.00     0.030 A 
HETATM    6  C   UNL     1      26.210  43.316  49.568  1.00  0.00     0.011 A 
ENDROOT
BRANCH   1   7
HETATM    7  C   UNL     1      26.014  40.984  50.491  1.00  0.00     0.161 C 
BRANCH   7   8
HETATM    8  N   UNL     1      26.547  40.890  51.834  1.00  0.00    -0.357 N 
HETATM    9  C   UNL     1      27.881  41.129  52.085  1.00  0.00     0.222 C 
HETATM   10  O   UNL     1      28.713  41.285  51.195  1.00  0.00    -0.273 OA
HETATM   11  H   UNL     1      25.895  40.937  52.605  1.00  0.00     0.162 HD
BRANCH   9  12
HETATM   12  C   UNL     1      28.241  41.221  53.560  1.00  0.00     0.141 C 
BRANCH  12  13
HETATM   13  C   UNL     1      28.439  42.624  54.095  1.00  0.00    -0.049 A 
HETATM   14  C   UNL     1      29.652  43.080  54.630  1.00  0.00     0.010 A 
HETATM   15  C   UNL     1      29.774  44.378  55.145  1.00  0.00     0.037 A 
HETATM   16  C   UNL     1      28.681  45.241  55.144  1.00  0.00     0.068 A 
HETATM   17  C   UNL     1      27.468  44.795  54.619  1.00  0.00     0.037 A 
HETATM   18  C   UNL     1      27.345  43.502  54.102  1.00  0.00     0.010 A 
BRANCH  16  19
HETATM   19  O   UNL     1      28.667  46.522  55.622  1.00  0.00    -0.356 OA
HETATM   20  C   UNL     1      27.885  47.466  54.902  1.00  0.00     0.210 C 
ENDBRANCH  16  19
ENDBRANCH  12  13
ENDBRANCH   9  12
ENDBRANCH   7   8
ENDBRANCH   1   7
BRANCH   4  21
HETATM   21  N   UNL     1      23.958  46.232  49.400  1.00  0.00    -0.321 N 
HETATM   22  C   UNL     1      24.232  47.397  50.094  1.00  0.00     0.279 C 
HETATM   23  O   UNL     1      24.907  47.478  51.115  1.00  0.00    -0.265 OA
HETATM   24  H   UNL     1      23.365  46.358  48.587  1.00  0.00     0.169 HD
BRANCH  22  25
HETATM   25  C   UNL     1      23.618  48.563  49.481  1.00  0.00     0.142 A 
HETATM   26  O   UNL     1      24.377  49.685  49.254  1.00  0.00    -0.317 OA
HETATM   27  C   UNL     1      23.562  50.611  48.685  1.00  0.00     0.143 A 
HETATM   28  C   UNL     1      22.291  50.110  48.536  1.00  0.00     0.027 A 
HETATM   29  C   UNL     1      22.325  48.790  49.048  1.00  0.00     0.045 A 
ENDBRANCH  22  25
ENDBRANCH   4  21
TORSDOF 7
ENDMDL
MODEL 2
REMARK VINA RESULT:      -8.4      1.837      2.786
REMARK  7 active torsions:
REMARK  status: ('A' for Active; 'I' for Inactive)
REMARK    1  A    between atoms: O_2  and  C_3 
REMARK    2  A    between atoms: C_6  and  C_7 
REMARK    3  A    between atoms: C_7  and  C_8 
REMARK       I    between atoms: C_8  and  N_9 
REMARK    4  A    between atoms: N_9  and  C_10 
REMARK    5  A    between atoms: C_10  and  C_11 
REMARK    6  A    between atoms: C_14  and  N_15 
REMARK       I    between atoms: N_15  and  C_16 
REMARK    7  A    between atoms: C_16  and  C_17 
ROOT
HETATM    1  C   UNL     1      25.626  44.868  49.947  1.00  0.00    -0.040 A 
HETATM    2  C   UNL     1      25.875  46.013  50.714  1.00  0.00     0.011 A 
HETATM    3  C   UNL     1      25.014  47.118  50.657  1.00  0.00     0.030 A 
HETATM    4  C   UNL     1      23.902  47.108  49.817  1.00  0.00     0.035 A 
HETATM    5  C   UNL     1      23.656  45.972  49.038  1.00  0.00     0.030 A 
HETATM    6  C   UNL     1      24.507  44.864  49.104  1.00  0.00     0.011 A 
ENDROOT
BRANCH   1   7
HETATM    7  C   UNL     1      26.558  43.682  49.956  1.00  0.00     0.161 C 
BRANCH   7   8
HETATM    8  N   UNL     1      27.688  43.856  50.843  1.00  0.00    -0.357 N 
HETATM    9  C   UNL     1      27.940  42.955  51.855  1.00  0.00     0.222 C 
HETATM   10  O   UNL     1      27.163  42.054  52.158  1.00  0.00    -0.273 OA
HETATM   11  H   UNL     1      28.437  44.463  50.540  1.00  0.00     0.162 HD
BRANCH   9  12
HETATM   12  C   UNL     1      29.280  43.141  52.549  1.00  0.00     0.141 C 
BRANCH  12  13
HETATM   13  C   UNL     1      29.242  43.940  53.836  1.00  0.00    -0.049 A 
HETATM   14  C   UNL     1      28.246  44.881  54.128  1.00  0.00     0.010 A 
HETATM   15  C   UNL     1      28.274  45.620  55.319  1.00  0.00     0.037 A 
HETATM   16  C   UNL     1      29.306  45.437  56.236  1.00  0.00     0.068 A 
HETATM   17  C   UNL     1      30.306  44.506  55.952  1.00  0.00     0.037 A 
HETATM   18  C   UNL     1      30.277  43.766  54.766  1.00  0.00     0.010 A 
BRANCH  16  19
HETATM   19  O   UNL     1      29.454  46.098  57.424  1.00  0.00    -0.356 OA
HETATM   20  C   UNL     1      30.522  45.677  58.262  1.00  0.00     0.210 C 
ENDBRANCH  16  19
ENDBRANCH  12  13
ENDBRANCH   9  12
ENDBRANCH   7   8
ENDBRANCH   1   7
BRANCH   4  21
HETATM   21  N   UNL     1      22.999  48.179  49.685  1.00  0.00    -0.321 N 
HETATM   22  C   UNL     1      22.944  49.144  48.695  1.00  0.00     0.279 C 
HETATM   23  O   UNL     1      23.713  49.235  47.743  1.00  0.00    -0.265 OA
HETATM   24  H   UNL     1      22.290  48.275  50.403  1.00  0.00     0.169 HD
BRANCH  22  25
HETATM   25  C   UNL     1      21.851  50.081  48.896  1.00  0.00     0.142 A 
HETATM   26  O   UNL     1      21.285  50.201  50.141  1.00  0.00    -0.317 OA
HETATM   27  C   UNL     1      20.298  51.129  50.044  1.00  0.00     0.143 A 
HETATM   28  C   UNL     1      20.217  51.616  48.761  1.00  0.00     0.027 A 
HETATM   29  C   UNL     1      21.217  50.941  48.019  1.00  0.00     0.045 A 
ENDBRANCH  22  25
ENDBRANCH   4  21
TORSDOF 7
ENDMDL
MODEL 3
REMARK VINA RESULT:      -8.3      3.069      9.813
REMARK  7 active torsions:
REMARK  status: ('A' for Active; 'I' for Inactive)
REMARK    1  A    between atoms: O_2  and  C_3 
REMARK    2  A    between atoms: C_6  and  C_7 
REMARK    3  A    between atoms: C_7  and  C_8 
REMARK       I    between atoms: C_8  and  N_9 
REMARK    4  A    between atoms: N_9  and  C_10 
REMARK    5  A    between atoms: C_10  and  C_11 
REMARK    6  A    between atoms: C_14  and  N_15 
REMARK       I    between atoms: N_15  and  C_16 
REMARK    7  A    between atoms: C_16  and  C_17 
ROOT
HETATM    1  C   UNL     1      24.371  46.471  50.393  1.00  0.00    -0.040 A 
HETATM    2  C   UNL     1      24.406  45.113  50.735  1.00  0.00     0.011 A 
HETATM    3  C   UNL     1      25.370  44.620  51.626  1.00  0.00     0.030 A 
HETATM    4  C   UNL     1      26.329  45.470  52.174  1.00  0.00     0.035 A 
HETATM    5  C   UNL     1      26.307  46.825  51.825  1.00  0.00     0.030 A 
HETATM    6  C   UNL     1      25.339  47.320  50.947  1.00  0.00     0.011 A 
ENDROOT
BRANCH   1   7
HETATM    7  C   UNL     1      23.374  47.021  49.404  1.00  0.00     0.161 C 
BRANCH   7   8
HETATM    8  N   UNL     1      23.213  48.456  49.501  1.00  0.00    -0.357 N 
HETATM    9  C   UNL     1      22.597  49.169  48.495  1.00  0.00     0.222 C 
HETATM   10  O   UNL     1      22.287  48.673  47.415  1.00  0.00    -0.273 OA
HETATM   11  H   UNL     1      23.288  48.879  50.415  1.00  0.00     0.162 HD
BRANCH   9  12
HETATM   12  C   UNL     1      22.296  50.620  48.839  1.00  0.00     0.141 C 
BRANCH  12  13
HETATM   13  C   UNL     1      20.837  50.938  49.096  1.00  0.00    -0.049 A 
HETATM   14  C   UNL     1      20.156  51.988  48.464  1.00  0.00     0.010 A 
HETATM   15  C   UNL     1      18.814  52.263  48.762  1.00  0.00     0.037 A 
HETATM   16  C   UNL     1      18.131  51.499  49.706  1.00  0.00     0.068 A 
HETATM   17  C   UNL     1      18.802  50.456  50.344  1.00  0.00     0.037 A 
HETATM   18  C   UNL     1      20.140  50.177  50.046  1.00  0.00     0.010 A 
BRANCH  16  19
HETATM   19  O   UNL     1      16.831  51.670  50.092  1.00  0.00    -0.356 OA
HETATM   20  C   UNL     1      16.303  52.986  49.998  1.00  0.00     0.210 C 
ENDBRANCH  16  19
ENDBRANCH  12  13
ENDBRANCH   9  12
ENDBRANCH   7   8
ENDBRANCH   1   7
BRANCH   4  21
HETATM   21  N   UNL     1      27.341  45.055  53.060  1.00  0.00    -0.321 N 
HETATM   22  C   UNL     1      28.282  44.057  52.886  1.00  0.00     0.279 C 
HETATM   23  O   UNL     1      28.381  43.332  51.902  1.00  0.00    -0.265 OA
HETATM   24  H   UNL     1      27.402  45.539  53.949  1.00  0.00     0.169 HD
BRANCH  22  25
HETATM   25  C   UNL     1      29.176  43.936  54.026  1.00  0.00     0.142 A 
HETATM   26  O   UNL     1      29.216  44.939  54.962  1.00  0.00    -0.317 OA
HETATM   27  C   UNL     1      30.127  44.574  55.901  1.00  0.00     0.143 A 
HETATM   28  C   UNL     1      30.675  43.352  55.594  1.00  0.00     0.027 A 
HETATM   29  C   UNL     1      30.064  42.939  54.385  1.00  0.00     0.045 A 
ENDBRANCH  22  25
ENDBRANCH   4  21
TORSDOF 7
ENDMDL
MODEL 4
REMARK VINA RESULT:      -8.1      2.800      4.632
REMARK  7 active torsions:
REMARK  status: ('A' for Active; 'I' for Inactive)
REMARK    1  A    between atoms: O_2  and  C_3 
REMARK    2  A    between atoms: C_6  and  C_7 
REMARK    3  A    between atoms: C_7  and  C_8 
REMARK       I    between atoms: C_8  and  N_9 
REMARK    4  A    between atoms: N_9  and  C_10 
REMARK    5  A    between atoms: C_10  and  C_11 
REMARK    6  A    between atoms: C_14  and  N_15 
REMARK       I    between atoms: N_15  and  C_16 
REMARK    7  A    between atoms: C_16  and  C_17 
ROOT
HETATM    1  C   UNL     1      25.373  48.114  49.500  1.00  0.00    -0.040 A 
HETATM    2  C   UNL     1      25.455  49.338  48.824  1.00  0.00     0.011 A 
HETATM    3  C   UNL     1      24.296  50.016  48.422  1.00  0.00     0.030 A 
HETATM    4  C   UNL     1      23.035  49.475  48.671  1.00  0.00     0.035 A 
HETATM    5  C   UNL     1      22.949  48.246  49.335  1.00  0.00     0.030 A 
HETATM    6  C   UNL     1      24.104  47.575  49.746  1.00  0.00     0.011 A 
ENDROOT
BRANCH   1   7
HETATM    7  C   UNL     1      26.604  47.341  49.905  1.00  0.00     0.161 C 
BRANCH   7   8
HETATM    8  N   UNL     1      26.317  46.258  50.820  1.00  0.00    -0.357 N 
HETATM    9  C   UNL     1      26.820  44.993  50.601  1.00  0.00     0.222 C 
HETATM   10  O   UNL     1      27.402  44.673  49.568  1.00  0.00    -0.273 OA
HETATM   11  H   UNL     1      26.001  46.497  51.750  1.00  0.00     0.162 HD
BRANCH   9  12
HETATM   12  C   UNL     1      26.628  44.026  51.760  1.00  0.00     0.141 C 
BRANCH  12  13
HETATM   13  C   UNL     1      27.838  43.830  52.650  1.00  0.00    -0.049 A 
HETATM   14  C   UNL     1      28.924  43.013  52.304  1.00  0.00     0.010 A 
HETATM   15  C   UNL     1      30.005  42.837  53.179  1.00  0.00     0.037 A 
HETATM   16  C   UNL     1      30.015  43.466  54.421  1.00  0.00     0.068 A 
HETATM   17  C   UNL     1      28.936  44.276  54.777  1.00  0.00     0.037 A 
HETATM   18  C   UNL     1      27.858  44.456  53.905  1.00  0.00     0.010 A 
BRANCH  16  19
HETATM   19  O   UNL     1      31.000  43.369  55.365  1.00  0.00    -0.356 OA
HETATM   20  C   UNL     1      31.015  44.365  56.379  1.00  0.00     0.210 C 
ENDBRANCH  16  19
ENDBRANCH  12  13
ENDBRANCH   9  12
ENDBRANCH   7   8
ENDBRANCH   1   7
BRANCH   4  21
HETATM   21  N   UNL     1      21.824  50.079  48.287  1.00  0.00    -0.321 N 
HETATM   22  C   UNL     1      20.947  50.819  49.059  1.00  0.00     0.279 C 
HETATM   23  O   UNL     1      21.079  51.064  50.254  1.00  0.00    -0.265 OA
HETATM   24  H   UNL     1      21.539  49.966  47.320  1.00  0.00     0.169 HD
BRANCH  22  25
HETATM   25  C   UNL     1      19.805  51.296  48.296  1.00  0.00     0.142 A 
HETATM   26  O   UNL     1      19.304  50.523  47.277  1.00  0.00    -0.317 OA
HETATM   27  C   UNL     1      18.257  51.201  46.738  1.00  0.00     0.143 A 
HETATM   28  C   UNL     1      18.068  52.396  47.391  1.00  0.00     0.027 A 
HETATM   29  C   UNL     1      19.065  52.459  48.395  1.00  0.00     0.045 A 
ENDBRANCH  22  25
ENDBRANCH   4  21
TORSDOF 7
ENDMDL
MODEL 5
REMARK VINA RESULT:      -8.0      2.892      9.942
REMARK  7 active torsions:
REMARK  status: ('A' for Active; 'I' for Inactive)
REMARK    1  A    between atoms: O_2  and  C_3 
REMARK    2  A    between atoms: C_6  and  C_7 
REMARK    3  A    between atoms: C_7  and  C_8 
REMARK       I    between atoms: C_8  and  N_9 
REMARK    4  A    between atoms: N_9  and  C_10 
REMARK    5  A    between atoms: C_10  and  C_11 
REMARK    6  A    between atoms: C_14  and  N_15 
REMARK       I    between atoms: N_15  and  C_16 
REMARK    7  A    between atoms: C_16  and  C_17 
ROOT
HETATM    1  C   UNL     1      24.293  46.482  50.122  1.00  0.00    -0.040 A 
HETATM    2  C   UNL     1      24.620  45.120  50.093  1.00  0.00     0.011 A 
HETATM    3  C   UNL     1      25.608  44.600  50.940  1.00  0.00     0.030 A 
HETATM    4  C   UNL     1      26.302  45.434  51.816  1.00  0.00     0.035 A 
HETATM    5  C   UNL     1      25.989  46.797  51.839  1.00  0.00     0.030 A 
HETATM    6  C   UNL     1      24.995  47.315  51.003  1.00  0.00     0.011 A 
ENDROOT
BRANCH   1   7
HETATM    7  C   UNL     1      23.265  47.077  49.191  1.00  0.00     0.161 C 
BRANCH   7   8
HETATM    8  N   UNL     1      22.861  48.413  49.574  1.00  0.00    -0.357 N 
HETATM    9  C   UNL     1      23.137  49.495  48.768  1.00  0.00     0.222 C 
HETATM   10  O   UNL     1      23.856  49.424  47.774  1.00  0.00    -0.273 OA
HETATM   11  H   UNL     1      22.136  48.505  50.272  1.00  0.00     0.162 HD
BRANCH   9  12
HETATM   12  C   UNL     1      22.452  50.788  49.185  1.00  0.00     0.141 C 
BRANCH  12  13
HETATM   13  C   UNL     1      21.030  50.958  48.693  1.00  0.00    -0.049 A 
HETATM   14  C   UNL     1      20.018  51.559  49.455  1.00  0.00     0.010 A 
HETATM   15  C   UNL     1      18.709  51.662  48.967  1.00  0.00     0.037 A 
HETATM   16  C   UNL     1      18.383  51.155  47.711  1.00  0.00     0.068 A 
HETATM   17  C   UNL     1      19.381  50.550  46.947  1.00  0.00     0.037 A 
HETATM   18  C   UNL     1      20.689  50.449  47.431  1.00  0.00     0.010 A 
BRANCH  16  19
HETATM   19  O   UNL     1      17.147  51.183  47.127  1.00  0.00    -0.356 OA
HETATM   20  C   UNL     1      17.068  51.742  45.823  1.00  0.00     0.210 C 
ENDBRANCH  16  19
ENDBRANCH  12  13
ENDBRANCH   9  12
ENDBRANCH   7   8
ENDBRANCH   1   7
BRANCH   4  21
HETATM   21  N   UNL     1      27.319  44.998  52.685  1.00  0.00    -0.321 N 
HETATM   22  C   UNL     1      27.201  44.259  53.849  1.00  0.00     0.279 C 
HETATM   23  O   UNL     1      26.149  43.863  54.340  1.00  0.00    -0.265 OA
HETATM   24  H   UNL     1      28.271  45.252  52.444  1.00  0.00     0.169 HD
BRANCH  22  25
HETATM   25  C   UNL     1      28.490  43.988  54.465  1.00  0.00     0.142 A 
HETATM   26  O   UNL     1      29.076  44.948  55.254  1.00  0.00    -0.317 OA
HETATM   27  C   UNL     1      30.257  44.439  55.690  1.00  0.00     0.143 A 
HETATM   28  C   UNL     1      30.446  43.168  55.204  1.00  0.00     0.027 A 
HETATM   29  C   UNL     1      29.308  42.876  54.413  1.00  0.00     0.045 A 
ENDBRANCH  22  25
ENDBRANCH   4  21
TORSDOF 7
ENDMDL
MODEL 6
REMARK VINA RESULT:      -7.8      3.016      6.702
REMARK  7 active torsions:
REMARK  status: ('A' for Active; 'I' for Inactive)
REMARK    1  A    between atoms: O_2  and  C_3 
REMARK    2  A    between atoms: C_6  and  C_7 
REMARK    3  A    between atoms: C_7  and  C_8 
REMARK       I    between atoms: C_8  and  N_9 
REMARK    4  A    between atoms: N_9  and  C_10 
REMARK    5  A    between atoms: C_10  and  C_11 
REMARK    6  A    between atoms: C_14  and  N_15 
REMARK       I    between atoms: N_15  and  C_16 
REMARK    7  A    between atoms: C_16  and  C_17 
ROOT
HETATM    1  C   UNL     1      25.623  45.187  51.435  1.00  0.00    -0.040 A 
HETATM    2  C   UNL     1      24.578  44.293  51.168  1.00  0.00     0.011 A 
HETATM    3  C   UNL     1      24.841  42.987  50.732  1.00  0.00     0.030 A 
HETATM    4  C   UNL     1      26.153  42.556  50.536  1.00  0.00     0.035 A 
HETATM    5  C   UNL     1      27.200  43.449  50.788  1.00  0.00     0.030 A 
HETATM    6  C   UNL     1      26.938  44.748  51.234  1.00  0.00     0.011 A 
ENDROOT
BRANCH   1   7
HETATM    7  C   UNL     1      25.368  46.611  51.862  1.00  0.00     0.161 C 
BRANCH   7   8
HETATM    8  N   UNL     1      26.345  47.101  52.809  1.00  0.00    -0.357 N 
HETATM    9  C   UNL     1      26.291  46.736  54.137  1.00  0.00     0.222 C 
HETATM   10  O   UNL     1      25.352  46.110  54.622  1.00  0.00    -0.273 OA
HETATM   11  H   UNL     1      27.214  47.466  52.445  1.00  0.00     0.162 HD
BRANCH   9  12
HETATM   12  C   UNL     1      27.507  47.139  54.956  1.00  0.00     0.141 C 
BRANCH  12  13
HETATM   13  C   UNL     1      28.526  46.042  55.192  1.00  0.00    -0.049 A 
HETATM   14  C   UNL     1      28.591  44.874  54.420  1.00  0.00     0.010 A 
HETATM   15  C   UNL     1      29.531  43.873  54.701  1.00  0.00     0.037 A 
HETATM   16  C   UNL     1      30.416  44.017  55.768  1.00  0.00     0.068 A 
HETATM   17  C   UNL     1      30.354  45.173  56.545  1.00  0.00     0.037 A 
HETATM   18  C   UNL     1      29.420  46.175  56.264  1.00  0.00     0.010 A 
BRANCH  16  19
HETATM   19  O   UNL     1      31.368  43.114  56.151  1.00  0.00    -0.356 OA
HETATM   20  C   UNL     1      32.052  43.382  57.368  1.00  0.00     0.210 C 
ENDBRANCH  16  19
ENDBRANCH  12  13
ENDBRANCH   9  12
ENDBRANCH   7   8
ENDBRANCH   1   7
BRANCH   4  21
HETATM   21  N   UNL     1      26.504  41.271  50.084  1.00  0.00    -0.321 N 
HETATM   22  C   UNL     1      27.154  40.915  48.916  1.00  0.00     0.279 C 
HETATM   23  O   UNL     1      27.529  41.690  48.043  1.00  0.00    -0.265 OA
HETATM   24  H   UNL     1      26.254  40.489  50.680  1.00  0.00     0.169 HD
BRANCH  22  25
HETATM   25  C   UNL     1      27.356  39.479  48.811  1.00  0.00     0.142 A 
HETATM   26  O   UNL     1      28.393  38.997  48.051  1.00  0.00    -0.317 OA
HETATM   27  C   UNL     1      28.346  37.642  48.123  1.00  0.00     0.143 A 
HETATM   28  C   UNL     1      27.301  37.236  48.918  1.00  0.00     0.027 A 
HETATM   29  C   UNL     1      26.661  38.419  49.362  1.00  0.00     0.045 A 
ENDBRANCH  22  25
ENDBRANCH   4  21
TORSDOF 7
ENDMDL
MODEL 7
REMARK VINA RESULT:      -7.8      3.703      5.998
REMARK  7 active torsions:
REMARK  status: ('A' for Active; 'I' for Inactive)
REMARK    1  A    between atoms: O_2  and  C_3 
REMARK    2  A    between atoms: C_6  and  C_7 
REMARK    3  A    between atoms: C_7  and  C_8 
REMARK       I    between atoms: C_8  and  N_9 
REMARK    4  A    between atoms: N_9  and  C_10 
REMARK    5  A    between atoms: C_10  and  C_11 
REMARK    6  A    between atoms: C_14  and  N_15 
REMARK       I    between atoms: N_15  and  C_16 
REMARK    7  A    between atoms: C_16  and  C_17 
ROOT
HETATM    1  C   UNL     1      23.377  48.815  49.222  1.00  0.00    -0.040 A 
HETATM    2  C   UNL     1      22.267  48.013  48.928  1.00  0.00     0.011 A 
HETATM    3  C   UNL     1      20.978  48.561  48.871  1.00  0.00     0.030 A 
HETATM    4  C   UNL     1      20.772  49.916  49.127  1.00  0.00     0.035 A 
HETATM    5  C   UNL     1      21.876  50.719  49.435  1.00  0.00     0.030 A 
HETATM    6  C   UNL     1      23.163  50.175  49.480  1.00  0.00     0.011 A 
ENDROOT
BRANCH   1   7
HETATM    7  C   UNL     1      24.769  48.244  49.333  1.00  0.00     0.161 C 
BRANCH   7   8
HETATM    8  N   UNL     1      24.785  46.883  49.825  1.00  0.00    -0.357 N 
HETATM    9  C   UNL     1      24.906  46.618  51.172  1.00  0.00     0.222 C 
HETATM   10  O   UNL     1      25.153  47.485  52.006  1.00  0.00    -0.273 OA
HETATM   11  H   UNL     1      24.420  46.159  49.222  1.00  0.00     0.162 HD
BRANCH   9  12
HETATM   12  C   UNL     1      24.675  45.164  51.555  1.00  0.00     0.141 C 
BRANCH  12  13
HETATM   13  C   UNL     1      25.752  44.539  52.418  1.00  0.00    -0.049 A 
HETATM   14  C   UNL     1      25.620  44.355  53.801  1.00  0.00     0.010 A 
HETATM   15  C   UNL     1      26.660  43.803  54.561  1.00  0.00     0.037 A 
HETATM   16  C   UNL     1      27.858  43.435  53.952  1.00  0.00     0.068 A 
HETATM   17  C   UNL     1      28.001  43.619  52.577  1.00  0.00     0.037 A 
HETATM   18  C   UNL     1      26.963  44.167  51.817  1.00  0.00     0.010 A 
BRANCH  16  19
HETATM   19  O   UNL     1      28.947  42.897  54.579  1.00  0.00    -0.356 OA
HETATM   20  C   UNL     1      30.208  43.097  53.955  1.00  0.00     0.210 C 
ENDBRANCH  16  19
ENDBRANCH  12  13
ENDBRANCH   9  12
ENDBRANCH   7   8
ENDBRANCH   1   7
BRANCH   4  21
HETATM   21  N   UNL     1      19.512  50.542  49.109  1.00  0.00    -0.321 N 
HETATM   22  C   UNL     1      18.478  50.426  50.020  1.00  0.00     0.279 C 
HETATM   23  O   UNL     1      18.485  49.718  51.022  1.00  0.00    -0.265 OA
HETATM   24  H   UNL     1      19.318  51.163  48.331  1.00  0.00     0.169 HD
BRANCH  22  25
HETATM   25  C   UNL     1      17.333  51.248  49.666  1.00  0.00     0.142 A 
HETATM   26  O   UNL     1      17.145  52.452  50.299  1.00  0.00    -0.317 OA
HETATM   27  C   UNL     1      16.014  53.002  49.785  1.00  0.00     0.143 A 
HETATM   28  C   UNL     1      15.468  52.179  48.830  1.00  0.00     0.027 A 
HETATM   29  C   UNL     1      16.316  51.048  48.751  1.00  0.00     0.045 A 
ENDBRANCH  22  25
ENDBRANCH   4  21
TORSDOF 7
ENDMDL
MODEL 8
REMARK VINA RESULT:      -7.6      7.253     13.370
REMARK  7 active torsions:
REMARK  status: ('A' for Active; 'I' for Inactive)
REMARK    1  A    between atoms: O_2  and  C_3 
REMARK    2  A    between atoms: C_6  and  C_7 
REMARK    3  A    between atoms: C_7  and  C_8 
REMARK       I    between atoms: C_8  and  N_9 
REMARK    4  A    between atoms: N_9  and  C_10 
REMARK    5  A    between atoms: C_10  and  C_11 
REMARK    6  A    between atoms: C_14  and  N_15 
REMARK       I    between atoms: N_15  and  C_16 
REMARK    7  A    between atoms: C_16  and  C_17 
ROOT
HETATM    1  C   UNL     1      18.588  51.578  48.301  1.00  0.00    -0.040 A 
HETATM    2  C   UNL     1      19.072  50.648  47.372  1.00  0.00     0.011 A 
HETATM    3  C   UNL     1      20.311  50.021  47.561  1.00  0.00     0.030 A 
HETATM    4  C   UNL     1      21.098  50.327  48.671  1.00  0.00     0.035 A 
HETATM    5  C   UNL     1      20.625  51.265  49.594  1.00  0.00     0.030 A 
HETATM    6  C   UNL     1      19.384  51.882  49.413  1.00  0.00     0.011 A 
ENDROOT
BRANCH   1   7
HETATM    7  C   UNL     1      17.278  52.300  48.100  1.00  0.00     0.161 C 
BRANCH   7   8
HETATM    8  N   UNL     1      16.742  52.851  49.326  1.00  0.00    -0.357 N 
HETATM    9  C   UNL     1      15.434  53.281  49.397  1.00  0.00     0.222 C 
HETATM   10  O   UNL     1      14.701  53.363  48.415  1.00  0.00    -0.273 OA
HETATM   11  H   UNL     1      17.231  52.652  50.187  1.00  0.00     0.162 HD
BRANCH   9  12
HETATM   12  C   UNL     1      14.953  53.615  50.801  1.00  0.00     0.141 C 
BRANCH  12  13
HETATM   13  C   UNL     1      14.994  55.083  51.171  1.00  0.00    -0.049 A 
HETATM   14  C   UNL     1      15.253  56.104  50.245  1.00  0.00     0.010 A 
HETATM   15  C   UNL     1      15.314  57.446  50.645  1.00  0.00     0.037 A 
HETATM   16  C   UNL     1      15.130  57.791  51.982  1.00  0.00     0.068 A 
HETATM   17  C   UNL     1      14.878  56.782  52.912  1.00  0.00     0.037 A 
HETATM   18  C   UNL     1      14.813  55.443  52.514  1.00  0.00     0.010 A 
BRANCH  16  19
HETATM   19  O   UNL     1      15.175  59.056  52.500  1.00  0.00    -0.356 OA
HETATM   20  C   UNL     1      15.320  59.165  53.910  1.00  0.00     0.210 C 
ENDBRANCH  16  19
ENDBRANCH  12  13
ENDBRANCH   9  12
ENDBRANCH   7   8
ENDBRANCH   1   7
BRANCH   4  21
HETATM   21  N   UNL     1      22.360  49.759  48.927  1.00  0.00    -0.321 N 
HETATM   22  C   UNL     1      23.519  49.858  48.178  1.00  0.00     0.279 C 
HETATM   23  O   UNL     1      23.635  50.467  47.119  1.00  0.00    -0.265 OA
HETATM   24  H   UNL     1      22.450  49.197  49.766  1.00  0.00     0.169 HD
BRANCH  22  25
HETATM   25  C   UNL     1      24.630  49.141  48.781  1.00  0.00     0.142 A 
HETATM   26  O   UNL     1      24.376  48.084  49.619  1.00  0.00    -0.317 OA
HETATM   27  C   UNL     1      25.577  47.608  50.039  1.00  0.00     0.143 A 
HETATM   28  C   UNL     1      26.605  48.334  49.484  1.00  0.00     0.027 A 
HETATM   29  C   UNL     1      25.996  49.323  48.674  1.00  0.00     0.045 A 
ENDBRANCH  22  25
ENDBRANCH   4  21
TORSDOF 7
ENDMDL
MODEL 9
REMARK VINA RESULT:      -7.3      4.060      6.441
REMARK  7 active torsions:
REMARK  status: ('A' for Active; 'I' for Inactive)
REMARK    1  A    between atoms: O_2  and  C_3 
REMARK    2  A    between atoms: C_6  and  C_7 
REMARK    3  A    between atoms: C_7  and  C_8 
REMARK       I    between atoms: C_8  and  N_9 
REMARK    4  A    between atoms: N_9  and  C_10 
REMARK    5  A    between atoms: C_10  and  C_11 
REMARK    6  A    between atoms: C_14  and  N_15 
REMARK       I    between atoms: N_15  and  C_16 
REMARK    7  A    between atoms: C_16  and  C_17 
ROOT
HETATM    1  C   UNL     1      22.443  48.881  49.220  1.00  0.00    -0.040 A 
HETATM    2  C   UNL     1      22.486  50.249  49.518  1.00  0.00     0.011 A 
HETATM    3  C   UNL     1      21.306  50.982  49.703  1.00  0.00     0.030 A 
HETATM    4  C   UNL     1      20.061  50.367  49.574  1.00  0.00     0.035 A 
HETATM    5  C   UNL     1      20.013  49.004  49.263  1.00  0.00     0.030 A 
HETATM    6  C   UNL     1      21.190  48.269  49.090  1.00  0.00     0.011 A 
ENDROOT
BRANCH   1   7
HETATM    7  C   UNL     1      23.696  48.078  48.973  1.00  0.00     0.161 C 
BRANCH   7   8
HETATM    8  N   UNL     1      23.782  46.894  49.801  1.00  0.00    -0.357 N 
HETATM    9  C   UNL     1      24.904  46.642  50.561  1.00  0.00     0.222 C 
HETATM   10  O   UNL     1      25.935  47.304  50.475  1.00  0.00    -0.273 OA
HETATM   11  H   UNL     1      22.922  46.421  50.039  1.00  0.00     0.162 HD
BRANCH   9  12
HETATM   12  C   UNL     1      24.755  45.494  51.548  1.00  0.00     0.141 C 
BRANCH  12  13
HETATM   13  C   UNL     1      25.866  45.366  52.570  1.00  0.00    -0.049 A 
HETATM   14  C   UNL     1      25.933  46.142  53.735  1.00  0.00     0.010 A 
HETATM   15  C   UNL     1      27.001  46.009  54.633  1.00  0.00     0.037 A 
HETATM   16  C   UNL     1      28.029  45.105  54.375  1.00  0.00     0.068 A 
HETATM   17  C   UNL     1      27.975  44.332  53.215  1.00  0.00     0.037 A 
HETATM   18  C   UNL     1      26.908  44.461  52.320  1.00  0.00     0.010 A 
BRANCH  16  19
HETATM   19  O   UNL     1      29.127  44.888  55.162  1.00  0.00    -0.356 OA
HETATM   20  C   UNL     1      29.480  45.925  56.067  1.00  0.00     0.210 C 
ENDBRANCH  16  19
ENDBRANCH  12  13
ENDBRANCH   9  12
ENDBRANCH   7   8
ENDBRANCH   1   7
BRANCH   4  21
HETATM   21  N   UNL     1      18.830  51.031  49.725  1.00  0.00    -0.321 N 
HETATM   22  C   UNL     1      18.001  51.544  48.743  1.00  0.00     0.279 C 
HETATM   23  O   UNL     1      18.220  51.516  47.536  1.00  0.00    -0.265 OA
HETATM   24  H   UNL     1      18.491  51.163  50.671  1.00  0.00     0.169 HD
BRANCH  22  25
HETATM   25  C   UNL     1      16.799  52.148  49.295  1.00  0.00     0.142 A 
HETATM   26  O   UNL     1      16.901  53.301  50.033  1.00  0.00    -0.317 OA
HETATM   27  C   UNL     1      15.645  53.639  50.424  1.00  0.00     0.143 A 
HETATM   28  C   UNL     1      14.730  52.729  49.949  1.00  0.00     0.027 A 
HETATM   29  C   UNL     1      15.472  51.767  49.221  1.00  0.00     0.045 A 
ENDBRANCH  22  25
ENDBRANCH   4  21
TORSDOF 7
ENDMDL
MODEL 10
REMARK VINA RESULT:      -7.2      3.473      5.029
REMARK  7 active torsions:
REMARK  status: ('A' for Active; 'I' for Inactive)
REMARK    1  A    between atoms: O_2  and  C_3 
REMARK    2  A    between atoms: C_6  and  C_7 
REMARK    3  A    between atoms: C_7  and  C_8 
REMARK       I    between atoms: C_8  and  N_9 
REMARK    4  A    between atoms: N_9  and  C_10 
REMARK    5  A    between atoms: C_10  and  C_11 
REMARK    6  A    between atoms: C_14  and  N_15 
REMARK       I    between atoms: N_15  and  C_16 
REMARK    7  A    between atoms: C_16  and  C_17 
ROOT
HETATM    1  C   UNL     1      24.724  47.097  50.065  1.00  0.00    -0.040 A 
HETATM    2  C   UNL     1      24.335  45.776  49.806  1.00  0.00     0.011 A 
HETATM    3  C   UNL     1      23.172  45.498  49.076  1.00  0.00     0.030 A 
HETATM    4  C   UNL     1      22.364  46.535  48.608  1.00  0.00     0.035 A 
HETATM    5  C   UNL     1      22.740  47.855  48.876  1.00  0.00     0.030 A 
HETATM    6  C   UNL     1      23.907  48.133  49.594  1.00  0.00     0.011 A 
ENDROOT
BRANCH   1   7
HETATM    7  C   UNL     1      25.947  47.424  50.885  1.00  0.00     0.161 C 
BRANCH   7   8
HETATM    8  N   UNL     1      26.207  46.452  51.925  1.00  0.00    -0.357 N 
HETATM    9  C   UNL     1      25.891  46.718  53.240  1.00  0.00     0.222 C 
HETATM   10  O   UNL     1      25.516  47.822  53.629  1.00  0.00    -0.273 OA
HETATM   11  H   UNL     1      26.346  45.490  51.648  1.00  0.00     0.162 HD
BRANCH   9  12
HETATM   12  C   UNL     1      26.006  45.524  54.174  1.00  0.00     0.141 C 
BRANCH  12  13
HETATM   13  C   UNL     1      27.414  45.177  54.616  1.00  0.00    -0.049 A 
HETATM   14  C   UNL     1      28.047  43.970  54.289  1.00  0.00     0.010 A 
HETATM   15  C   UNL     1      29.339  43.682  54.752  1.00  0.00     0.037 A 
HETATM   16  C   UNL     1      30.016  44.592  55.559  1.00  0.00     0.068 A 
HETATM   17  C   UNL     1      29.392  45.794  55.895  1.00  0.00     0.037 A 
HETATM   18  C   UNL     1      28.105  46.084  55.431  1.00  0.00     0.010 A 
BRANCH  16  19
HETATM   19  O   UNL     1      31.270  44.428  56.081  1.00  0.00    -0.356 OA
HETATM   20  C   UNL     1      31.460  43.324  56.955  1.00  0.00     0.210 C 
ENDBRANCH  16  19
ENDBRANCH  12  13
ENDBRANCH   9  12
ENDBRANCH   7   8
ENDBRANCH   1   7
BRANCH   4  21
HETATM   21  N   UNL     1      21.172  46.344  47.885  1.00  0.00    -0.321 N 
HETATM   22  C   UNL     1      21.015  46.091  46.534  1.00  0.00     0.279 C 
HETATM   23  O   UNL     1      21.922  46.004  45.713  1.00  0.00    -0.265 OA
HETATM   24  H   UNL     1      20.304  46.399  48.405  1.00  0.00     0.169 HD
BRANCH  22  25
HETATM   25  C   UNL     1      19.619  45.936  46.159  1.00  0.00     0.142 A 
HETATM   26  O   UNL     1      18.917  44.844  46.609  1.00  0.00    -0.317 OA
HETATM   27  C   UNL     1      17.657  44.947  46.112  1.00  0.00     0.143 A 
HETATM   28  C   UNL     1      17.528  46.085  45.352  1.00  0.00     0.027 A 
HETATM   29  C   UNL     1      18.792  46.724  45.381  1.00  0.00     0.045 A 
ENDBRANCH  22  25
ENDBRANCH   4  21
TORSDOF 7
ENDMDL
