MODEL 1
REMARK VINA RESULT:      -9.8      0.000      0.000
REMARK  5 active torsions:
REMARK  status: ('A' for Active; 'I' for Inactive)
REMARK    1  A    between atoms: C_4  and  O_5 
REMARK    2  A    between atoms: O_5  and  C_6 
REMARK    3  A    between atoms: C_6  and  C_7 
REMARK       I    between atoms: C_7  and  N_8 
REMARK    4  A    between atoms: N_8  and  N_9 
REMARK    5  A    between atoms: C_10  and  C_11 
ROOT
HETATM    1  C   UNL     1      26.231  46.446  53.885  1.00  0.00     0.261 C 
HETATM    2  N   UNL     1      26.448  46.506  52.515  1.00  0.00    -0.246 N 
HETATM    3  O   UNL     1      25.742  47.328  54.589  1.00  0.00    -0.269 OA
HETATM    4  H   UNL     1      26.720  45.637  52.056  1.00  0.00     0.192 HD
ENDROOT
BRANCH   2   5
HETATM    5  N   UNL     1      26.101  47.511  51.645  1.00  0.00    -0.184 NA
HETATM    6  C   UNL     1      26.158  47.309  50.368  1.00  0.00     0.152 C 
BRANCH   6   7
HETATM    7  C   UNL     1      25.824  48.389  49.458  1.00  0.00     0.011 A 
HETATM    8  C   UNL     1      24.508  48.819  49.090  1.00  0.00     0.004 A 
HETATM    9  C   UNL     1      24.648  49.879  48.193  1.00  0.00     0.043 A 
HETATM   10  C   UNL     1      23.205  48.393  49.426  1.00  0.00     0.014 A 
HETATM   11  C   UNL     1      23.552  50.536  47.619  1.00  0.00     0.030 A 
HETATM   12  N   UNL     1      25.997  50.091  48.026  1.00  0.00    -0.364 N 
HETATM   13  C   UNL     1      22.273  50.092  47.969  1.00  0.00     0.002 A 
HETATM   14  C   UNL     1      22.099  49.036  48.859  1.00  0.00     0.001 A 
HETATM   15  H   UNL     1      26.395  50.801  47.428  1.00  0.00     0.165 HD
HETATM   16  C   UNL     1      26.713  49.196  48.774  1.00  0.00     0.102 A 
ENDBRANCH   6   7
ENDBRANCH   2   5
BRANCH   1  17
HETATM   17  C   UNL     1      26.753  45.154  54.508  1.00  0.00     0.280 C 
BRANCH  17  18
HETATM   18  O   UNL     1      28.007  44.780  53.942  1.00  0.00    -0.342 OA
BRANCH  18  19
HETATM   19  C   UNL     1      29.011  44.599  54.861  1.00  0.00     0.075 A 
HETATM   20  C   UNL     1      29.212  45.453  55.954  1.00  0.00     0.044 A 
HETATM   21  C   UNL     1      30.251  45.218  56.863  1.00  0.00    -0.059 A 
HETATM   22  C   UNL     1      30.440  46.105  58.058  1.00  0.00     0.048 C 
HETATM   23  C   UNL     1      31.087  44.115  56.670  1.00  0.00     0.007 A 
HETATM   24  C   UNL     1      30.906  43.276  55.568  1.00  0.00     0.010 A 
HETATM   25  C   UNL     1      29.878  43.517  54.646  1.00  0.00    -0.029 A 
HETATM   26  C   UNL     1      29.687  42.590  53.480  1.00  0.00     0.051 C 
ENDBRANCH  18  19
ENDBRANCH  17  18
ENDBRANCH   1  17
TORSDOF 5
ENDMDL
MODEL 2
REMARK VINA RESULT:      -9.4      0.594      2.021
REMARK  5 active torsions:
REMARK  status: ('A' for Active; 'I' for Inactive)
REMARK    1  A    between atoms: C_4  and  O_5 
REMARK    2  A    between atoms: O_5  and  C_6 
REMARK    3  A    between atoms: C_6  and  C_7 
REMARK       I    between atoms: C_7  and  N_8 
REMARK    4  A    between atoms: N_8  and  N_9 
REMARK    5  A    between atoms: C_10  and  C_11 
ROOT
HETATM    1  C   UNL     1      26.143  46.887  54.047  1.00  0.00     0.261 C 
HETATM    2  N   UNL     1      26.213  46.751  52.667  1.00  0.00    -0.246 N 
HETATM    3  O   UNL     1      25.795  47.889  54.668  1.00  0.00    -0.269 OA
HETATM    4  H   UNL     1      26.373  45.811  52.307  1.00  0.00     0.192 HD
ENDROOT
BRANCH   2   5
HETATM    5  N   UNL     1      25.841  47.660  51.706  1.00  0.00    -0.184 NA
HETATM    6  C   UNL     1      26.227  47.500  50.481  1.00  0.00     0.152 C 
BRANCH   6   7
HETATM    7  C   UNL     1      25.859  48.485  49.481  1.00  0.00     0.011 A 
HETATM    8  C   UNL     1      24.529  48.858  49.099  1.00  0.00     0.004 A 
HETATM    9  C   UNL     1      24.636  49.832  48.105  1.00  0.00     0.043 A 
HETATM   10  C   UNL     1      23.239  48.445  49.497  1.00  0.00     0.014 A 
HETATM   11  C   UNL     1      23.520  50.416  47.494  1.00  0.00     0.030 A 
HETATM   12  N   UNL     1      25.978  50.049  47.895  1.00  0.00    -0.364 N 
HETATM   13  C   UNL     1      22.255  49.986  47.906  1.00  0.00     0.002 A 
HETATM   14  C   UNL     1      22.113  49.015  48.893  1.00  0.00     0.001 A 
HETATM   15  H   UNL     1      26.354  50.707  47.226  1.00  0.00     0.165 HD
HETATM   16  C   UNL     1      26.722  49.239  48.710  1.00  0.00     0.102 A 
ENDBRANCH   6   7
ENDBRANCH   2   5
BRANCH   1  17
HETATM   17  C   UNL     1      26.641  45.648  54.787  1.00  0.00     0.280 C 
BRANCH  17  18
HETATM   18  O   UNL     1      27.780  45.953  55.588  1.00  0.00    -0.342 OA
BRANCH  18  19
HETATM   19  C   UNL     1      28.830  45.080  55.433  1.00  0.00     0.075 A 
HETATM   20  C   UNL     1      28.931  44.189  54.356  1.00  0.00     0.044 A 
HETATM   21  C   UNL     1      30.027  43.322  54.247  1.00  0.00    -0.059 A 
HETATM   22  C   UNL     1      30.160  42.400  53.072  1.00  0.00     0.048 C 
HETATM   23  C   UNL     1      31.023  43.359  55.226  1.00  0.00     0.007 A 
HETATM   24  C   UNL     1      30.912  44.226  56.315  1.00  0.00     0.010 A 
HETATM   25  C   UNL     1      29.810  45.084  56.437  1.00  0.00    -0.029 A 
HETATM   26  C   UNL     1      29.721  46.025  57.604  1.00  0.00     0.051 C 
ENDBRANCH  18  19
ENDBRANCH  17  18
ENDBRANCH   1  17
TORSDOF 5
ENDMDL
MODEL 3
REMARK VINA RESULT:      -8.8      1.626      2.509
REMARK  5 active torsions:
REMARK  status: ('A' for Active; 'I' for Inactive)
REMARK    1  A    between atoms: C_4  and  O_5 
REMARK    2  A    between atoms: O_5  and  C_6 
REMARK    3  A    between atoms: C_6  and  C_7 
REMARK       I    between atoms: C_7  and  N_8 
REMARK    4  A    between atoms: N_8  and  N_9 
REMARK    5  A    between atoms: C_10  and  C_11 
ROOT
HETATM    1  C   UNL     1      26.273  44.200  50.915  1.00  0.00     0.261 C 
HETATM    2  N   UNL     1      27.016  45.259  50.411  1.00  0.00    -0.246 N 
HETATM    3  O   UNL     1      25.062  44.028  50.787  1.00  0.00    -0.269 OA
HETATM    4  H   UNL     1      28.031  45.178  50.474  1.00  0.00     0.192 HD
ENDROOT
BRANCH   2   5
HETATM    5  N   UNL     1      26.590  46.287  49.606  1.00  0.00    -0.184 NA
HETATM    6  C   UNL     1      26.438  47.474  50.098  1.00  0.00     0.152 C 
BRANCH   6   7
HETATM    7  C   UNL     1      25.952  48.544  49.247  1.00  0.00     0.011 A 
HETATM    8  C   UNL     1      24.581  48.872  48.988  1.00  0.00     0.004 A 
HETATM    9  C   UNL     1      24.568  49.961  48.114  1.00  0.00     0.043 A 
HETATM   10  C   UNL     1      23.345  48.333  49.405  1.00  0.00     0.014 A 
HETATM   11  C   UNL     1      23.384  50.539  47.641  1.00  0.00     0.030 A 
HETATM   12  N   UNL     1      25.880  50.286  47.857  1.00  0.00    -0.364 N 
HETATM   13  C   UNL     1      22.174  49.983  48.070  1.00  0.00     0.002 A 
HETATM   14  C   UNL     1      22.152  48.896  48.939  1.00  0.00     0.001 A 
HETATM   15  H   UNL     1      26.174  51.041  47.252  1.00  0.00     0.165 HD
HETATM   16  C   UNL     1      26.719  49.437  48.524  1.00  0.00     0.102 A 
ENDBRANCH   6   7
ENDBRANCH   2   5
BRANCH   1  17
HETATM   17  C   UNL     1      27.107  43.247  51.767  1.00  0.00     0.280 C 
BRANCH  17  18
HETATM   18  O   UNL     1      26.716  43.306  53.136  1.00  0.00    -0.342 OA
BRANCH  18  19
HETATM   19  C   UNL     1      27.627  43.923  53.958  1.00  0.00     0.075 A 
HETATM   20  C   UNL     1      28.841  43.333  54.336  1.00  0.00     0.044 A 
HETATM   21  C   UNL     1      29.735  44.011  55.175  1.00  0.00    -0.059 A 
HETATM   22  C   UNL     1      31.054  43.400  55.544  1.00  0.00     0.048 C 
HETATM   23  C   UNL     1      29.404  45.290  55.629  1.00  0.00     0.007 A 
HETATM   24  C   UNL     1      28.184  45.871  55.277  1.00  0.00     0.010 A 
HETATM   25  C   UNL     1      27.279  45.190  54.451  1.00  0.00    -0.029 A 
HETATM   26  C   UNL     1      25.982  45.842  54.065  1.00  0.00     0.051 C 
ENDBRANCH  18  19
ENDBRANCH  17  18
ENDBRANCH   1  17
TORSDOF 5
ENDMDL
MODEL 4
REMARK VINA RESULT:      -8.7      2.171      9.559
REMARK  5 active torsions:
REMARK  status: ('A' for Active; 'I' for Inactive)
REMARK    1  A    between atoms: C_4  and  O_5 
REMARK    2  A    between atoms: O_5  and  C_6 
REMARK    3  A    between atoms: C_6  and  C_7 
REMARK       I    between atoms: C_7  and  N_8 
REMARK    4  A    between atoms: N_8  and  N_9 
REMARK    5  A    between atoms: C_10  and  C_11 
ROOT
HETATM    1  C   UNL     1      25.342  46.859  50.452  1.00  0.00     0.261 C 
HETATM    2  N   UNL     1      25.367  46.620  51.820  1.00  0.00    -0.246 N 
HETATM    3  O   UNL     1      26.314  47.055  49.725  1.00  0.00    -0.269 OA
HETATM    4  H   UNL     1      24.489  46.327  52.250  1.00  0.00     0.192 HD
ENDROOT
BRANCH   2   5
HETATM    5  N   UNL     1      26.462  46.471  52.635  1.00  0.00    -0.184 NA
HETATM    6  C   UNL     1      26.312  46.061  53.853  1.00  0.00     0.152 C 
BRANCH   6   7
HETATM    7  C   UNL     1      27.472  45.943  54.716  1.00  0.00     0.011 A 
HETATM    8  C   UNL     1      28.479  44.926  54.658  1.00  0.00     0.004 A 
HETATM    9  C   UNL     1      29.403  45.191  55.670  1.00  0.00     0.043 A 
HETATM   10  C   UNL     1      28.685  43.791  53.843  1.00  0.00     0.014 A 
HETATM   11  C   UNL     1      30.522  44.382  55.906  1.00  0.00     0.030 A 
HETATM   12  N   UNL     1      28.978  46.328  56.316  1.00  0.00    -0.364 N 
HETATM   13  C   UNL     1      30.699  43.264  55.085  1.00  0.00     0.002 A 
HETATM   14  C   UNL     1      29.796  42.970  54.068  1.00  0.00     0.001 A 
HETATM   15  H   UNL     1      29.456  46.756  57.097  1.00  0.00     0.165 HD
HETATM   16  C   UNL     1      27.814  46.784  55.758  1.00  0.00     0.102 A 
ENDBRANCH   6   7
ENDBRANCH   2   5
BRANCH   1  17
HETATM   17  C   UNL     1      23.924  46.952  49.896  1.00  0.00     0.280 C 
BRANCH  17  18
HETATM   18  O   UNL     1      23.900  47.679  48.670  1.00  0.00    -0.342 OA
BRANCH  18  19
HETATM   19  C   UNL     1      23.108  48.801  48.694  1.00  0.00     0.075 A 
HETATM   20  C   UNL     1      21.752  48.773  49.044  1.00  0.00     0.044 A 
HETATM   21  C   UNL     1      20.992  49.951  49.054  1.00  0.00    -0.059 A 
HETATM   22  C   UNL     1      19.551  49.930  49.472  1.00  0.00     0.048 C 
HETATM   23  C   UNL     1      21.606  51.159  48.714  1.00  0.00     0.007 A 
HETATM   24  C   UNL     1      22.951  51.187  48.339  1.00  0.00     0.010 A 
HETATM   25  C   UNL     1      23.710  50.009  48.311  1.00  0.00    -0.029 A 
HETATM   26  C   UNL     1      25.161  50.065  47.926  1.00  0.00     0.051 C 
ENDBRANCH  18  19
ENDBRANCH  17  18
ENDBRANCH   1  17
TORSDOF 5
ENDMDL
MODEL 5
REMARK VINA RESULT:      -8.7      2.134      9.687
REMARK  5 active torsions:
REMARK  status: ('A' for Active; 'I' for Inactive)
REMARK    1  A    between atoms: C_4  and  O_5 
REMARK    2  A    between atoms: O_5  and  C_6 
REMARK    3  A    between atoms: C_6  and  C_7 
REMARK       I    between atoms: C_7  and  N_8 
REMARK    4  A    between atoms: N_8  and  N_9 
REMARK    5  A    between atoms: C_10  and  C_11 
ROOT
HETATM    1  C   UNL     1      25.588  45.813  50.127  1.00  0.00     0.261 C 
HETATM    2  N   UNL     1      25.718  45.336  51.425  1.00  0.00    -0.246 N 
HETATM    3  O   UNL     1      26.403  45.689  49.215  1.00  0.00    -0.269 OA
HETATM    4  H   UNL     1      24.890  45.389  52.017  1.00  0.00     0.192 HD
ENDROOT
BRANCH   2   5
HETATM    5  N   UNL     1      26.728  44.565  51.947  1.00  0.00    -0.184 NA
HETATM    6  C   UNL     1      27.215  44.841  53.114  1.00  0.00     0.152 C 
BRANCH   6   7
HETATM    7  C   UNL     1      28.306  44.042  53.640  1.00  0.00     0.011 A 
HETATM    8  C   UNL     1      29.117  44.351  54.780  1.00  0.00     0.004 A 
HETATM    9  C   UNL     1      30.046  43.320  54.926  1.00  0.00     0.043 A 
HETATM   10  C   UNL     1      29.156  45.423  55.698  1.00  0.00     0.014 A 
HETATM   11  C   UNL     1      31.008  43.304  55.943  1.00  0.00     0.030 A 
HETATM   12  N   UNL     1      29.806  42.415  53.917  1.00  0.00    -0.364 N 
HETATM   13  C   UNL     1      31.025  44.381  56.836  1.00  0.00     0.002 A 
HETATM   14  C   UNL     1      30.114  45.426  56.718  1.00  0.00     0.001 A 
HETATM   15  H   UNL     1      30.331  41.563  53.775  1.00  0.00     0.165 HD
HETATM   16  C   UNL     1      28.770  42.843  53.133  1.00  0.00     0.102 A 
ENDBRANCH   6   7
ENDBRANCH   2   5
BRANCH   1  17
HETATM   17  C   UNL     1      24.314  46.630  49.924  1.00  0.00     0.280 C 
BRANCH  17  18
HETATM   18  O   UNL     1      24.568  48.024  50.079  1.00  0.00    -0.342 OA
BRANCH  18  19
HETATM   19  C   UNL     1      23.786  48.831  49.289  1.00  0.00     0.075 A 
HETATM   20  C   UNL     1      22.386  48.776  49.287  1.00  0.00     0.044 A 
HETATM   21  C   UNL     1      21.638  49.626  48.462  1.00  0.00    -0.059 A 
HETATM   22  C   UNL     1      20.139  49.599  48.491  1.00  0.00     0.048 C 
HETATM   23  C   UNL     1      22.307  50.537  47.640  1.00  0.00     0.007 A 
HETATM   24  C   UNL     1      23.703  50.578  47.620  1.00  0.00     0.010 A 
HETATM   25  C   UNL     1      24.456  49.717  48.432  1.00  0.00    -0.029 A 
HETATM   26  C   UNL     1      25.955  49.793  48.411  1.00  0.00     0.051 C 
ENDBRANCH  18  19
ENDBRANCH  17  18
ENDBRANCH   1  17
TORSDOF 5
ENDMDL
MODEL 6
REMARK VINA RESULT:      -8.5      2.065      9.288
REMARK  5 active torsions:
REMARK  status: ('A' for Active; 'I' for Inactive)
REMARK    1  A    between atoms: C_4  and  O_5 
REMARK    2  A    between atoms: O_5  and  C_6 
REMARK    3  A    between atoms: C_6  and  C_7 
REMARK       I    between atoms: C_7  and  N_8 
REMARK    4  A    between atoms: N_8  and  N_9 
REMARK    5  A    between atoms: C_10  and  C_11 
ROOT
HETATM    1  C   UNL     1      25.152  44.939  52.292  1.00  0.00     0.261 C 
HETATM    2  N   UNL     1      26.174  45.786  52.700  1.00  0.00    -0.246 N 
HETATM    3  O   UNL     1      24.616  44.060  52.964  1.00  0.00    -0.269 OA
HETATM    4  H   UNL     1      26.404  46.559  52.077  1.00  0.00     0.192 HD
ENDROOT
BRANCH   2   5
HETATM    5  N   UNL     1      26.748  45.883  53.944  1.00  0.00    -0.184 NA
HETATM    6  C   UNL     1      28.020  45.695  54.087  1.00  0.00     0.152 C 
BRANCH   6   7
HETATM    7  C   UNL     1      28.609  45.764  55.411  1.00  0.00     0.011 A 
HETATM    8  C   UNL     1      29.673  44.948  55.915  1.00  0.00     0.004 A 
HETATM    9  C   UNL     1      29.921  45.346  57.229  1.00  0.00     0.043 A 
HETATM   10  C   UNL     1      30.442  43.892  55.378  1.00  0.00     0.014 A 
HETATM   11  C   UNL     1      30.900  44.747  58.031  1.00  0.00     0.030 A 
HETATM   12  N   UNL     1      29.046  46.370  57.512  1.00  0.00    -0.364 N 
HETATM   13  C   UNL     1      31.645  43.703  57.474  1.00  0.00     0.002 A 
HETATM   14  C   UNL     1      31.422  43.280  56.168  1.00  0.00     0.001 A 
HETATM   15  H   UNL     1      28.999  46.855  58.398  1.00  0.00     0.165 HD
HETATM   16  C   UNL     1      28.247  46.623  56.431  1.00  0.00     0.102 A 
ENDBRANCH   6   7
ENDBRANCH   2   5
BRANCH   1  17
HETATM   17  C   UNL     1      24.775  45.135  50.826  1.00  0.00     0.280 C 
BRANCH  17  18
HETATM   18  O   UNL     1      25.568  46.154  50.223  1.00  0.00    -0.342 OA
BRANCH  18  19
HETATM   19  C   UNL     1      24.842  47.176  49.661  1.00  0.00     0.075 A 
HETATM   20  C   UNL     1      23.474  47.075  49.373  1.00  0.00     0.044 A 
HETATM   21  C   UNL     1      22.783  48.152  48.801  1.00  0.00    -0.059 A 
HETATM   22  C   UNL     1      21.310  48.062  48.534  1.00  0.00     0.048 C 
HETATM   23  C   UNL     1      23.475  49.333  48.523  1.00  0.00     0.007 A 
HETATM   24  C   UNL     1      24.844  49.428  48.784  1.00  0.00     0.010 A 
HETATM   25  C   UNL     1      25.543  48.348  49.341  1.00  0.00    -0.029 A 
HETATM   26  C   UNL     1      27.010  48.479  49.634  1.00  0.00     0.051 C 
ENDBRANCH  18  19
ENDBRANCH  17  18
ENDBRANCH   1  17
TORSDOF 5
ENDMDL
MODEL 7
REMARK VINA RESULT:      -8.5      5.093      9.024
REMARK  5 active torsions:
REMARK  status: ('A' for Active; 'I' for Inactive)
REMARK    1  A    between atoms: C_4  and  O_5 
REMARK    2  A    between atoms: O_5  and  C_6 
REMARK    3  A    between atoms: C_6  and  C_7 
REMARK       I    between atoms: C_7  and  N_8 
REMARK    4  A    between atoms: N_8  and  N_9 
REMARK    5  A    between atoms: C_10  and  C_11 
ROOT
HETATM    1  C   UNL     1      26.914  43.053  50.842  1.00  0.00     0.261 C 
HETATM    2  N   UNL     1      27.031  42.610  52.153  1.00  0.00    -0.246 N 
HETATM    3  O   UNL     1      26.993  44.217  50.453  1.00  0.00    -0.269 OA
HETATM    4  H   UNL     1      27.092  41.601  52.291  1.00  0.00     0.192 HD
ENDROOT
BRANCH   2   5
HETATM    5  N   UNL     1      27.334  43.345  53.273  1.00  0.00    -0.184 NA
HETATM    6  C   UNL     1      28.436  44.022  53.323  1.00  0.00     0.152 C 
BRANCH   6   7
HETATM    7  C   UNL     1      28.763  44.765  54.526  1.00  0.00     0.011 A 
HETATM    8  C   UNL     1      29.742  44.409  55.509  1.00  0.00     0.004 A 
HETATM    9  C   UNL     1      29.725  45.396  56.495  1.00  0.00     0.043 A 
HETATM   10  C   UNL     1      30.636  43.326  55.660  1.00  0.00     0.014 A 
HETATM   11  C   UNL     1      30.558  45.357  57.621  1.00  0.00     0.030 A 
HETATM   12  N   UNL     1      28.777  46.321  56.124  1.00  0.00    -0.364 N 
HETATM   13  C   UNL     1      31.430  44.271  57.746  1.00  0.00     0.002 A 
HETATM   14  C   UNL     1      31.471  43.269  56.781  1.00  0.00     0.001 A 
HETATM   15  H   UNL     1      28.548  47.150  56.655  1.00  0.00     0.165 HD
HETATM   16  C   UNL     1      28.186  45.948  54.947  1.00  0.00     0.102 A 
ENDBRANCH   6   7
ENDBRANCH   2   5
BRANCH   1  17
HETATM   17  C   UNL     1      26.574  41.930  49.867  1.00  0.00     0.280 C 
BRANCH  17  18
HETATM   18  O   UNL     1      27.575  41.802  48.861  1.00  0.00    -0.342 OA
BRANCH  18  19
HETATM   19  C   UNL     1      28.053  40.525  48.698  1.00  0.00     0.075 A 
HETATM   20  C   UNL     1      28.671  39.802  49.728  1.00  0.00     0.044 A 
HETATM   21  C   UNL     1      29.138  38.499  49.506  1.00  0.00    -0.059 A 
HETATM   22  C   UNL     1      29.758  37.708  50.618  1.00  0.00     0.048 C 
HETATM   23  C   UNL     1      28.976  37.925  48.242  1.00  0.00     0.007 A 
HETATM   24  C   UNL     1      28.385  38.652  47.206  1.00  0.00     0.010 A 
HETATM   25  C   UNL     1      27.932  39.962  47.419  1.00  0.00    -0.029 A 
HETATM   26  C   UNL     1      27.279  40.717  46.297  1.00  0.00     0.051 C 
ENDBRANCH  18  19
ENDBRANCH  17  18
ENDBRANCH   1  17
TORSDOF 5
ENDMDL
MODEL 8
REMARK VINA RESULT:      -8.3      2.034      2.698
REMARK  5 active torsions:
REMARK  status: ('A' for Active; 'I' for Inactive)
REMARK    1  A    between atoms: C_4  and  O_5 
REMARK    2  A    between atoms: O_5  and  C_6 
REMARK    3  A    between atoms: C_6  and  C_7 
REMARK       I    between atoms: C_7  and  N_8 
REMARK    4  A    between atoms: N_8  and  N_9 
REMARK    5  A    between atoms: C_10  and  C_11 
ROOT
HETATM    1  C   UNL     1      25.477  45.313  51.875  1.00  0.00     0.261 C 
HETATM    2  N   UNL     1      25.385  46.104  50.737  1.00  0.00    -0.246 N 
HETATM    3  O   UNL     1      24.559  44.700  52.417  1.00  0.00    -0.269 OA
HETATM    4  H   UNL     1      26.264  46.420  50.328  1.00  0.00     0.192 HD
ENDROOT
BRANCH   2   5
HETATM    5  N   UNL     1      24.291  46.309  49.934  1.00  0.00    -0.184 NA
HETATM    6  C   UNL     1      23.965  47.511  49.579  1.00  0.00     0.152 C 
BRANCH   6   7
HETATM    7  C   UNL     1      22.785  47.719  48.761  1.00  0.00     0.011 A 
HETATM    8  C   UNL     1      22.073  48.950  48.588  1.00  0.00     0.004 A 
HETATM    9  C   UNL     1      21.004  48.699  47.726  1.00  0.00     0.043 A 
HETATM   10  C   UNL     1      22.230  50.257  49.097  1.00  0.00     0.014 A 
HETATM   11  C   UNL     1      20.089  49.689  47.345  1.00  0.00     0.030 A 
HETATM   12  N   UNL     1      21.067  47.369  47.383  1.00  0.00    -0.364 N 
HETATM   13  C   UNL     1      20.268  50.974  47.867  1.00  0.00     0.002 A 
HETATM   14  C   UNL     1      21.322  51.257  48.730  1.00  0.00     0.001 A 
HETATM   15  H   UNL     1      20.413  46.905  46.765  1.00  0.00     0.165 HD
HETATM   16  C   UNL     1      22.126  46.767  48.006  1.00  0.00     0.102 A 
ENDBRANCH   6   7
ENDBRANCH   2   5
BRANCH   1  17
HETATM   17  C   UNL     1      26.873  45.328  52.493  1.00  0.00     0.280 C 
BRANCH  17  18
HETATM   18  O   UNL     1      27.216  44.049  53.020  1.00  0.00    -0.342 OA
BRANCH  18  19
HETATM   19  C   UNL     1      28.297  44.058  53.867  1.00  0.00     0.075 A 
HETATM   20  C   UNL     1      28.436  44.973  54.920  1.00  0.00     0.044 A 
HETATM   21  C   UNL     1      29.561  44.934  55.756  1.00  0.00    -0.059 A 
HETATM   22  C   UNL     1      29.691  45.883  56.910  1.00  0.00     0.048 C 
HETATM   23  C   UNL     1      30.543  43.967  55.529  1.00  0.00     0.007 A 
HETATM   24  C   UNL     1      30.420  43.071  54.465  1.00  0.00     0.010 A 
HETATM   25  C   UNL     1      29.305  43.116  53.616  1.00  0.00    -0.029 A 
HETATM   26  C   UNL     1      29.182  42.128  52.492  1.00  0.00     0.051 C 
ENDBRANCH  18  19
ENDBRANCH  17  18
ENDBRANCH   1  17
TORSDOF 5
ENDMDL
MODEL 9
REMARK VINA RESULT:      -8.2      2.239      3.452
REMARK  5 active torsions:
REMARK  status: ('A' for Active; 'I' for Inactive)
REMARK    1  A    between atoms: C_4  and  O_5 
REMARK    2  A    between atoms: O_5  and  C_6 
REMARK    3  A    between atoms: C_6  and  C_7 
REMARK       I    between atoms: C_7  and  N_8 
REMARK    4  A    between atoms: N_8  and  N_9 
REMARK    5  A    between atoms: C_10  and  C_11 
ROOT
HETATM    1  C   UNL     1      25.068  44.957  51.473  1.00  0.00     0.261 C 
HETATM    2  N   UNL     1      24.964  46.011  50.575  1.00  0.00    -0.246 N 
HETATM    3  O   UNL     1      24.187  44.147  51.757  1.00  0.00    -0.269 OA
HETATM    4  H   UNL     1      25.828  46.498  50.339  1.00  0.00     0.192 HD
ENDROOT
BRANCH   2   5
HETATM    5  N   UNL     1      23.905  46.330  49.761  1.00  0.00    -0.184 NA
HETATM    6  C   UNL     1      23.691  47.563  49.430  1.00  0.00     0.152 C 
BRANCH   6   7
HETATM    7  C   UNL     1      22.548  47.892  48.600  1.00  0.00     0.011 A 
HETATM    8  C   UNL     1      21.829  49.132  48.589  1.00  0.00     0.004 A 
HETATM    9  C   UNL     1      20.805  49.015  47.648  1.00  0.00     0.043 A 
HETATM   10  C   UNL     1      21.947  50.342  49.305  1.00  0.00     0.014 A 
HETATM   11  C   UNL     1      19.896  50.047  47.385  1.00  0.00     0.030 A 
HETATM   12  N   UNL     1      20.899  47.755  47.103  1.00  0.00    -0.364 N 
HETATM   13  C   UNL     1      20.035  51.234  48.111  1.00  0.00     0.002 A 
HETATM   14  C   UNL     1      21.044  51.383  49.057  1.00  0.00     0.001 A 
HETATM   15  H   UNL     1      20.281  47.392  46.390  1.00  0.00     0.165 HD
HETATM   16  C   UNL     1      21.937  47.068  47.673  1.00  0.00     0.102 A 
ENDBRANCH   6   7
ENDBRANCH   2   5
BRANCH   1  17
HETATM   17  C   UNL     1      26.414  44.925  52.192  1.00  0.00     0.280 C 
BRANCH  17  18
HETATM   18  O   UNL     1      26.240  44.911  53.607  1.00  0.00    -0.342 OA
BRANCH  18  19
HETATM   19  C   UNL     1      27.401  45.089  54.320  1.00  0.00     0.075 A 
HETATM   20  C   UNL     1      28.383  44.097  54.443  1.00  0.00     0.044 A 
HETATM   21  C   UNL     1      29.550  44.334  55.182  1.00  0.00    -0.059 A 
HETATM   22  C   UNL     1      30.622  43.290  55.278  1.00  0.00     0.048 C 
HETATM   23  C   UNL     1      29.726  45.578  55.793  1.00  0.00     0.007 A 
HETATM   24  C   UNL     1      28.738  46.560  55.695  1.00  0.00     0.010 A 
HETATM   25  C   UNL     1      27.561  46.321  54.971  1.00  0.00    -0.029 A 
HETATM   26  C   UNL     1      26.521  47.399  54.859  1.00  0.00     0.051 C 
ENDBRANCH  18  19
ENDBRANCH  17  18
ENDBRANCH   1  17
TORSDOF 5
ENDMDL
MODEL 10
REMARK VINA RESULT:      -8.0      1.862      2.900
REMARK  5 active torsions:
REMARK  status: ('A' for Active; 'I' for Inactive)
REMARK    1  A    between atoms: C_4  and  O_5 
REMARK    2  A    between atoms: O_5  and  C_6 
REMARK    3  A    between atoms: C_6  and  C_7 
REMARK       I    between atoms: C_7  and  N_8 
REMARK    4  A    between atoms: N_8  and  N_9 
REMARK    5  A    between atoms: C_10  and  C_11 
ROOT
HETATM    1  C   UNL     1      27.198  43.996  51.597  1.00  0.00     0.261 C 
HETATM    2  N   UNL     1      26.435  45.114  51.908  1.00  0.00    -0.246 N 
HETATM    3  O   UNL     1      26.945  43.152  50.738  1.00  0.00    -0.269 OA
HETATM    4  H   UNL     1      26.857  45.795  52.539  1.00  0.00     0.192 HD
ENDROOT
BRANCH   2   5
HETATM    5  N   UNL     1      25.295  45.562  51.287  1.00  0.00    -0.184 NA
HETATM    6  C   UNL     1      25.370  46.114  50.119  1.00  0.00     0.152 C 
BRANCH   6   7
HETATM    7  C   UNL     1      24.164  46.618  49.488  1.00  0.00     0.011 A 
HETATM    8  C   UNL     1      23.954  47.942  48.982  1.00  0.00     0.004 A 
HETATM    9  C   UNL     1      22.658  47.994  48.467  1.00  0.00     0.043 A 
HETATM   10  C   UNL     1      24.745  49.110  48.927  1.00  0.00     0.014 A 
HETATM   11  C   UNL     1      22.115  49.152  47.896  1.00  0.00     0.030 A 
HETATM   12  N   UNL     1      22.102  46.748  48.647  1.00  0.00    -0.364 N 
HETATM   13  C   UNL     1      22.920  50.295  47.857  1.00  0.00     0.002 A 
HETATM   14  C   UNL     1      24.216  50.277  48.364  1.00  0.00     0.001 A 
HETATM   15  H   UNL     1      21.165  46.493  48.367  1.00  0.00     0.165 HD
HETATM   16  C   UNL     1      22.994  45.916  49.267  1.00  0.00     0.102 A 
ENDBRANCH   6   7
ENDBRANCH   2   5
BRANCH   1  17
HETATM   17  C   UNL     1      28.407  43.833  52.514  1.00  0.00     0.280 C 
BRANCH  17  18
HETATM   18  O   UNL     1      28.003  43.611  53.863  1.00  0.00    -0.342 OA
BRANCH  18  19
HETATM   19  C   UNL     1      28.855  44.138  54.802  1.00  0.00     0.075 A 
HETATM   20  C   UNL     1      29.968  43.445  55.299  1.00  0.00     0.044 A 
HETATM   21  C   UNL     1      30.807  44.033  56.255  1.00  0.00    -0.059 A 
HETATM   22  C   UNL     1      32.022  43.311  56.756  1.00  0.00     0.048 C 
HETATM   23  C   UNL     1      30.523  45.324  56.707  1.00  0.00     0.007 A 
HETATM   24  C   UNL     1      29.400  46.008  56.233  1.00  0.00     0.010 A 
HETATM   25  C   UNL     1      28.549  45.417  55.289  1.00  0.00    -0.029 A 
HETATM   26  C   UNL     1      27.360  46.178  54.776  1.00  0.00     0.051 C 
ENDBRANCH  18  19
ENDBRANCH  17  18
ENDBRANCH   1  17
TORSDOF 5
ENDMDL
