MODEL 1
REMARK VINA RESULT:      -8.0      0.000      0.000
REMARK  9 active torsions:
REMARK  status: ('A' for Active; 'I' for Inactive)
REMARK    1  A    between atoms: C_2  and  C_3 
REMARK    2  A    between atoms: C_7  and  C_8 
REMARK    3  A    between atoms: C_8  and  C_9 
REMARK       I    between atoms: C_9  and  N_10 
REMARK    4  A    between atoms: N_10  and  C_11 
REMARK    5  A    between atoms: C_11  and  C_12 
REMARK    6  A    between atoms: C_12  and  N_13 
REMARK    7  A    between atoms: C_21  and  C_22 
REMARK    8  A    between atoms: C_32  and  C_33 
REMARK    9  A    between atoms: C_33  and  O_34 
ROOT
HETATM    1  C   UNL     1      25.476  44.194  53.159  1.00  0.00     0.051 C 
HETATM    2  N   UNL     1      24.549  43.648  52.272  1.00  0.00    -0.228 NA
HETATM    3  C   UNL     1      24.753  43.897  51.020  1.00  0.00     0.170 C 
HETATM    4  N   UNL     1      26.018  44.642  50.522  1.00  0.00    -0.318 N 
HETATM    5  C   UNL     1      25.653  45.539  49.671  1.00  0.00     0.011 C 
HETATM    6  C   UNL     1      27.193  44.311  51.367  1.00  0.00     0.166 C 
HETATM    7  S   UNL     1      23.553  43.818  49.781  1.00  0.00    -0.086 SA
HETATM    8  C   UNL     1      24.377  45.208  48.913  1.00  0.00     0.135 C 
HETATM    9  C   UNL     1      26.728  44.539  52.769  1.00  0.00     0.069 C 
ENDROOT
BRANCH   5  10
HETATM   10  C   UNL     1      26.239  46.928  49.732  1.00  0.00     0.156 C 
BRANCH  10  11
HETATM   11  C   UNL     1      25.086  47.925  49.824  1.00  0.00     0.223 C 
HETATM   12  N   UNL     1      24.819  48.708  48.740  1.00  0.00    -0.359 N 
HETATM   13  H   UNL     1      25.446  48.674  47.938  1.00  0.00     0.162 HD
HETATM   14  O   UNL     1      24.425  48.020  50.858  1.00  0.00    -0.273 OA
BRANCH  12  15
HETATM   15  C   UNL     1      23.940  49.888  48.819  1.00  0.00     0.150 C 
BRANCH  15  16
HETATM   16  C   UNL     1      22.879  50.022  47.696  1.00  0.00     0.254 C 
BRANCH  16  17
HETATM   17  N   UNL     1      21.458  50.078  48.234  1.00  0.00    -0.070 N 
HETATM   18  H   UNL     1      20.838  49.862  47.431  1.00  0.00     0.279 HD
HETATM   19  C   UNL     1      21.159  49.020  49.272  1.00  0.00     0.235 C 
HETATM   20  C   UNL     1      19.665  49.029  49.574  1.00  0.00     0.028 C 
HETATM   21  C   UNL     1      19.187  50.403  50.028  1.00  0.00     0.003 C 
HETATM   22  C   UNL     1      19.589  51.487  49.035  1.00  0.00     0.028 C 
HETATM   23  C   UNL     1      21.080  51.454  48.730  1.00  0.00     0.235 C 
ENDBRANCH  16  17
ENDBRANCH  15  16
ENDBRANCH  12  15
ENDBRANCH  10  11
ENDBRANCH   5  10
BRANCH   6  24
HETATM   24  C   UNL     1      27.649  42.887  50.964  1.00  0.00    -0.024 C 
HETATM   25  C   UNL     1      28.387  41.972  51.755  1.00  0.00    -0.053 C 
HETATM   26  C   UNL     1      29.108  42.287  53.041  1.00  0.00     0.049 C 
HETATM   27  C   UNL     1      28.470  40.621  51.348  1.00  0.00     0.014 C 
HETATM   28  C   UNL     1      27.899  40.160  50.162  1.00  0.00    -0.061 C 
HETATM   29  C   UNL     1      27.990  38.710  49.785  1.00  0.00     0.048 C 
HETATM   30  C   UNL     1      27.307  41.084  49.311  1.00  0.00     0.007 C 
HETATM   31  C   UNL     1      27.197  42.421  49.698  1.00  0.00     0.011 C 
ENDBRANCH   6  24
BRANCH   9  32
HETATM   32  C   UNL     1      27.574  45.442  53.573  1.00  0.00     0.293 C 
HETATM   33  O   UNL     1      28.442  45.016  54.317  1.00  0.00    -0.259 OA
BRANCH  32  34
HETATM   34  O   UNL     1      27.114  46.702  53.476  1.00  0.00    -0.323 OA
HETATM   35  C   UNL     1      27.074  47.467  54.689  1.00  0.00     0.213 C 
ENDBRANCH  32  34
ENDBRANCH   9  32
BRANCH   1  36
HETATM   36  C   UNL     1      24.945  44.405  54.564  1.00  0.00     0.056 C 
HETATM   37  C   UNL     1      25.470  43.357  55.535  1.00  0.00     0.011 C 
ENDBRANCH   1  36
TORSDOF 9
ENDMDL
MODEL 2
REMARK VINA RESULT:      -8.0      5.301     10.949
REMARK  9 active torsions:
REMARK  status: ('A' for Active; 'I' for Inactive)
REMARK    1  A    between atoms: C_2  and  C_3 
REMARK    2  A    between atoms: C_7  and  C_8 
REMARK    3  A    between atoms: C_8  and  C_9 
REMARK       I    between atoms: C_9  and  N_10 
REMARK    4  A    between atoms: N_10  and  C_11 
REMARK    5  A    between atoms: C_11  and  C_12 
REMARK    6  A    between atoms: C_12  and  N_13 
REMARK    7  A    between atoms: C_21  and  C_22 
REMARK    8  A    between atoms: C_32  and  C_33 
REMARK    9  A    between atoms: C_33  and  O_34 
ROOT
HETATM    1  C   UNL     1      18.946  50.089  47.485  1.00  0.00     0.051 C 
HETATM    2  N   UNL     1      19.051  49.646  46.167  1.00  0.00    -0.228 NA
HETATM    3  C   UNL     1      18.509  48.501  45.914  1.00  0.00     0.170 C 
HETATM    4  N   UNL     1      17.680  47.727  46.971  1.00  0.00    -0.318 N 
HETATM    5  C   UNL     1      18.053  46.493  46.957  1.00  0.00     0.011 C 
HETATM    6  C   UNL     1      16.944  48.666  47.855  1.00  0.00     0.166 C 
HETATM    7  S   UNL     1      18.909  47.484  44.576  1.00  0.00    -0.086 SA
HETATM    8  C   UNL     1      18.585  46.009  45.617  1.00  0.00     0.135 C 
HETATM    9  C   UNL     1      17.979  49.637  48.321  1.00  0.00     0.069 C 
ENDROOT
BRANCH   5  10
HETATM   10  C   UNL     1      18.287  45.755  48.252  1.00  0.00     0.156 C 
BRANCH  10  11
HETATM   11  C   UNL     1      19.790  45.729  48.517  1.00  0.00     0.223 C 
HETATM   12  N   UNL     1      20.433  46.916  48.719  1.00  0.00    -0.359 N 
HETATM   13  H   UNL     1      19.917  47.785  48.598  1.00  0.00     0.162 HD
HETATM   14  O   UNL     1      20.402  44.661  48.538  1.00  0.00    -0.273 OA
BRANCH  12  15
HETATM   15  C   UNL     1      21.902  47.031  48.688  1.00  0.00     0.150 C 
BRANCH  15  16
HETATM   16  C   UNL     1      22.477  48.450  48.927  1.00  0.00     0.254 C 
BRANCH  16  17
HETATM   17  N   UNL     1      23.985  48.512  48.743  1.00  0.00    -0.070 N 
HETATM   18  H   UNL     1      24.193  47.968  47.886  1.00  0.00     0.279 HD
HETATM   19  C   UNL     1      24.507  49.907  48.472  1.00  0.00     0.235 C 
HETATM   20  C   UNL     1      25.980  49.820  48.089  1.00  0.00     0.028 C 
HETATM   21  C   UNL     1      26.804  49.116  49.162  1.00  0.00     0.003 C 
HETATM   22  C   UNL     1      26.211  47.757  49.515  1.00  0.00     0.028 C 
HETATM   23  C   UNL     1      24.736  47.858  49.879  1.00  0.00     0.235 C 
ENDBRANCH  16  17
ENDBRANCH  15  16
ENDBRANCH  12  15
ENDBRANCH  10  11
ENDBRANCH   5  10
BRANCH   6  24
HETATM   24  C   UNL     1      15.742  49.203  47.038  1.00  0.00    -0.024 C 
HETATM   25  C   UNL     1      15.442  50.558  46.755  1.00  0.00    -0.053 C 
HETATM   26  C   UNL     1      16.069  51.764  47.407  1.00  0.00     0.049 C 
HETATM   27  C   UNL     1      14.480  50.858  45.764  1.00  0.00     0.014 C 
HETATM   28  C   UNL     1      13.768  49.866  45.088  1.00  0.00    -0.061 C 
HETATM   29  C   UNL     1      12.775  50.231  44.023  1.00  0.00     0.048 C 
HETATM   30  C   UNL     1      13.951  48.544  45.471  1.00  0.00     0.007 C 
HETATM   31  C   UNL     1      14.908  48.221  46.435  1.00  0.00     0.011 C 
ENDBRANCH   6  24
BRANCH   9  32
HETATM   32  C   UNL     1      18.075  49.799  49.784  1.00  0.00     0.293 C 
HETATM   33  O   UNL     1      17.696  50.814  50.345  1.00  0.00    -0.259 OA
BRANCH  32  34
HETATM   34  O   UNL     1      18.775  48.777  50.309  1.00  0.00    -0.323 OA
HETATM   35  C   UNL     1      18.581  48.516  51.707  1.00  0.00     0.213 C 
ENDBRANCH  32  34
ENDBRANCH   9  32
BRANCH   1  36
HETATM   36  C   UNL     1      20.025  51.070  47.900  1.00  0.00     0.056 C 
HETATM   37  C   UNL     1      19.471  52.470  48.116  1.00  0.00     0.011 C 
ENDBRANCH   1  36
TORSDOF 9
ENDMDL
MODEL 3
REMARK VINA RESULT:      -7.8      7.704     10.995
REMARK  9 active torsions:
REMARK  status: ('A' for Active; 'I' for Inactive)
REMARK    1  A    between atoms: C_2  and  C_3 
REMARK    2  A    between atoms: C_7  and  C_8 
REMARK    3  A    between atoms: C_8  and  C_9 
REMARK       I    between atoms: C_9  and  N_10 
REMARK    4  A    between atoms: N_10  and  C_11 
REMARK    5  A    between atoms: C_11  and  C_12 
REMARK    6  A    between atoms: C_12  and  N_13 
REMARK    7  A    between atoms: C_21  and  C_22 
REMARK    8  A    between atoms: C_32  and  C_33 
REMARK    9  A    between atoms: C_33  and  O_34 
ROOT
HETATM    1  C   UNL     1      17.845  47.968  45.950  1.00  0.00     0.051 C 
HETATM    2  N   UNL     1      18.015  49.053  45.091  1.00  0.00    -0.228 NA
HETATM    3  C   UNL     1      17.862  50.221  45.623  1.00  0.00     0.170 C 
HETATM    4  N   UNL     1      17.637  50.412  47.145  1.00  0.00    -0.318 N 
HETATM    5  C   UNL     1      16.672  51.250  47.311  1.00  0.00     0.011 C 
HETATM    6  C   UNL     1      18.374  49.384  47.921  1.00  0.00     0.166 C 
HETATM    7  S   UNL     1      17.499  51.670  44.756  1.00  0.00    -0.086 SA
HETATM    8  C   UNL     1      16.513  52.261  46.186  1.00  0.00     0.135 C 
HETATM    9  C   UNL     1      17.986  48.085  47.293  1.00  0.00     0.069 C 
ENDROOT
BRANCH   5  10
HETATM   10  C   UNL     1      15.595  50.979  48.332  1.00  0.00     0.156 C 
BRANCH  10  11
HETATM   11  C   UNL     1      15.854  51.873  49.542  1.00  0.00     0.223 C 
HETATM   12  N   UNL     1      14.902  52.788  49.885  1.00  0.00    -0.359 N 
HETATM   13  H   UNL     1      14.094  52.914  49.279  1.00  0.00     0.162 HD
HETATM   14  O   UNL     1      16.901  51.773  50.181  1.00  0.00    -0.273 OA
BRANCH  12  15
HETATM   15  C   UNL     1      15.170  53.885  50.834  1.00  0.00     0.150 C 
BRANCH  15  16
HETATM   16  C   UNL     1      14.920  55.319  50.302  1.00  0.00     0.254 C 
BRANCH  16  17
HETATM   17  N   UNL     1      15.237  56.392  51.331  1.00  0.00    -0.070 N 
HETATM   18  H   UNL     1      16.248  56.597  51.230  1.00  0.00     0.279 HD
HETATM   19  C   UNL     1      14.531  57.706  51.078  1.00  0.00     0.235 C 
HETATM   20  C   UNL     1      15.086  58.760  52.028  1.00  0.00     0.028 C 
HETATM   21  C   UNL     1      14.958  58.332  53.486  1.00  0.00     0.003 C 
HETATM   22  C   UNL     1      15.571  56.956  53.717  1.00  0.00     0.028 C 
HETATM   23  C   UNL     1      15.019  55.918  52.749  1.00  0.00     0.235 C 
ENDBRANCH  16  17
ENDBRANCH  15  16
ENDBRANCH  12  15
ENDBRANCH  10  11
ENDBRANCH   5  10
BRANCH   6  24
HETATM   24  C   UNL     1      19.867  49.794  47.905  1.00  0.00    -0.024 C 
HETATM   25  C   UNL     1      20.410  51.053  48.261  1.00  0.00    -0.053 C 
HETATM   26  C   UNL     1      19.635  52.330  48.469  1.00  0.00     0.049 C 
HETATM   27  C   UNL     1      21.804  51.170  48.465  1.00  0.00     0.014 C 
HETATM   28  C   UNL     1      22.680  50.101  48.275  1.00  0.00    -0.061 C 
HETATM   29  C   UNL     1      24.150  50.265  48.532  1.00  0.00     0.048 C 
HETATM   30  C   UNL     1      22.170  48.908  47.780  1.00  0.00     0.007 C 
HETATM   31  C   UNL     1      20.795  48.762  47.586  1.00  0.00     0.011 C 
ENDBRANCH   6  24
BRANCH   9  32
HETATM   32  C   UNL     1      17.455  47.070  48.224  1.00  0.00     0.293 C 
HETATM   33  O   UNL     1      16.271  47.022  48.514  1.00  0.00    -0.259 OA
BRANCH  32  34
HETATM   34  O   UNL     1      18.471  46.392  48.786  1.00  0.00    -0.323 OA
HETATM   35  C   UNL     1      18.929  45.225  48.086  1.00  0.00     0.213 C 
ENDBRANCH  32  34
ENDBRANCH   9  32
BRANCH   1  36
HETATM   36  C   UNL     1      17.449  46.679  45.255  1.00  0.00     0.056 C 
HETATM   37  C   UNL     1      18.405  46.323  44.127  1.00  0.00     0.011 C 
ENDBRANCH   1  36
TORSDOF 9
ENDMDL
MODEL 4
REMARK VINA RESULT:      -7.7      5.389     12.138
REMARK  9 active torsions:
REMARK  status: ('A' for Active; 'I' for Inactive)
REMARK    1  A    between atoms: C_2  and  C_3 
REMARK    2  A    between atoms: C_7  and  C_8 
REMARK    3  A    between atoms: C_8  and  C_9 
REMARK       I    between atoms: C_9  and  N_10 
REMARK    4  A    between atoms: N_10  and  C_11 
REMARK    5  A    between atoms: C_11  and  C_12 
REMARK    6  A    between atoms: C_12  and  N_13 
REMARK    7  A    between atoms: C_21  and  C_22 
REMARK    8  A    between atoms: C_32  and  C_33 
REMARK    9  A    between atoms: C_33  and  O_34 
ROOT
HETATM    1  C   UNL     1      14.971  49.392  46.132  1.00  0.00     0.051 C 
HETATM    2  N   UNL     1      14.923  48.634  47.301  1.00  0.00    -0.228 NA
HETATM    3  C   UNL     1      16.038  48.520  47.945  1.00  0.00     0.170 C 
HETATM    4  N   UNL     1      17.318  49.283  47.519  1.00  0.00    -0.318 N 
HETATM    5  C   UNL     1      18.310  48.460  47.542  1.00  0.00     0.011 C 
HETATM    6  C   UNL     1      16.977  50.610  46.947  1.00  0.00     0.166 C 
HETATM    7  S   UNL     1      16.409  47.272  49.080  1.00  0.00    -0.086 SA
HETATM    8  C   UNL     1      18.162  47.321  48.540  1.00  0.00     0.135 C 
HETATM    9  C   UNL     1      15.934  50.320  45.916  1.00  0.00     0.069 C 
ENDROOT
BRANCH   5  10
HETATM   10  C   UNL     1      19.309  48.440  46.412  1.00  0.00     0.156 C 
BRANCH  10  11
HETATM   11  C   UNL     1      20.646  47.961  46.971  1.00  0.00     0.223 C 
HETATM   12  N   UNL     1      21.344  48.801  47.790  1.00  0.00    -0.359 N 
HETATM   13  H   UNL     1      21.004  49.750  47.932  1.00  0.00     0.162 HD
HETATM   14  O   UNL     1      21.083  46.848  46.679  1.00  0.00    -0.273 OA
BRANCH  12  15
HETATM   15  C   UNL     1      22.756  48.566  48.139  1.00  0.00     0.150 C 
BRANCH  15  16
HETATM   16  C   UNL     1      23.630  49.833  48.324  1.00  0.00     0.254 C 
BRANCH  16  17
HETATM   17  N   UNL     1      24.997  49.523  48.913  1.00  0.00    -0.070 N 
HETATM   18  H   UNL     1      25.078  50.099  49.771  1.00  0.00     0.279 HD
HETATM   19  C   UNL     1      25.152  48.090  49.370  1.00  0.00     0.235 C 
HETATM   20  C   UNL     1      26.463  47.951  50.135  1.00  0.00     0.028 C 
HETATM   21  C   UNL     1      27.657  48.398  49.299  1.00  0.00     0.003 C 
HETATM   22  C   UNL     1      27.450  49.802  48.743  1.00  0.00     0.028 C 
HETATM   23  C   UNL     1      26.129  49.930  47.997  1.00  0.00     0.235 C 
ENDBRANCH  16  17
ENDBRANCH  15  16
ENDBRANCH  12  15
ENDBRANCH  10  11
ENDBRANCH   5  10
BRANCH   6  24
HETATM   24  C   UNL     1      16.602  51.529  48.136  1.00  0.00    -0.024 C 
HETATM   25  C   UNL     1      17.455  51.960  49.182  1.00  0.00    -0.053 C 
HETATM   26  C   UNL     1      18.818  51.404  49.505  1.00  0.00     0.049 C 
HETATM   27  C   UNL     1      17.037  53.018  50.020  1.00  0.00     0.014 C 
HETATM   28  C   UNL     1      15.786  53.623  49.894  1.00  0.00    -0.061 C 
HETATM   29  C   UNL     1      15.396  54.764  50.789  1.00  0.00     0.048 C 
HETATM   30  C   UNL     1      14.890  53.103  48.969  1.00  0.00     0.007 C 
HETATM   31  C   UNL     1      15.285  52.068  48.118  1.00  0.00     0.011 C 
ENDBRANCH   6  24
BRANCH   9  32
HETATM   32  C   UNL     1      16.220  50.849  44.568  1.00  0.00     0.293 C 
HETATM   33  O   UNL     1      16.926  50.245  43.778  1.00  0.00    -0.259 OA
BRANCH  32  34
HETATM   34  O   UNL     1      15.746  52.103  44.461  1.00  0.00    -0.323 OA
HETATM   35  C   UNL     1      16.708  53.164  44.559  1.00  0.00     0.213 C 
ENDBRANCH  32  34
ENDBRANCH   9  32
BRANCH   1  36
HETATM   36  C   UNL     1      13.891  49.050  45.123  1.00  0.00     0.056 C 
HETATM   37  C   UNL     1      13.233  47.711  45.424  1.00  0.00     0.011 C 
ENDBRANCH   1  36
TORSDOF 9
ENDMDL
MODEL 5
REMARK VINA RESULT:      -7.6      6.099     12.633
REMARK  9 active torsions:
REMARK  status: ('A' for Active; 'I' for Inactive)
REMARK    1  A    between atoms: C_2  and  C_3 
REMARK    2  A    between atoms: C_7  and  C_8 
REMARK    3  A    between atoms: C_8  and  C_9 
REMARK       I    between atoms: C_9  and  N_10 
REMARK    4  A    between atoms: N_10  and  C_11 
REMARK    5  A    between atoms: C_11  and  C_12 
REMARK    6  A    between atoms: C_12  and  N_13 
REMARK    7  A    between atoms: C_21  and  C_22 
REMARK    8  A    between atoms: C_32  and  C_33 
REMARK    9  A    between atoms: C_33  and  O_34 
ROOT
HETATM    1  C   UNL     1      17.916  51.919  47.374  1.00  0.00     0.051 C 
HETATM    2  N   UNL     1      18.326  51.393  46.150  1.00  0.00    -0.228 NA
HETATM    3  C   UNL     1      17.649  50.382  45.716  1.00  0.00     0.170 C 
HETATM    4  N   UNL     1      16.380  49.866  46.441  1.00  0.00    -0.318 N 
HETATM    5  C   UNL     1      16.452  48.582  46.524  1.00  0.00     0.011 C 
HETATM    6  C   UNL     1      15.634  50.989  47.063  1.00  0.00     0.166 C 
HETATM    7  S   UNL     1      18.210  49.232  44.556  1.00  0.00    -0.086 SA
HETATM    8  C   UNL     1      17.254  47.922  45.413  1.00  0.00     0.135 C 
HETATM    9  C   UNL     1      16.661  51.736  47.851  1.00  0.00     0.069 C 
ENDROOT
BRANCH   5  10
HETATM   10  C   UNL     1      16.097  47.882  47.812  1.00  0.00     0.156 C 
BRANCH  10  11
HETATM   11  C   UNL     1      17.395  47.469  48.500  1.00  0.00     0.223 C 
HETATM   12  N   UNL     1      18.166  48.443  49.065  1.00  0.00    -0.359 N 
HETATM   13  H   UNL     1      17.906  49.418  48.935  1.00  0.00     0.162 HD
HETATM   14  O   UNL     1      17.736  46.287  48.533  1.00  0.00    -0.273 OA
BRANCH  12  15
HETATM   15  C   UNL     1      19.558  48.199  49.486  1.00  0.00     0.150 C 
BRANCH  15  16
HETATM   16  C   UNL     1      20.606  48.111  48.347  1.00  0.00     0.254 C 
BRANCH  16  17
HETATM   17  N   UNL     1      21.984  48.588  48.777  1.00  0.00    -0.070 N 
HETATM   18  H   UNL     1      21.854  49.054  49.694  1.00  0.00     0.279 HD
HETATM   19  C   UNL     1      22.964  47.463  49.031  1.00  0.00     0.235 C 
HETATM   20  C   UNL     1      24.227  48.038  49.662  1.00  0.00     0.028 C 
HETATM   21  C   UNL     1      24.846  49.130  48.797  1.00  0.00     0.003 C 
HETATM   22  C   UNL     1      23.826  50.207  48.447  1.00  0.00     0.028 C 
HETATM   23  C   UNL     1      22.564  49.616  47.834  1.00  0.00     0.235 C 
ENDBRANCH  16  17
ENDBRANCH  15  16
ENDBRANCH  12  15
ENDBRANCH  10  11
ENDBRANCH   5  10
BRANCH   6  24
HETATM   24  C   UNL     1      14.901  51.731  45.917  1.00  0.00    -0.024 C 
HETATM   25  C   UNL     1      13.893  51.208  45.071  1.00  0.00    -0.053 C 
HETATM   26  C   UNL     1      13.514  49.756  44.929  1.00  0.00     0.049 C 
HETATM   27  C   UNL     1      13.133  52.096  44.275  1.00  0.00     0.014 C 
HETATM   28  C   UNL     1      13.375  53.470  44.247  1.00  0.00    -0.061 C 
HETATM   29  C   UNL     1      12.523  54.377  43.408  1.00  0.00     0.048 C 
HETATM   30  C   UNL     1      14.460  53.964  44.958  1.00  0.00     0.007 C 
HETATM   31  C   UNL     1      15.215  53.111  45.765  1.00  0.00     0.011 C 
ENDBRANCH   6  24
BRANCH   9  32
HETATM   32  C   UNL     1      16.327  51.951  49.272  1.00  0.00     0.293 C 
HETATM   33  O   UNL     1      16.837  51.287  50.159  1.00  0.00    -0.259 OA
BRANCH  32  34
HETATM   34  O   UNL     1      15.303  52.816  49.373  1.00  0.00    -0.323 OA
HETATM   35  C   UNL     1      15.519  53.978  50.188  1.00  0.00     0.213 C 
ENDBRANCH  32  34
ENDBRANCH   9  32
BRANCH   1  36
HETATM   36  C   UNL     1      19.002  52.662  48.129  1.00  0.00     0.056 C 
HETATM   37  C   UNL     1      20.037  51.715  48.716  1.00  0.00     0.011 C 
ENDBRANCH   1  36
TORSDOF 9
ENDMDL
MODEL 6
REMARK VINA RESULT:      -7.4     18.366     20.989
REMARK  9 active torsions:
REMARK  status: ('A' for Active; 'I' for Inactive)
REMARK    1  A    between atoms: C_2  and  C_3 
REMARK    2  A    between atoms: C_7  and  C_8 
REMARK    3  A    between atoms: C_8  and  C_9 
REMARK       I    between atoms: C_9  and  N_10 
REMARK    4  A    between atoms: N_10  and  C_11 
REMARK    5  A    between atoms: C_11  and  C_12 
REMARK    6  A    between atoms: C_12  and  N_13 
REMARK    7  A    between atoms: C_21  and  C_22 
REMARK    8  A    between atoms: C_32  and  C_33 
REMARK    9  A    between atoms: C_33  and  O_34 
ROOT
HETATM    1  C   UNL     1      37.610  45.141  64.745  1.00  0.00     0.051 C 
HETATM    2  N   UNL     1      38.892  45.519  64.348  1.00  0.00    -0.228 NA
HETATM    3  C   UNL     1      39.862  45.069  65.075  1.00  0.00     0.170 C 
HETATM    4  N   UNL     1      39.628  44.067  66.235  1.00  0.00    -0.318 N 
HETATM    5  C   UNL     1      40.298  44.468  67.260  1.00  0.00     0.011 C 
HETATM    6  C   UNL     1      38.508  43.145  65.918  1.00  0.00     0.166 C 
HETATM    7  S   UNL     1      41.444  45.755  65.159  1.00  0.00    -0.086 SA
HETATM    8  C   UNL     1      41.546  45.269  66.925  1.00  0.00     0.135 C 
HETATM    9  C   UNL     1      37.387  44.040  65.502  1.00  0.00     0.069 C 
ENDROOT
BRANCH   5  10
HETATM   10  C   UNL     1      39.668  44.460  68.631  1.00  0.00     0.156 C 
BRANCH  10  11
HETATM   11  C   UNL     1      39.123  45.858  68.911  1.00  0.00     0.223 C 
HETATM   12  N   UNL     1      39.727  46.606  69.878  1.00  0.00    -0.359 N 
HETATM   13  H   UNL     1      40.460  46.185  70.446  1.00  0.00     0.162 HD
HETATM   14  O   UNL     1      38.156  46.289  68.283  1.00  0.00    -0.273 OA
BRANCH  12  15
HETATM   15  C   UNL     1      39.112  47.828  70.428  1.00  0.00     0.150 C 
BRANCH  15  16
HETATM   16  C   UNL     1      39.554  49.163  69.777  1.00  0.00     0.254 C 
BRANCH  16  17
HETATM   17  N   UNL     1      39.105  49.291  68.330  1.00  0.00    -0.070 N 
HETATM   18  H   UNL     1      38.391  48.553  68.185  1.00  0.00     0.279 HD
HETATM   19  C   UNL     1      38.406  50.597  68.024  1.00  0.00     0.235 C 
HETATM   20  C   UNL     1      37.811  50.525  66.622  1.00  0.00     0.028 C 
HETATM   21  C   UNL     1      38.869  50.202  65.573  1.00  0.00     0.003 C 
HETATM   22  C   UNL     1      39.651  48.946  65.941  1.00  0.00     0.028 C 
HETATM   23  C   UNL     1      40.224  49.026  67.350  1.00  0.00     0.235 C 
ENDBRANCH  16  17
ENDBRANCH  15  16
ENDBRANCH  12  15
ENDBRANCH  10  11
ENDBRANCH   5  10
BRANCH   6  24
HETATM   24  C   UNL     1      39.049  42.116  64.894  1.00  0.00    -0.024 C 
HETATM   25  C   UNL     1      39.953  41.056  65.148  1.00  0.00    -0.053 C 
HETATM   26  C   UNL     1      40.780  40.869  66.394  1.00  0.00     0.049 C 
HETATM   27  C   UNL     1      40.118  40.043  64.175  1.00  0.00     0.014 C 
HETATM   28  C   UNL     1      39.464  40.076  62.943  1.00  0.00    -0.061 C 
HETATM   29  C   UNL     1      39.648  38.964  61.951  1.00  0.00     0.048 C 
HETATM   30  C   UNL     1      38.697  41.191  62.631  1.00  0.00     0.007 C 
HETATM   31  C   UNL     1      38.505  42.196  63.582  1.00  0.00     0.011 C 
ENDBRANCH   6  24
BRANCH   9  32
HETATM   32  C   UNL     1      36.119  43.839  66.231  1.00  0.00     0.293 C 
HETATM   33  O   UNL     1      36.033  44.024  67.433  1.00  0.00    -0.259 OA
BRANCH  32  34
HETATM   34  O   UNL     1      35.209  43.279  65.413  1.00  0.00    -0.323 OA
HETATM   35  C   UNL     1      35.079  41.851  65.477  1.00  0.00     0.213 C 
ENDBRANCH  32  34
ENDBRANCH   9  32
BRANCH   1  36
HETATM   36  C   UNL     1      36.515  46.090  64.296  1.00  0.00     0.056 C 
HETATM   37  C   UNL     1      36.361  47.271  65.243  1.00  0.00     0.011 C 
ENDBRANCH   1  36
TORSDOF 9
ENDMDL
MODEL 7
REMARK VINA RESULT:      -7.4      4.629     12.146
REMARK  9 active torsions:
REMARK  status: ('A' for Active; 'I' for Inactive)
REMARK    1  A    between atoms: C_2  and  C_3 
REMARK    2  A    between atoms: C_7  and  C_8 
REMARK    3  A    between atoms: C_8  and  C_9 
REMARK       I    between atoms: C_9  and  N_10 
REMARK    4  A    between atoms: N_10  and  C_11 
REMARK    5  A    between atoms: C_11  and  C_12 
REMARK    6  A    between atoms: C_12  and  N_13 
REMARK    7  A    between atoms: C_21  and  C_22 
REMARK    8  A    between atoms: C_32  and  C_33 
REMARK    9  A    between atoms: C_33  and  O_34 
ROOT
HETATM    1  C   UNL     1      16.036  49.848  45.526  1.00  0.00     0.051 C 
HETATM    2  N   UNL     1      15.679  48.986  46.561  1.00  0.00    -0.228 NA
HETATM    3  C   UNL     1      16.552  48.844  47.503  1.00  0.00     0.170 C 
HETATM    4  N   UNL     1      17.858  49.678  47.550  1.00  0.00    -0.318 N 
HETATM    5  C   UNL     1      18.839  48.884  47.809  1.00  0.00     0.011 C 
HETATM    6  C   UNL     1      17.634  51.041  47.007  1.00  0.00     0.166 C 
HETATM    7  S   UNL     1      16.630  47.509  48.596  1.00  0.00    -0.086 SA
HETATM    8  C   UNL     1      18.459  47.655  48.621  1.00  0.00     0.135 C 
HETATM    9  C   UNL     1      16.968  50.819  45.688  1.00  0.00     0.069 C 
ENDROOT
BRANCH   5  10
HETATM   10  C   UNL     1      20.133  48.995  47.040  1.00  0.00     0.156 C 
BRANCH  10  11
HETATM   11  C   UNL     1      21.277  49.073  48.047  1.00  0.00     0.223 C 
HETATM   12  N   UNL     1      22.208  48.075  48.048  1.00  0.00    -0.359 N 
HETATM   13  H   UNL     1      22.066  47.266  47.446  1.00  0.00     0.162 HD
HETATM   14  O   UNL     1      21.348  50.011  48.842  1.00  0.00    -0.273 OA
BRANCH  12  15
HETATM   15  C   UNL     1      23.169  47.896  49.151  1.00  0.00     0.150 C 
BRANCH  15  16
HETATM   16  C   UNL     1      23.685  46.451  49.374  1.00  0.00     0.254 C 
BRANCH  16  17
HETATM   17  N   UNL     1      24.336  46.263  50.735  1.00  0.00    -0.070 N 
HETATM   18  H   UNL     1      23.633  46.562  51.434  1.00  0.00     0.279 HD
HETATM   19  C   UNL     1      24.647  44.819  51.065  1.00  0.00     0.235 C 
HETATM   20  C   UNL     1      25.087  44.726  52.522  1.00  0.00     0.028 C 
HETATM   21  C   UNL     1      26.279  45.631  52.812  1.00  0.00     0.003 C 
HETATM   22  C   UNL     1      26.007  47.066  52.374  1.00  0.00     0.028 C 
HETATM   23  C   UNL     1      25.552  47.140  50.923  1.00  0.00     0.235 C 
ENDBRANCH  16  17
ENDBRANCH  15  16
ENDBRANCH  12  15
ENDBRANCH  10  11
ENDBRANCH   5  10
BRANCH   6  24
HETATM   24  C   UNL     1      16.869  51.838  48.094  1.00  0.00    -0.024 C 
HETATM   25  C   UNL     1      17.373  52.273  49.344  1.00  0.00    -0.053 C 
HETATM   26  C   UNL     1      18.659  51.827  49.990  1.00  0.00     0.049 C 
HETATM   27  C   UNL     1      16.641  53.227  50.087  1.00  0.00     0.014 C 
HETATM   28  C   UNL     1      15.406  53.720  49.662  1.00  0.00    -0.061 C 
HETATM   29  C   UNL     1      14.679  54.754  50.471  1.00  0.00     0.048 C 
HETATM   30  C   UNL     1      14.840  53.182  48.514  1.00  0.00     0.007 C 
HETATM   31  C   UNL     1      15.551  52.251  47.754  1.00  0.00     0.011 C 
ENDBRANCH   6  24
BRANCH   9  32
HETATM   32  C   UNL     1      17.618  51.476  44.537  1.00  0.00     0.293 C 
HETATM   33  O   UNL     1      17.178  52.505  44.053  1.00  0.00    -0.259 OA
BRANCH  32  34
HETATM   34  O   UNL     1      18.592  50.685  44.053  1.00  0.00    -0.323 OA
HETATM   35  C   UNL     1      18.840  50.762  42.642  1.00  0.00     0.213 C 
ENDBRANCH  32  34
ENDBRANCH   9  32
BRANCH   1  36
HETATM   36  C   UNL     1      15.330  49.571  44.212  1.00  0.00     0.056 C 
HETATM   37  C   UNL     1      14.043  50.371  44.077  1.00  0.00     0.011 C 
ENDBRANCH   1  36
TORSDOF 9
ENDMDL
MODEL 8
REMARK VINA RESULT:      -7.3     18.894     20.896
REMARK  9 active torsions:
REMARK  status: ('A' for Active; 'I' for Inactive)
REMARK    1  A    between atoms: C_2  and  C_3 
REMARK    2  A    between atoms: C_7  and  C_8 
REMARK    3  A    between atoms: C_8  and  C_9 
REMARK       I    between atoms: C_9  and  N_10 
REMARK    4  A    between atoms: N_10  and  C_11 
REMARK    5  A    between atoms: C_11  and  C_12 
REMARK    6  A    between atoms: C_12  and  N_13 
REMARK    7  A    between atoms: C_21  and  C_22 
REMARK    8  A    between atoms: C_32  and  C_33 
REMARK    9  A    between atoms: C_33  and  O_34 
ROOT
HETATM    1  C   UNL     1      39.582  45.944  65.057  1.00  0.00     0.051 C 
HETATM    2  N   UNL     1      40.596  45.177  65.630  1.00  0.00    -0.228 NA
HETATM    3  C   UNL     1      40.211  44.270  66.466  1.00  0.00     0.170 C 
HETATM    4  N   UNL     1      38.713  43.963  66.720  1.00  0.00    -0.318 N 
HETATM    5  C   UNL     1      38.524  43.878  67.992  1.00  0.00     0.011 C 
HETATM    6  C   UNL     1      37.918  44.149  65.480  1.00  0.00     0.166 C 
HETATM    7  S   UNL     1      41.205  43.551  67.683  1.00  0.00    -0.086 SA
HETATM    8  C   UNL     1      39.742  43.420  68.782  1.00  0.00     0.135 C 
HETATM    9  C   UNL     1      38.302  45.505  64.984  1.00  0.00     0.069 C 
ENDROOT
BRANCH   5  10
HETATM   10  C   UNL     1      37.331  44.543  68.631  1.00  0.00     0.156 C 
BRANCH  10  11
HETATM   11  C   UNL     1      37.805  45.837  69.289  1.00  0.00     0.223 C 
HETATM   12  N   UNL     1      38.156  46.881  68.484  1.00  0.00    -0.359 N 
HETATM   13  H   UNL     1      38.181  46.743  67.476  1.00  0.00     0.162 HD
HETATM   14  O   UNL     1      37.876  45.925  70.514  1.00  0.00    -0.273 OA
BRANCH  12  15
HETATM   15  C   UNL     1      38.897  48.050  68.990  1.00  0.00     0.150 C 
BRANCH  15  16
HETATM   16  C   UNL     1      38.034  49.220  69.529  1.00  0.00     0.254 C 
BRANCH  16  17
HETATM   17  N   UNL     1      37.704  50.249  68.460  1.00  0.00    -0.070 N 
HETATM   18  H   UNL     1      36.682  50.184  68.302  1.00  0.00     0.279 HD
HETATM   19  C   UNL     1      37.956  51.677  68.893  1.00  0.00     0.235 C 
HETATM   20  C   UNL     1      37.390  52.623  67.840  1.00  0.00     0.028 C 
HETATM   21  C   UNL     1      37.977  52.349  66.460  1.00  0.00     0.003 C 
HETATM   22  C   UNL     1      37.824  50.884  66.071  1.00  0.00     0.028 C 
HETATM   23  C   UNL     1      38.378  49.952  67.141  1.00  0.00     0.235 C 
ENDBRANCH  16  17
ENDBRANCH  15  16
ENDBRANCH  12  15
ENDBRANCH  10  11
ENDBRANCH   5  10
BRANCH   6  24
HETATM   24  C   UNL     1      38.205  42.924  64.575  1.00  0.00    -0.024 C 
HETATM   25  C   UNL     1      38.730  42.941  63.260  1.00  0.00    -0.053 C 
HETATM   26  C   UNL     1      38.867  44.150  62.370  1.00  0.00     0.049 C 
HETATM   27  C   UNL     1      39.197  41.734  62.689  1.00  0.00     0.014 C 
HETATM   28  C   UNL     1      39.109  40.510  63.352  1.00  0.00    -0.061 C 
HETATM   29  C   UNL     1      39.644  39.259  62.718  1.00  0.00     0.048 C 
HETATM   30  C   UNL     1      38.458  40.467  64.577  1.00  0.00     0.007 C 
HETATM   31  C   UNL     1      38.003  41.647  65.170  1.00  0.00     0.011 C 
ENDBRANCH   6  24
BRANCH   9  32
HETATM   32  C   UNL     1      37.175  46.425  64.735  1.00  0.00     0.293 C 
HETATM   33  O   UNL     1      36.657  46.523  63.635  1.00  0.00    -0.259 OA
BRANCH  32  34
HETATM   34  O   UNL     1      36.975  47.201  65.815  1.00  0.00    -0.323 OA
HETATM   35  C   UNL     1      35.626  47.303  66.292  1.00  0.00     0.213 C 
ENDBRANCH  32  34
ENDBRANCH   9  32
BRANCH   1  36
HETATM   36  C   UNL     1      40.031  47.310  64.576  1.00  0.00     0.056 C 
HETATM   37  C   UNL     1      41.119  47.898  65.464  1.00  0.00     0.011 C 
ENDBRANCH   1  36
TORSDOF 9
ENDMDL
MODEL 9
REMARK VINA RESULT:      -7.2     18.537     21.285
REMARK  9 active torsions:
REMARK  status: ('A' for Active; 'I' for Inactive)
REMARK    1  A    between atoms: C_2  and  C_3 
REMARK    2  A    between atoms: C_7  and  C_8 
REMARK    3  A    between atoms: C_8  and  C_9 
REMARK       I    between atoms: C_9  and  N_10 
REMARK    4  A    between atoms: N_10  and  C_11 
REMARK    5  A    between atoms: C_11  and  C_12 
REMARK    6  A    between atoms: C_12  and  N_13 
REMARK    7  A    between atoms: C_21  and  C_22 
REMARK    8  A    between atoms: C_32  and  C_33 
REMARK    9  A    between atoms: C_33  and  O_34 
ROOT
HETATM    1  C   UNL     1      38.887  44.777  65.016  1.00  0.00     0.051 C 
HETATM    2  N   UNL     1      40.131  45.000  64.427  1.00  0.00    -0.228 NA
HETATM    3  C   UNL     1      41.121  44.348  64.940  1.00  0.00     0.170 C 
HETATM    4  N   UNL     1      40.924  43.286  66.052  1.00  0.00    -0.318 N 
HETATM    5  C   UNL     1      41.807  43.488  66.969  1.00  0.00     0.011 C 
HETATM    6  C   UNL     1      39.635  42.570  65.876  1.00  0.00     0.166 C 
HETATM    7  S   UNL     1      42.786  44.786  64.791  1.00  0.00    -0.086 SA
HETATM    8  C   UNL     1      43.095  44.127  66.475  1.00  0.00     0.135 C 
HETATM    9  C   UNL     1      38.617  43.653  65.724  1.00  0.00     0.069 C 
ENDROOT
BRANCH   5  10
HETATM   10  C   UNL     1      41.415  43.442  68.426  1.00  0.00     0.156 C 
BRANCH  10  11
HETATM   11  C   UNL     1      41.263  44.878  68.921  1.00  0.00     0.223 C 
HETATM   12  N   UNL     1      40.117  45.551  68.613  1.00  0.00    -0.359 N 
HETATM   13  H   UNL     1      39.439  45.116  67.990  1.00  0.00     0.162 HD
HETATM   14  O   UNL     1      42.160  45.412  69.573  1.00  0.00    -0.273 OA
BRANCH  12  15
HETATM   15  C   UNL     1      39.992  47.010  68.780  1.00  0.00     0.150 C 
BRANCH  15  16
HETATM   16  C   UNL     1      40.864  47.879  67.837  1.00  0.00     0.254 C 
BRANCH  16  17
HETATM   17  N   UNL     1      40.036  48.737  66.894  1.00  0.00    -0.070 N 
HETATM   18  H   UNL     1      40.372  49.709  67.021  1.00  0.00     0.279 HD
HETATM   19  C   UNL     1      40.258  48.419  65.432  1.00  0.00     0.235 C 
HETATM   20  C   UNL     1      39.556  49.473  64.583  1.00  0.00     0.028 C 
HETATM   21  C   UNL     1      38.070  49.568  64.912  1.00  0.00     0.003 C 
HETATM   22  C   UNL     1      37.844  49.775  66.405  1.00  0.00     0.028 C 
HETATM   23  C   UNL     1      38.565  48.725  67.240  1.00  0.00     0.235 C 
ENDBRANCH  16  17
ENDBRANCH  15  16
ENDBRANCH  12  15
ENDBRANCH  10  11
ENDBRANCH   5  10
BRANCH   6  24
HETATM   24  C   UNL     1      39.831  41.574  64.705  1.00  0.00    -0.024 C 
HETATM   25  C   UNL     1      40.566  40.364  64.730  1.00  0.00    -0.053 C 
HETATM   26  C   UNL     1      41.525  39.926  65.808  1.00  0.00     0.049 C 
HETATM   27  C   UNL     1      40.406  39.439  63.673  1.00  0.00     0.014 C 
HETATM   28  C   UNL     1      39.592  39.697  62.570  1.00  0.00    -0.061 C 
HETATM   29  C   UNL     1      39.431  38.673  61.484  1.00  0.00     0.048 C 
HETATM   30  C   UNL     1      38.991  40.944  62.470  1.00  0.00     0.007 C 
HETATM   31  C   UNL     1      39.119  41.869  63.509  1.00  0.00     0.011 C 
ENDBRANCH   6  24
BRANCH   9  32
HETATM   32  C   UNL     1      37.470  43.571  66.648  1.00  0.00     0.293 C 
HETATM   33  O   UNL     1      37.559  43.914  67.815  1.00  0.00    -0.259 OA
BRANCH  32  34
HETATM   34  O   UNL     1      36.452  42.924  66.052  1.00  0.00    -0.323 OA
HETATM   35  C   UNL     1      35.178  43.586  66.058  1.00  0.00     0.213 C 
ENDBRANCH  32  34
ENDBRANCH   9  32
BRANCH   1  36
HETATM   36  C   UNL     1      37.898  45.913  64.831  1.00  0.00     0.056 C 
HETATM   37  C   UNL     1      37.008  45.702  63.615  1.00  0.00     0.011 C 
ENDBRANCH   1  36
TORSDOF 9
ENDMDL
MODEL 10
REMARK VINA RESULT:      -7.2      8.311     11.915
REMARK  9 active torsions:
REMARK  status: ('A' for Active; 'I' for Inactive)
REMARK    1  A    between atoms: C_2  and  C_3 
REMARK    2  A    between atoms: C_7  and  C_8 
REMARK    3  A    between atoms: C_8  and  C_9 
REMARK       I    between atoms: C_9  and  N_10 
REMARK    4  A    between atoms: N_10  and  C_11 
REMARK    5  A    between atoms: C_11  and  C_12 
REMARK    6  A    between atoms: C_12  and  N_13 
REMARK    7  A    between atoms: C_21  and  C_22 
REMARK    8  A    between atoms: C_32  and  C_33 
REMARK    9  A    between atoms: C_33  and  O_34 
ROOT
HETATM    1  C   UNL     1      17.268  48.258  45.284  1.00  0.00     0.051 C 
HETATM    2  N   UNL     1      17.881  49.075  44.335  1.00  0.00    -0.228 NA
HETATM    3  C   UNL     1      17.763  50.348  44.527  1.00  0.00     0.170 C 
HETATM    4  N   UNL     1      17.098  50.932  45.800  1.00  0.00    -0.318 N 
HETATM    5  C   UNL     1      16.284  51.865  45.441  1.00  0.00     0.011 C 
HETATM    6  C   UNL     1      17.366  50.071  46.979  1.00  0.00     0.166 C 
HETATM    7  S   UNL     1      17.942  51.559  43.309  1.00  0.00    -0.086 SA
HETATM    8  C   UNL     1      16.663  52.572  44.149  1.00  0.00     0.135 C 
HETATM    9  C   UNL     1      16.990  48.694  46.536  1.00  0.00     0.069 C 
ENDROOT
BRANCH   5  10
HETATM   10  C   UNL     1      14.908  51.951  46.054  1.00  0.00     0.156 C 
BRANCH  10  11
HETATM   11  C   UNL     1      14.865  53.186  46.951  1.00  0.00     0.223 C 
HETATM   12  N   UNL     1      15.179  53.038  48.271  1.00  0.00    -0.359 N 
HETATM   13  H   UNL     1      15.342  52.103  48.640  1.00  0.00     0.162 HD
HETATM   14  O   UNL     1      14.547  54.281  46.490  1.00  0.00    -0.273 OA
BRANCH  12  15
HETATM   15  C   UNL     1      14.888  54.082  49.270  1.00  0.00     0.150 C 
BRANCH  15  16
HETATM   16  C   UNL     1      14.646  53.586  50.719  1.00  0.00     0.254 C 
BRANCH  16  17
HETATM   17  N   UNL     1      14.097  54.673  51.629  1.00  0.00    -0.070 N 
HETATM   18  H   UNL     1      13.874  54.210  52.529  1.00  0.00     0.279 HD
HETATM   19  C   UNL     1      15.106  55.749  51.967  1.00  0.00     0.235 C 
HETATM   20  C   UNL     1      14.524  56.654  53.046  1.00  0.00     0.028 C 
HETATM   21  C   UNL     1      13.190  57.258  52.621  1.00  0.00     0.003 C 
HETATM   22  C   UNL     1      12.211  56.180  52.172  1.00  0.00     0.028 C 
HETATM   23  C   UNL     1      12.812  55.273  51.107  1.00  0.00     0.235 C 
ENDBRANCH  16  17
ENDBRANCH  15  16
ENDBRANCH  12  15
ENDBRANCH  10  11
ENDBRANCH   5  10
BRANCH   6  24
HETATM   24  C   UNL     1      18.833  50.334  47.403  1.00  0.00    -0.024 C 
HETATM   25  C   UNL     1      19.342  51.493  48.037  1.00  0.00    -0.053 C 
HETATM   26  C   UNL     1      18.628  52.812  48.189  1.00  0.00     0.049 C 
HETATM   27  C   UNL     1      20.634  51.454  48.610  1.00  0.00     0.014 C 
HETATM   28  C   UNL     1      21.455  50.329  48.527  1.00  0.00    -0.061 C 
HETATM   29  C   UNL     1      22.809  50.323  49.176  1.00  0.00     0.048 C 
HETATM   30  C   UNL     1      21.019  49.246  47.776  1.00  0.00     0.007 C 
HETATM   31  C   UNL     1      19.740  49.254  47.214  1.00  0.00     0.011 C 
ENDBRANCH   6  24
BRANCH   9  32
HETATM   32  C   UNL     1      16.028  47.994  47.410  1.00  0.00     0.293 C 
HETATM   33  O   UNL     1      14.824  48.073  47.232  1.00  0.00    -0.259 OA
BRANCH  32  34
HETATM   34  O   UNL     1      16.675  47.457  48.459  1.00  0.00    -0.323 OA
HETATM   35  C   UNL     1      17.424  46.258  48.207  1.00  0.00     0.213 C 
ENDBRANCH  32  34
ENDBRANCH   9  32
BRANCH   1  36
HETATM   36  C   UNL     1      16.907  46.875  44.775  1.00  0.00     0.056 C 
HETATM   37  C   UNL     1      15.741  46.914  43.799  1.00  0.00     0.011 C 
ENDBRANCH   1  36
TORSDOF 9
ENDMDL
