MODEL 1
REMARK VINA RESULT:     -10.6      0.000      0.000
REMARK  5 active torsions:
REMARK  status: ('A' for Active; 'I' for Inactive)
REMARK    1  A    between atoms: C_4  and  O_5 
REMARK    2  A    between atoms: O_5  and  C_6 
REMARK    3  A    between atoms: C_6  and  C_7 
REMARK       I    between atoms: C_7  and  N_8 
REMARK    4  A    between atoms: N_8  and  C_9 
REMARK    5  A    between atoms: C_11  and  C_12 
ROOT
HETATM    1  C   UNL     1      25.598  47.890  49.750  1.00  0.00     0.035 A 
HETATM    2  C   UNL     1      24.294  48.298  49.451  1.00  0.00     0.045 A 
HETATM    3  C   UNL     1      24.052  49.390  48.598  1.00  0.00     0.019 A 
HETATM    4  C   UNL     1      25.146  50.091  48.074  1.00  0.00     0.016 A 
HETATM    5  C   UNL     1      26.451  49.696  48.370  1.00  0.00     0.003 A 
HETATM    6  C   UNL     1      26.674  48.593  49.194  1.00  0.00     0.029 A 
ENDROOT
BRANCH   1   7
HETATM    7  N   UNL     1      25.903  46.783  50.566  1.00  0.00    -0.325 N 
HETATM    8  C   UNL     1      25.849  46.711  51.948  1.00  0.00     0.251 C 
HETATM    9  O   UNL     1      25.601  47.638  52.714  1.00  0.00    -0.270 OA
HETATM   10  H   UNL     1      26.175  45.928  50.090  1.00  0.00     0.169 HD
BRANCH   8  11
HETATM   11  C   UNL     1      26.185  45.315  52.498  1.00  0.00     0.217 C 
HETATM   12  C   UNL     1      25.081  44.333  52.118  1.00  0.00     0.050 C 
BRANCH  11  13
HETATM   13  O   UNL     1      26.274  45.321  53.929  1.00  0.00    -0.337 OA
BRANCH  13  14
HETATM   14  C   UNL     1      27.525  45.022  54.402  1.00  0.00     0.070 A 
HETATM   15  C   UNL     1      28.074  45.603  55.548  1.00  0.00     0.043 A 
HETATM   16  C   UNL     1      29.357  45.241  55.976  1.00  0.00    -0.059 A 
HETATM   17  C   UNL     1      29.957  45.851  57.209  1.00  0.00     0.048 C 
HETATM   18  C   UNL     1      30.074  44.278  55.252  1.00  0.00     0.013 A 
HETATM   19  C   UNL     1      29.522  43.678  54.112  1.00  0.00    -0.059 A 
HETATM   20  C   UNL     1      28.234  44.045  53.705  1.00  0.00     0.043 A 
HETATM   21  C   UNL     1      30.297  42.632  53.367  1.00  0.00     0.048 C 
ENDBRANCH  13  14
ENDBRANCH  11  13
ENDBRANCH   8  11
ENDBRANCH   1   7
BRANCH   3  22
HETATM   22  C   UNL     1      22.696  49.789  48.224  1.00  0.00     0.181 A 
HETATM   23  O   UNL     1      22.212  50.937  48.802  1.00  0.00    -0.289 OA
HETATM   24  C   UNL     1      20.937  51.035  48.330  1.00  0.00     0.106 A 
HETATM   25  C   UNL     1      20.712  49.955  47.494  1.00  0.00     0.093 A 
HETATM   26  C   UNL     1      20.005  52.021  48.623  1.00  0.00     0.040 A 
HETATM   27  N   UNL     1      21.837  49.170  47.431  1.00  0.00    -0.221 NA
HETATM   28  C   UNL     1      19.458  49.824  46.882  1.00  0.00     0.034 A 
HETATM   29  C   UNL     1      18.485  50.799  47.153  1.00  0.00     0.002 A 
HETATM   30  C   UNL     1      18.756  51.876  48.007  1.00  0.00     0.003 A 
ENDBRANCH   3  22
TORSDOF 5
ENDMDL
MODEL 2
REMARK VINA RESULT:     -10.5      0.286      1.623
REMARK  5 active torsions:
REMARK  status: ('A' for Active; 'I' for Inactive)
REMARK    1  A    between atoms: C_4  and  O_5 
REMARK    2  A    between atoms: O_5  and  C_6 
REMARK    3  A    between atoms: C_6  and  C_7 
REMARK       I    between atoms: C_7  and  N_8 
REMARK    4  A    between atoms: N_8  and  C_9 
REMARK    5  A    between atoms: C_11  and  C_12 
ROOT
HETATM    1  C   UNL     1      25.730  47.952  49.813  1.00  0.00     0.035 A 
HETATM    2  C   UNL     1      24.437  48.410  49.542  1.00  0.00     0.045 A 
HETATM    3  C   UNL     1      24.215  49.481  48.659  1.00  0.00     0.019 A 
HETATM    4  C   UNL     1      25.321  50.111  48.073  1.00  0.00     0.016 A 
HETATM    5  C   UNL     1      26.616  49.665  48.339  1.00  0.00     0.003 A 
HETATM    6  C   UNL     1      26.817  48.582  49.196  1.00  0.00     0.029 A 
ENDROOT
BRANCH   1   7
HETATM    7  N   UNL     1      26.013  46.861  50.658  1.00  0.00    -0.325 N 
HETATM    8  C   UNL     1      25.857  46.794  52.033  1.00  0.00     0.251 C 
HETATM    9  O   UNL     1      25.518  47.716  52.770  1.00  0.00    -0.270 OA
HETATM   10  H   UNL     1      26.351  46.014  50.211  1.00  0.00     0.169 HD
BRANCH   8  11
HETATM   11  C   UNL     1      26.201  45.415  52.618  1.00  0.00     0.217 C 
HETATM   12  C   UNL     1      25.038  44.454  52.387  1.00  0.00     0.050 C 
BRANCH  11  13
HETATM   13  O   UNL     1      26.419  45.483  54.033  1.00  0.00    -0.337 OA
BRANCH  13  14
HETATM   14  C   UNL     1      27.648  45.015  54.422  1.00  0.00     0.070 A 
HETATM   15  C   UNL     1      28.363  44.049  53.711  1.00  0.00     0.043 A 
HETATM   16  C   UNL     1      29.618  43.625  54.165  1.00  0.00    -0.059 A 
HETATM   17  C   UNL     1      30.402  42.593  53.409  1.00  0.00     0.048 C 
HETATM   18  C   UNL     1      30.153  44.194  55.329  1.00  0.00     0.013 A 
HETATM   19  C   UNL     1      29.448  45.177  56.038  1.00  0.00    -0.059 A 
HETATM   20  C   UNL     1      28.200  45.596  55.562  1.00  0.00     0.043 A 
HETATM   21  C   UNL     1      30.050  45.790  57.268  1.00  0.00     0.048 C 
ENDBRANCH  13  14
ENDBRANCH  11  13
ENDBRANCH   8  11
ENDBRANCH   1   7
BRANCH   3  22
HETATM   22  C   UNL     1      22.866  49.930  48.316  1.00  0.00     0.181 A 
HETATM   23  O   UNL     1      22.261  50.787  49.202  1.00  0.00    -0.289 OA
HETATM   24  C   UNL     1      21.021  50.990  48.673  1.00  0.00     0.106 A 
HETATM   25  C   UNL     1      20.937  50.259  47.501  1.00  0.00     0.093 A 
HETATM   26  C   UNL     1      20.002  51.776  49.195  1.00  0.00     0.040 A 
HETATM   27  N   UNL     1      22.115  49.590  47.281  1.00  0.00    -0.221 NA
HETATM   28  C   UNL     1      19.745  50.298  46.765  1.00  0.00     0.034 A 
HETATM   29  C   UNL     1      18.688  51.079  47.258  1.00  0.00     0.002 A 
HETATM   30  C   UNL     1      18.817  51.803  48.450  1.00  0.00     0.003 A 
ENDBRANCH   3  22
TORSDOF 5
ENDMDL
MODEL 3
REMARK VINA RESULT:     -10.5      1.605      2.232
REMARK  5 active torsions:
REMARK  status: ('A' for Active; 'I' for Inactive)
REMARK    1  A    between atoms: C_4  and  O_5 
REMARK    2  A    between atoms: O_5  and  C_6 
REMARK    3  A    between atoms: C_6  and  C_7 
REMARK       I    between atoms: C_7  and  N_8 
REMARK    4  A    between atoms: N_8  and  C_9 
REMARK    5  A    between atoms: C_11  and  C_12 
ROOT
HETATM    1  C   UNL     1      26.500  47.682  49.641  1.00  0.00     0.035 A 
HETATM    2  C   UNL     1      25.185  48.143  49.521  1.00  0.00     0.045 A 
HETATM    3  C   UNL     1      24.896  49.356  48.873  1.00  0.00     0.019 A 
HETATM    4  C   UNL     1      25.957  50.122  48.373  1.00  0.00     0.016 A 
HETATM    5  C   UNL     1      27.273  49.676  48.491  1.00  0.00     0.003 A 
HETATM    6  C   UNL     1      27.540  48.455  49.112  1.00  0.00     0.029 A 
ENDROOT
BRANCH   1   7
HETATM    7  N   UNL     1      26.848  46.458  50.245  1.00  0.00    -0.325 N 
HETATM    8  C   UNL     1      26.387  45.194  49.920  1.00  0.00     0.251 C 
HETATM    9  O   UNL     1      25.521  44.928  49.091  1.00  0.00    -0.270 OA
HETATM   10  H   UNL     1      27.533  46.499  50.994  1.00  0.00     0.169 HD
BRANCH   8  11
HETATM   11  C   UNL     1      27.040  44.076  50.750  1.00  0.00     0.217 C 
HETATM   12  C   UNL     1      26.846  42.735  50.047  1.00  0.00     0.050 C 
BRANCH  11  13
HETATM   13  O   UNL     1      26.441  43.965  52.047  1.00  0.00    -0.337 OA
BRANCH  13  14
HETATM   14  C   UNL     1      27.277  44.335  53.069  1.00  0.00     0.070 A 
HETATM   15  C   UNL     1      28.381  43.581  53.472  1.00  0.00     0.043 A 
HETATM   16  C   UNL     1      29.194  44.028  54.521  1.00  0.00    -0.059 A 
HETATM   17  C   UNL     1      30.388  43.231  54.961  1.00  0.00     0.048 C 
HETATM   18  C   UNL     1      28.898  45.247  55.146  1.00  0.00     0.013 A 
HETATM   19  C   UNL     1      27.802  46.018  54.734  1.00  0.00    -0.059 A 
HETATM   20  C   UNL     1      27.006  45.561  53.678  1.00  0.00     0.043 A 
HETATM   21  C   UNL     1      27.517  47.331  55.401  1.00  0.00     0.048 C 
ENDBRANCH  13  14
ENDBRANCH  11  13
ENDBRANCH   8  11
ENDBRANCH   1   7
BRANCH   3  22
HETATM   22  C   UNL     1      23.521  49.819  48.683  1.00  0.00     0.181 A 
HETATM   23  O   UNL     1      22.887  50.329  49.788  1.00  0.00    -0.289 OA
HETATM   24  C   UNL     1      21.632  50.622  49.345  1.00  0.00     0.106 A 
HETATM   25  C   UNL     1      21.567  50.285  48.005  1.00  0.00     0.093 A 
HETATM   26  C   UNL     1      20.582  51.156  50.082  1.00  0.00     0.040 A 
HETATM   27  N   UNL     1      22.774  49.777  47.592  1.00  0.00    -0.221 NA
HETATM   28  C   UNL     1      20.365  50.487  47.314  1.00  0.00     0.034 A 
HETATM   29  C   UNL     1      19.278  51.023  48.022  1.00  0.00     0.002 A 
HETATM   30  C   UNL     1      19.387  51.350  49.380  1.00  0.00     0.003 A 
ENDBRANCH   3  22
TORSDOF 5
ENDMDL
MODEL 4
REMARK VINA RESULT:     -10.3      1.653     10.372
REMARK  5 active torsions:
REMARK  status: ('A' for Active; 'I' for Inactive)
REMARK    1  A    between atoms: C_4  and  O_5 
REMARK    2  A    between atoms: O_5  and  C_6 
REMARK    3  A    between atoms: C_6  and  C_7 
REMARK       I    between atoms: C_7  and  N_8 
REMARK    4  A    between atoms: N_8  and  C_9 
REMARK    5  A    between atoms: C_11  and  C_12 
ROOT
HETATM    1  C   UNL     1      24.852  45.983  50.987  1.00  0.00     0.035 A 
HETATM    2  C   UNL     1      25.860  46.060  51.953  1.00  0.00     0.045 A 
HETATM    3  C   UNL     1      26.306  44.913  52.633  1.00  0.00     0.019 A 
HETATM    4  C   UNL     1      25.697  43.683  52.349  1.00  0.00     0.016 A 
HETATM    5  C   UNL     1      24.687  43.594  51.390  1.00  0.00     0.003 A 
HETATM    6  C   UNL     1      24.277  44.738  50.705  1.00  0.00     0.029 A 
ENDROOT
BRANCH   1   7
HETATM    7  N   UNL     1      24.391  47.089  50.248  1.00  0.00    -0.325 N 
HETATM    8  C   UNL     1      25.148  48.011  49.544  1.00  0.00     0.251 C 
HETATM    9  O   UNL     1      26.374  48.069  49.512  1.00  0.00    -0.270 OA
HETATM   10  H   UNL     1      23.385  47.220  50.204  1.00  0.00     0.169 HD
BRANCH   8  11
HETATM   11  C   UNL     1      24.300  49.051  48.794  1.00  0.00     0.217 C 
HETATM   12  C   UNL     1      25.211  50.108  48.177  1.00  0.00     0.050 C 
BRANCH  11  13
HETATM   13  O   UNL     1      23.398  49.730  49.677  1.00  0.00    -0.337 OA
BRANCH  13  14
HETATM   14  C   UNL     1      22.094  49.706  49.254  1.00  0.00     0.070 A 
HETATM   15  C   UNL     1      21.382  48.528  49.022  1.00  0.00     0.043 A 
HETATM   16  C   UNL     1      20.048  48.583  48.599  1.00  0.00    -0.059 A 
HETATM   17  C   UNL     1      19.267  47.325  48.351  1.00  0.00     0.048 C 
HETATM   18  C   UNL     1      19.434  49.831  48.430  1.00  0.00     0.013 A 
HETATM   19  C   UNL     1      20.138  51.018  48.679  1.00  0.00    -0.059 A 
HETATM   20  C   UNL     1      21.467  50.943  49.111  1.00  0.00     0.043 A 
HETATM   21  C   UNL     1      19.454  52.343  48.515  1.00  0.00     0.048 C 
ENDBRANCH  13  14
ENDBRANCH  11  13
ENDBRANCH   8  11
ENDBRANCH   1   7
BRANCH   3  22
HETATM   22  C   UNL     1      27.402  44.967  53.599  1.00  0.00     0.181 A 
HETATM   23  O   UNL     1      28.298  43.927  53.570  1.00  0.00    -0.289 OA
HETATM   24  C   UNL     1      29.159  44.201  54.590  1.00  0.00     0.106 A 
HETATM   25  C   UNL     1      28.752  45.385  55.180  1.00  0.00     0.093 A 
HETATM   26  C   UNL     1      30.252  43.446  54.995  1.00  0.00     0.040 A 
HETATM   27  N   UNL     1      27.635  45.866  54.542  1.00  0.00    -0.221 NA
HETATM   28  C   UNL     1      29.480  45.883  56.269  1.00  0.00     0.034 A 
HETATM   29  C   UNL     1      30.591  45.148  56.713  1.00  0.00     0.002 A 
HETATM   30  C   UNL     1      30.968  43.954  56.086  1.00  0.00     0.003 A 
ENDBRANCH   3  22
TORSDOF 5
ENDMDL
MODEL 5
REMARK VINA RESULT:     -10.3      1.531     10.334
REMARK  5 active torsions:
REMARK  status: ('A' for Active; 'I' for Inactive)
REMARK    1  A    between atoms: C_4  and  O_5 
REMARK    2  A    between atoms: O_5  and  C_6 
REMARK    3  A    between atoms: C_6  and  C_7 
REMARK       I    between atoms: C_7  and  N_8 
REMARK    4  A    between atoms: N_8  and  C_9 
REMARK    5  A    between atoms: C_11  and  C_12 
ROOT
HETATM    1  C   UNL     1      24.898  45.923  50.836  1.00  0.00     0.035 A 
HETATM    2  C   UNL     1      25.901  45.996  51.808  1.00  0.00     0.045 A 
HETATM    3  C   UNL     1      26.316  44.852  52.512  1.00  0.00     0.019 A 
HETATM    4  C   UNL     1      25.682  43.631  52.246  1.00  0.00     0.016 A 
HETATM    5  C   UNL     1      24.677  43.546  51.282  1.00  0.00     0.003 A 
HETATM    6  C   UNL     1      24.297  44.686  50.573  1.00  0.00     0.029 A 
ENDROOT
BRANCH   1   7
HETATM    7  N   UNL     1      24.467  47.025  50.073  1.00  0.00    -0.325 N 
HETATM    8  C   UNL     1      25.236  48.066  49.581  1.00  0.00     0.251 C 
HETATM    9  O   UNL     1      26.431  48.250  49.798  1.00  0.00    -0.270 OA
HETATM   10  H   UNL     1      23.480  47.056  49.836  1.00  0.00     0.169 HD
BRANCH   8  11
HETATM   11  C   UNL     1      24.437  49.064  48.727  1.00  0.00     0.217 C 
HETATM   12  C   UNL     1      25.389  50.073  48.090  1.00  0.00     0.050 C 
BRANCH  11  13
HETATM   13  O   UNL     1      23.502  49.805  49.521  1.00  0.00    -0.337 OA
BRANCH  13  14
HETATM   14  C   UNL     1      22.264  49.921  48.944  1.00  0.00     0.070 A 
HETATM   15  C   UNL     1      21.495  51.086  49.000  1.00  0.00     0.043 A 
HETATM   16  C   UNL     1      20.241  51.133  48.379  1.00  0.00    -0.059 A 
HETATM   17  C   UNL     1      19.406  52.379  48.426  1.00  0.00     0.048 C 
HETATM   18  C   UNL     1      19.777  50.006  47.686  1.00  0.00     0.013 A 
HETATM   19  C   UNL     1      20.552  48.841  47.609  1.00  0.00    -0.059 A 
HETATM   20  C   UNL     1      21.807  48.815  48.228  1.00  0.00     0.043 A 
HETATM   21  C   UNL     1      20.047  47.655  46.842  1.00  0.00     0.048 C 
ENDBRANCH  13  14
ENDBRANCH  11  13
ENDBRANCH   8  11
ENDBRANCH   1   7
BRANCH   3  22
HETATM   22  C   UNL     1      27.407  44.899  53.485  1.00  0.00     0.181 A 
HETATM   23  O   UNL     1      28.299  43.856  53.459  1.00  0.00    -0.289 OA
HETATM   24  C   UNL     1      29.155  44.125  54.485  1.00  0.00     0.106 A 
HETATM   25  C   UNL     1      28.749  45.309  55.075  1.00  0.00     0.093 A 
HETATM   26  C   UNL     1      30.242  43.364  54.895  1.00  0.00     0.040 A 
HETATM   27  N   UNL     1      27.638  45.795  54.431  1.00  0.00    -0.221 NA
HETATM   28  C   UNL     1      29.472  45.801  56.169  1.00  0.00     0.034 A 
HETATM   29  C   UNL     1      30.577  45.062  56.618  1.00  0.00     0.002 A 
HETATM   30  C   UNL     1      30.953  43.867  55.991  1.00  0.00     0.003 A 
ENDBRANCH   3  22
TORSDOF 5
ENDMDL
MODEL 6
REMARK VINA RESULT:      -9.6      2.231      3.102
REMARK  5 active torsions:
REMARK  status: ('A' for Active; 'I' for Inactive)
REMARK    1  A    between atoms: C_4  and  O_5 
REMARK    2  A    between atoms: O_5  and  C_6 
REMARK    3  A    between atoms: C_6  and  C_7 
REMARK       I    between atoms: C_7  and  N_8 
REMARK    4  A    between atoms: N_8  and  C_9 
REMARK    5  A    between atoms: C_11  and  C_12 
ROOT
HETATM    1  C   UNL     1      23.694  45.707  49.011  1.00  0.00     0.035 A 
HETATM    2  C   UNL     1      23.050  46.940  49.151  1.00  0.00     0.045 A 
HETATM    3  C   UNL     1      21.855  47.218  48.464  1.00  0.00     0.019 A 
HETATM    4  C   UNL     1      21.331  46.245  47.603  1.00  0.00     0.016 A 
HETATM    5  C   UNL     1      21.968  45.013  47.452  1.00  0.00     0.003 A 
HETATM    6  C   UNL     1      23.137  44.743  48.164  1.00  0.00     0.029 A 
ENDROOT
BRANCH   1   7
HETATM    7  N   UNL     1      24.872  45.357  49.701  1.00  0.00    -0.325 N 
HETATM    8  C   UNL     1      24.977  44.666  50.897  1.00  0.00     0.251 C 
HETATM    9  O   UNL     1      24.045  44.306  51.611  1.00  0.00    -0.270 OA
HETATM   10  H   UNL     1      25.750  45.622  49.266  1.00  0.00     0.169 HD
BRANCH   8  11
HETATM   11  C   UNL     1      26.431  44.400  51.321  1.00  0.00     0.217 C 
HETATM   12  C   UNL     1      27.140  43.588  50.241  1.00  0.00     0.050 C 
BRANCH  11  13
HETATM   13  O   UNL     1      26.495  43.641  52.534  1.00  0.00    -0.337 OA
BRANCH  13  14
HETATM   14  C   UNL     1      27.391  44.137  53.445  1.00  0.00     0.070 A 
HETATM   15  C   UNL     1      28.505  43.425  53.895  1.00  0.00     0.043 A 
HETATM   16  C   UNL     1      29.383  44.001  54.822  1.00  0.00    -0.059 A 
HETATM   17  C   UNL     1      30.588  43.251  55.309  1.00  0.00     0.048 C 
HETATM   18  C   UNL     1      29.140  45.305  55.276  1.00  0.00     0.013 A 
HETATM   19  C   UNL     1      28.034  46.032  54.815  1.00  0.00    -0.059 A 
HETATM   20  C   UNL     1      27.173  45.444  53.881  1.00  0.00     0.043 A 
HETATM   21  C   UNL     1      27.806  47.434  55.297  1.00  0.00     0.048 C 
ENDBRANCH  13  14
ENDBRANCH  11  13
ENDBRANCH   8  11
ENDBRANCH   1   7
BRANCH   3  22
HETATM   22  C   UNL     1      21.136  48.478  48.650  1.00  0.00     0.181 A 
HETATM   23  O   UNL     1      20.065  48.453  49.509  1.00  0.00    -0.289 OA
HETATM   24  C   UNL     1      19.559  49.717  49.447  1.00  0.00     0.106 A 
HETATM   25  C   UNL     1      20.342  50.443  48.567  1.00  0.00     0.093 A 
HETATM   26  C   UNL     1      18.454  50.215  50.125  1.00  0.00     0.040 A 
HETATM   27  N   UNL     1      21.344  49.647  48.067  1.00  0.00    -0.221 NA
HETATM   28  C   UNL     1      20.020  51.785  48.324  1.00  0.00     0.034 A 
HETATM   29  C   UNL     1      18.909  52.328  48.988  1.00  0.00     0.002 A 
HETATM   30  C   UNL     1      18.143  51.556  49.871  1.00  0.00     0.003 A 
ENDBRANCH   3  22
TORSDOF 5
ENDMDL
MODEL 7
REMARK VINA RESULT:      -9.5      1.498      2.472
REMARK  5 active torsions:
REMARK  status: ('A' for Active; 'I' for Inactive)
REMARK    1  A    between atoms: C_4  and  O_5 
REMARK    2  A    between atoms: O_5  and  C_6 
REMARK    3  A    between atoms: C_6  and  C_7 
REMARK       I    between atoms: C_7  and  N_8 
REMARK    4  A    between atoms: N_8  and  C_9 
REMARK    5  A    between atoms: C_11  and  C_12 
ROOT
HETATM    1  C   UNL     1      25.159  47.953  49.717  1.00  0.00     0.035 A 
HETATM    2  C   UNL     1      23.861  48.381  49.419  1.00  0.00     0.045 A 
HETATM    3  C   UNL     1      23.634  49.471  48.562  1.00  0.00     0.019 A 
HETATM    4  C   UNL     1      24.739  50.151  48.030  1.00  0.00     0.016 A 
HETATM    5  C   UNL     1      26.038  49.736  48.324  1.00  0.00     0.003 A 
HETATM    6  C   UNL     1      26.244  48.634  49.155  1.00  0.00     0.029 A 
ENDROOT
BRANCH   1   7
HETATM    7  N   UNL     1      25.448  46.845  50.538  1.00  0.00    -0.325 N 
HETATM    8  C   UNL     1      25.440  45.506  50.185  1.00  0.00     0.251 C 
HETATM    9  O   UNL     1      25.095  45.044  49.101  1.00  0.00    -0.270 OA
HETATM   10  H   UNL     1      25.714  47.046  51.497  1.00  0.00     0.169 HD
BRANCH   8  11
HETATM   11  C   UNL     1      25.877  44.572  51.326  1.00  0.00     0.217 C 
HETATM   12  C   UNL     1      24.900  44.696  52.493  1.00  0.00     0.050 C 
BRANCH  11  13
HETATM   13  O   UNL     1      27.176  44.919  51.821  1.00  0.00    -0.337 OA
BRANCH  13  14
HETATM   14  C   UNL     1      27.905  43.840  52.250  1.00  0.00     0.070 A 
HETATM   15  C   UNL     1      27.887  42.597  51.613  1.00  0.00     0.043 A 
HETATM   16  C   UNL     1      28.667  41.542  52.104  1.00  0.00    -0.059 A 
HETATM   17  C   UNL     1      28.663  40.203  51.428  1.00  0.00     0.048 C 
HETATM   18  C   UNL     1      29.477  41.755  53.228  1.00  0.00     0.013 A 
HETATM   19  C   UNL     1      29.514  43.006  53.861  1.00  0.00    -0.059 A 
HETATM   20  C   UNL     1      28.736  44.051  53.350  1.00  0.00     0.043 A 
HETATM   21  C   UNL     1      30.406  43.218  55.048  1.00  0.00     0.048 C 
ENDBRANCH  13  14
ENDBRANCH  11  13
ENDBRANCH   8  11
ENDBRANCH   1   7
BRANCH   3  22
HETATM   22  C   UNL     1      22.284  49.891  48.190  1.00  0.00     0.181 A 
HETATM   23  O   UNL     1      21.861  51.104  48.676  1.00  0.00    -0.289 OA
HETATM   24  C   UNL     1      20.578  51.211  48.231  1.00  0.00     0.106 A 
HETATM   25  C   UNL     1      20.287  50.073  47.499  1.00  0.00     0.093 A 
HETATM   26  C   UNL     1      19.692  52.256  48.460  1.00  0.00     0.040 A 
HETATM   27  N   UNL     1      21.379  49.240  47.477  1.00  0.00    -0.221 NA
HETATM   28  C   UNL     1      19.012  49.939  46.934  1.00  0.00     0.034 A 
HETATM   29  C   UNL     1      18.085  50.973  47.143  1.00  0.00     0.002 A 
HETATM   30  C   UNL     1      18.422  52.108  47.892  1.00  0.00     0.003 A 
ENDBRANCH   3  22
TORSDOF 5
ENDMDL
MODEL 8
REMARK VINA RESULT:      -9.5      5.007      9.338
REMARK  5 active torsions:
REMARK  status: ('A' for Active; 'I' for Inactive)
REMARK    1  A    between atoms: C_4  and  O_5 
REMARK    2  A    between atoms: O_5  and  C_6 
REMARK    3  A    between atoms: C_6  and  C_7 
REMARK       I    between atoms: C_7  and  N_8 
REMARK    4  A    between atoms: N_8  and  C_9 
REMARK    5  A    between atoms: C_11  and  C_12 
ROOT
HETATM    1  C   UNL     1      25.908  45.242  52.097  1.00  0.00     0.035 A 
HETATM    2  C   UNL     1      26.950  44.810  52.923  1.00  0.00     0.045 A 
HETATM    3  C   UNL     1      27.451  45.629  53.950  1.00  0.00     0.019 A 
HETATM    4  C   UNL     1      26.909  46.910  54.114  1.00  0.00     0.016 A 
HETATM    5  C   UNL     1      25.873  47.355  53.293  1.00  0.00     0.003 A 
HETATM    6  C   UNL     1      25.368  46.518  52.297  1.00  0.00     0.029 A 
ENDROOT
BRANCH   1   7
HETATM    7  N   UNL     1      25.340  44.454  51.077  1.00  0.00    -0.325 N 
HETATM    8  C   UNL     1      25.910  44.099  49.866  1.00  0.00     0.251 C 
HETATM    9  O   UNL     1      26.992  44.484  49.433  1.00  0.00    -0.270 OA
HETATM   10  H   UNL     1      24.412  44.082  51.253  1.00  0.00     0.169 HD
BRANCH   8  11
HETATM   11  C   UNL     1      25.022  43.166  49.025  1.00  0.00     0.217 C 
HETATM   12  C   UNL     1      23.620  43.757  48.910  1.00  0.00     0.050 C 
BRANCH  11  13
HETATM   13  O   UNL     1      24.890  41.876  49.634  1.00  0.00    -0.337 OA
BRANCH  13  14
HETATM   14  C   UNL     1      26.086  41.230  49.818  1.00  0.00     0.070 A 
HETATM   15  C   UNL     1      26.817  41.289  51.006  1.00  0.00     0.043 A 
HETATM   16  C   UNL     1      28.028  40.595  51.123  1.00  0.00    -0.059 A 
HETATM   17  C   UNL     1      28.822  40.643  52.395  1.00  0.00     0.048 C 
HETATM   18  C   UNL     1      28.486  39.829  50.041  1.00  0.00     0.013 A 
HETATM   19  C   UNL     1      27.748  39.752  48.852  1.00  0.00    -0.059 A 
HETATM   20  C   UNL     1      26.534  40.443  48.758  1.00  0.00     0.043 A 
HETATM   21  C   UNL     1      28.244  38.908  47.716  1.00  0.00     0.048 C 
ENDBRANCH  13  14
ENDBRANCH  11  13
ENDBRANCH   8  11
ENDBRANCH   1   7
BRANCH   3  22
HETATM   22  C   UNL     1      28.495  45.166  54.864  1.00  0.00     0.181 A 
HETATM   23  O   UNL     1      28.682  45.904  56.007  1.00  0.00    -0.289 OA
HETATM   24  C   UNL     1      29.730  45.294  56.628  1.00  0.00     0.106 A 
HETATM   25  C   UNL     1      30.121  44.223  55.844  1.00  0.00     0.093 A 
HETATM   26  C   UNL     1      30.326  45.661  57.828  1.00  0.00     0.040 A 
HETATM   27  N   UNL     1      29.329  44.148  54.725  1.00  0.00    -0.221 NA
HETATM   28  C   UNL     1      31.196  43.431  56.269  1.00  0.00     0.034 A 
HETATM   29  C   UNL     1      31.829  43.769  57.476  1.00  0.00     0.002 A 
HETATM   30  C   UNL     1      31.400  44.862  58.239  1.00  0.00     0.003 A 
ENDBRANCH   3  22
TORSDOF 5
ENDMDL
MODEL 9
REMARK VINA RESULT:      -9.3      2.082     10.657
REMARK  5 active torsions:
REMARK  status: ('A' for Active; 'I' for Inactive)
REMARK    1  A    between atoms: C_4  and  O_5 
REMARK    2  A    between atoms: O_5  and  C_6 
REMARK    3  A    between atoms: C_6  and  C_7 
REMARK       I    between atoms: C_7  and  N_8 
REMARK    4  A    between atoms: N_8  and  C_9 
REMARK    5  A    between atoms: C_11  and  C_12 
ROOT
HETATM    1  C   UNL     1      23.980  48.742  49.306  1.00  0.00     0.035 A 
HETATM    2  C   UNL     1      24.334  47.719  50.192  1.00  0.00     0.045 A 
HETATM    3  C   UNL     1      25.681  47.402  50.435  1.00  0.00     0.019 A 
HETATM    4  C   UNL     1      26.675  48.109  49.746  1.00  0.00     0.016 A 
HETATM    5  C   UNL     1      26.335  49.128  48.855  1.00  0.00     0.003 A 
HETATM    6  C   UNL     1      24.993  49.449  48.647  1.00  0.00     0.029 A 
ENDROOT
BRANCH   1   7
HETATM    7  N   UNL     1      22.651  49.130  49.050  1.00  0.00    -0.325 N 
HETATM    8  C   UNL     1      21.958  50.191  49.607  1.00  0.00     0.251 C 
HETATM    9  O   UNL     1      22.364  50.936  50.495  1.00  0.00    -0.270 OA
HETATM   10  H   UNL     1      22.142  48.584  48.361  1.00  0.00     0.169 HD
BRANCH   8  11
HETATM   11  C   UNL     1      20.539  50.358  49.039  1.00  0.00     0.217 C 
HETATM   12  C   UNL     1      20.446  51.671  48.267  1.00  0.00     0.050 C 
BRANCH  11  13
HETATM   13  O   UNL     1      19.557  50.408  50.082  1.00  0.00    -0.337 OA
BRANCH  13  14
HETATM   14  C   UNL     1      18.293  50.690  49.632  1.00  0.00     0.070 A 
HETATM   15  C   UNL     1      17.535  49.805  48.862  1.00  0.00     0.043 A 
HETATM   16  C   UNL     1      16.246  50.159  48.445  1.00  0.00    -0.059 A 
HETATM   17  C   UNL     1      15.417  49.215  47.623  1.00  0.00     0.048 C 
HETATM   18  C   UNL     1      15.720  51.401  48.825  1.00  0.00     0.013 A 
HETATM   19  C   UNL     1      16.468  52.287  49.613  1.00  0.00    -0.059 A 
HETATM   20  C   UNL     1      17.751  51.912  50.029  1.00  0.00     0.043 A 
HETATM   21  C   UNL     1      15.877  53.601  50.029  1.00  0.00     0.048 C 
ENDBRANCH  13  14
ENDBRANCH  11  13
ENDBRANCH   8  11
ENDBRANCH   1   7
BRANCH   3  22
HETATM   22  C   UNL     1      26.069  46.380  51.407  1.00  0.00     0.181 A 
HETATM   23  O   UNL     1      26.876  45.369  50.947  1.00  0.00    -0.289 OA
HETATM   24  C   UNL     1      27.027  44.548  52.023  1.00  0.00     0.106 A 
HETATM   25  C   UNL     1      26.317  45.096  53.077  1.00  0.00     0.093 A 
HETATM   26  C   UNL     1      27.750  43.363  52.084  1.00  0.00     0.040 A 
HETATM   27  N   UNL     1      25.712  46.262  52.676  1.00  0.00    -0.221 NA
HETATM   28  C   UNL     1      26.310  44.428  54.308  1.00  0.00     0.034 A 
HETATM   29  C   UNL     1      27.026  43.225  54.412  1.00  0.00     0.002 A 
HETATM   30  C   UNL     1      27.732  42.706  53.319  1.00  0.00     0.003 A 
ENDBRANCH   3  22
TORSDOF 5
ENDMDL
MODEL 10
REMARK VINA RESULT:      -9.1      2.726     10.594
REMARK  5 active torsions:
REMARK  status: ('A' for Active; 'I' for Inactive)
REMARK    1  A    between atoms: C_4  and  O_5 
REMARK    2  A    between atoms: O_5  and  C_6 
REMARK    3  A    between atoms: C_6  and  C_7 
REMARK       I    between atoms: C_7  and  N_8 
REMARK    4  A    between atoms: N_8  and  C_9 
REMARK    5  A    between atoms: C_11  and  C_12 
ROOT
HETATM    1  C   UNL     1      26.992  43.273  51.354  1.00  0.00     0.035 A 
HETATM    2  C   UNL     1      27.514  43.857  52.513  1.00  0.00     0.045 A 
HETATM    3  C   UNL     1      28.507  43.210  53.269  1.00  0.00     0.019 A 
HETATM    4  C   UNL     1      28.948  41.944  52.859  1.00  0.00     0.016 A 
HETATM    5  C   UNL     1      28.431  41.350  51.708  1.00  0.00     0.003 A 
HETATM    6  C   UNL     1      27.466  42.019  50.954  1.00  0.00     0.029 A 
ENDROOT
BRANCH   1   7
HETATM    7  N   UNL     1      26.024  43.889  50.536  1.00  0.00    -0.325 N 
HETATM    8  C   UNL     1      24.826  44.461  50.929  1.00  0.00     0.251 C 
HETATM    9  O   UNL     1      24.358  44.457  52.064  1.00  0.00    -0.270 OA
HETATM   10  H   UNL     1      26.233  43.940  49.544  1.00  0.00     0.169 HD
BRANCH   8  11
HETATM   11  C   UNL     1      24.049  45.104  49.769  1.00  0.00     0.217 C 
HETATM   12  C   UNL     1      24.263  44.291  48.494  1.00  0.00     0.050 C 
BRANCH  11  13
HETATM   13  O   UNL     1      24.505  46.436  49.504  1.00  0.00    -0.337 OA
BRANCH  13  14
HETATM   14  C   UNL     1      23.502  47.299  49.145  1.00  0.00     0.070 A 
HETATM   15  C   UNL     1      22.224  46.878  48.768  1.00  0.00     0.043 A 
HETATM   16  C   UNL     1      21.246  47.820  48.421  1.00  0.00    -0.059 A 
HETATM   17  C   UNL     1      19.868  47.384  48.020  1.00  0.00     0.048 C 
HETATM   18  C   UNL     1      21.560  49.185  48.476  1.00  0.00     0.013 A 
HETATM   19  C   UNL     1      22.835  49.614  48.871  1.00  0.00    -0.059 A 
HETATM   20  C   UNL     1      23.796  48.659  49.224  1.00  0.00     0.043 A 
HETATM   21  C   UNL     1      23.142  51.080  48.946  1.00  0.00     0.048 C 
ENDBRANCH  13  14
ENDBRANCH  11  13
ENDBRANCH   8  11
ENDBRANCH   1   7
BRANCH   3  22
HETATM   22  C   UNL     1      29.109  43.836  54.446  1.00  0.00     0.181 A 
HETATM   23  O   UNL     1      30.148  43.159  55.037  1.00  0.00    -0.289 OA
HETATM   24  C   UNL     1      30.470  43.924  56.118  1.00  0.00     0.106 A 
HETATM   25  C   UNL     1      29.624  45.020  56.128  1.00  0.00     0.093 A 
HETATM   26  C   UNL     1      31.457  43.674  57.062  1.00  0.00     0.040 A 
HETATM   27  N   UNL     1      28.764  44.956  55.059  1.00  0.00    -0.221 NA
HETATM   28  C   UNL     1      29.753  45.964  57.155  1.00  0.00     0.034 A 
HETATM   29  C   UNL     1      30.737  45.747  58.132  1.00  0.00     0.002 A 
HETATM   30  C   UNL     1      31.572  44.624  58.084  1.00  0.00     0.003 A 
ENDBRANCH   3  22
TORSDOF 5
ENDMDL
