MODEL 1
REMARK VINA RESULT:      -7.6      0.000      0.000
REMARK  9 active torsions:
REMARK  status: ('A' for Active; 'I' for Inactive)
REMARK    1  A    between atoms: C_2  and  C_3 
REMARK    2  A    between atoms: C_7  and  C_8 
REMARK    3  A    between atoms: C_8  and  C_9 
REMARK       I    between atoms: C_9  and  N_10 
REMARK    4  A    between atoms: N_10  and  C_11 
REMARK    5  A    between atoms: C_11  and  C_12 
REMARK    6  A    between atoms: C_12  and  N_13 
REMARK    7  A    between atoms: C_21  and  C_22 
REMARK    8  A    between atoms: C_32  and  C_33 
REMARK    9  A    between atoms: C_33  and  O_34 
ROOT
HETATM    1  C   UNL     1      15.095  50.188  45.696  1.00  0.00     0.051 C 
HETATM    2  N   UNL     1      14.859  51.508  45.303  1.00  0.00    -0.228 NA
HETATM    3  C   UNL     1      15.042  52.414  46.205  1.00  0.00     0.170 C 
HETATM    4  N   UNL     1      15.708  52.110  47.579  1.00  0.00    -0.318 N 
HETATM    5  C   UNL     1      15.156  52.826  48.503  1.00  0.00     0.011 C 
HETATM    6  C   UNL     1      16.668  51.005  47.381  1.00  0.00     0.166 C 
HETATM    7  S   UNL     1      14.406  54.014  46.165  1.00  0.00    -0.086 SA
HETATM    8  C   UNL     1      14.342  54.009  47.993  1.00  0.00     0.135 C 
HETATM    9  C   UNL     1      15.915  49.890  46.736  1.00  0.00     0.069 C 
ENDROOT
BRANCH   5  10
HETATM   10  C   UNL     1      15.270  52.477  49.960  1.00  0.00     0.156 C 
BRANCH  10  11
HETATM   11  C   UNL     1      14.451  53.398  50.844  1.00  0.00     0.223 C 
HETATM   12  N   UNL     1      15.127  54.424  51.453  1.00  0.00    -0.359 N 
HETATM   13  H   UNL     1      16.118  54.562  51.264  1.00  0.00     0.162 HD
HETATM   14  O   UNL     1      13.257  53.202  51.052  1.00  0.00    -0.273 OA
BRANCH  12  15
HETATM   15  C   UNL     1      14.564  55.238  52.539  1.00  0.00     0.150 C 
BRANCH  15  16
HETATM   16  C   UNL     1      15.576  56.098  53.333  1.00  0.00     0.254 C 
BRANCH  16  17
HETATM   17  N   UNL     1      15.114  57.535  53.493  1.00  0.00    -0.070 N 
HETATM   18  H   UNL     1      14.110  57.497  53.758  1.00  0.00     0.279 HD
HETATM   19  C   UNL     1      15.813  58.270  54.614  1.00  0.00     0.235 C 
HETATM   20  C   UNL     1      15.153  59.627  54.815  1.00  0.00     0.028 C 
HETATM   21  C   UNL     1      15.147  60.447  53.530  1.00  0.00     0.003 C 
HETATM   22  C   UNL     1      14.533  59.664  52.375  1.00  0.00     0.028 C 
HETATM   23  C   UNL     1      15.193  58.306  52.197  1.00  0.00     0.235 C 
ENDBRANCH  16  17
ENDBRANCH  15  16
ENDBRANCH  12  15
ENDBRANCH  10  11
ENDBRANCH   5  10
BRANCH   6  24
HETATM   24  C   UNL     1      17.736  50.866  48.461  1.00  0.00    -0.024 A 
HETATM   25  C   UNL     1      18.820  51.794  48.512  1.00  0.00    -0.053 A 
HETATM   26  C   UNL     1      19.016  52.908  47.509  1.00  0.00     0.049 C 
HETATM   27  C   UNL     1      19.812  51.662  49.500  1.00  0.00     0.008 A 
HETATM   28  C   UNL     1      19.753  50.644  50.444  1.00  0.00     0.007 A 
HETATM   29  C   UNL     1      18.706  49.728  50.417  1.00  0.00    -0.061 A 
HETATM   30  C   UNL     1      18.643  48.636  51.448  1.00  0.00     0.048 C 
HETATM   31  C   UNL     1      17.702  49.857  49.444  1.00  0.00     0.017 A 
ENDBRANCH   6  24
BRANCH   9  32
HETATM   32  C   UNL     1      15.801  48.596  47.393  1.00  0.00     0.293 C 
HETATM   33  O   UNL     1      15.007  48.445  48.310  1.00  0.00    -0.259 OA
BRANCH  32  34
HETATM   34  O   UNL     1      16.700  47.731  46.900  1.00  0.00    -0.323 OA
HETATM   35  C   UNL     1      17.082  46.665  47.779  1.00  0.00     0.213 C 
ENDBRANCH  32  34
ENDBRANCH   9  32
BRANCH   1  36
HETATM   36  C   UNL     1      14.260  49.166  44.943  1.00  0.00     0.056 C 
HETATM   37  C   UNL     1      13.413  49.813  43.855  1.00  0.00     0.011 C 
ENDBRANCH   1  36
TORSDOF 9
ENDMDL
MODEL 2
REMARK VINA RESULT:      -7.4     11.842     17.036
REMARK  9 active torsions:
REMARK  status: ('A' for Active; 'I' for Inactive)
REMARK    1  A    between atoms: C_2  and  C_3 
REMARK    2  A    between atoms: C_7  and  C_8 
REMARK    3  A    between atoms: C_8  and  C_9 
REMARK       I    between atoms: C_9  and  N_10 
REMARK    4  A    between atoms: N_10  and  C_11 
REMARK    5  A    between atoms: C_11  and  C_12 
REMARK    6  A    between atoms: C_12  and  N_13 
REMARK    7  A    between atoms: C_21  and  C_22 
REMARK    8  A    between atoms: C_32  and  C_33 
REMARK    9  A    between atoms: C_33  and  O_34 
ROOT
HETATM    1  C   UNL     1      24.078  45.717  49.966  1.00  0.00     0.051 C 
HETATM    2  N   UNL     1      23.327  44.588  49.627  1.00  0.00    -0.228 NA
HETATM    3  C   UNL     1      23.930  43.450  49.724  1.00  0.00     0.170 C 
HETATM    4  N   UNL     1      25.325  43.293  50.396  1.00  0.00    -0.318 N 
HETATM    5  C   UNL     1      26.012  42.389  49.775  1.00  0.00     0.011 C 
HETATM    6  C   UNL     1      25.441  44.325  51.445  1.00  0.00     0.166 C 
HETATM    7  S   UNL     1      23.441  41.987  48.959  1.00  0.00    -0.086 SA
HETATM    8  C   UNL     1      25.194  41.474  48.873  1.00  0.00     0.135 C 
HETATM    9  C   UNL     1      25.150  45.636  50.795  1.00  0.00     0.069 C 
ENDROOT
BRANCH   5  10
HETATM   10  C   UNL     1      27.506  42.297  49.899  1.00  0.00     0.156 C 
BRANCH  10  11
HETATM   11  C   UNL     1      27.971  40.912  50.308  1.00  0.00     0.223 C 
HETATM   12  N   UNL     1      28.683  40.204  49.375  1.00  0.00    -0.359 N 
HETATM   13  H   UNL     1      28.913  40.632  48.480  1.00  0.00     0.162 HD
HETATM   14  O   UNL     1      27.673  40.426  51.396  1.00  0.00    -0.273 OA
BRANCH  12  15
HETATM   15  C   UNL     1      28.976  38.769  49.492  1.00  0.00     0.150 C 
BRANCH  15  16
HETATM   16  C   UNL     1      27.767  37.817  49.320  1.00  0.00     0.254 C 
BRANCH  16  17
HETATM   17  N   UNL     1      27.934  36.878  48.140  1.00  0.00    -0.070 N 
HETATM   18  H   UNL     1      28.560  36.112  48.455  1.00  0.00     0.279 HD
HETATM   19  C   UNL     1      26.645  36.213  47.713  1.00  0.00     0.235 C 
HETATM   20  C   UNL     1      26.948  35.158  46.658  1.00  0.00     0.028 C 
HETATM   21  C   UNL     1      27.690  35.750  45.465  1.00  0.00     0.003 C 
HETATM   22  C   UNL     1      28.937  36.508  45.908  1.00  0.00     0.028 C 
HETATM   23  C   UNL     1      28.620  37.547  46.972  1.00  0.00     0.235 C 
ENDBRANCH  16  17
ENDBRANCH  15  16
ENDBRANCH  12  15
ENDBRANCH  10  11
ENDBRANCH   5  10
BRANCH   6  24
HETATM   24  C   UNL     1      26.503  44.061  52.508  1.00  0.00    -0.024 A 
HETATM   25  C   UNL     1      26.156  44.128  53.891  1.00  0.00    -0.053 A 
HETATM   26  C   UNL     1      24.780  44.505  54.392  1.00  0.00     0.049 C 
HETATM   27  C   UNL     1      27.135  43.896  54.873  1.00  0.00     0.008 A 
HETATM   28  C   UNL     1      28.444  43.588  54.522  1.00  0.00     0.007 A 
HETATM   29  C   UNL     1      28.807  43.514  53.181  1.00  0.00    -0.061 A 
HETATM   30  C   UNL     1      30.222  43.169  52.809  1.00  0.00     0.048 C 
HETATM   31  C   UNL     1      27.836  43.731  52.190  1.00  0.00     0.017 A 
ENDBRANCH   6  24
BRANCH   9  32
HETATM   32  C   UNL     1      26.152  46.693  50.779  1.00  0.00     0.293 C 
HETATM   33  O   UNL     1      26.190  47.511  51.687  1.00  0.00    -0.259 OA
BRANCH  32  34
HETATM   34  O   UNL     1      26.883  46.639  49.656  1.00  0.00    -0.323 OA
HETATM   35  C   UNL     1      27.363  47.898  49.167  1.00  0.00     0.213 C 
ENDBRANCH  32  34
ENDBRANCH   9  32
BRANCH   1  36
HETATM   36  C   UNL     1      23.659  46.976  49.227  1.00  0.00     0.056 C 
HETATM   37  C   UNL     1      22.330  46.797  48.505  1.00  0.00     0.011 C 
ENDBRANCH   1  36
TORSDOF 9
ENDMDL
MODEL 3
REMARK VINA RESULT:      -7.3      7.355     11.679
REMARK  9 active torsions:
REMARK  status: ('A' for Active; 'I' for Inactive)
REMARK    1  A    between atoms: C_2  and  C_3 
REMARK    2  A    between atoms: C_7  and  C_8 
REMARK    3  A    between atoms: C_8  and  C_9 
REMARK       I    between atoms: C_9  and  N_10 
REMARK    4  A    between atoms: N_10  and  C_11 
REMARK    5  A    between atoms: C_11  and  C_12 
REMARK    6  A    between atoms: C_12  and  N_13 
REMARK    7  A    between atoms: C_21  and  C_22 
REMARK    8  A    between atoms: C_32  and  C_33 
REMARK    9  A    between atoms: C_33  and  O_34 
ROOT
HETATM    1  C   UNL     1      20.023  50.016  48.198  1.00  0.00     0.051 C 
HETATM    2  N   UNL     1      21.165  50.708  47.785  1.00  0.00    -0.228 NA
HETATM    3  C   UNL     1      22.275  50.048  47.814  1.00  0.00     0.170 C 
HETATM    4  N   UNL     1      22.333  48.513  48.063  1.00  0.00    -0.318 N 
HETATM    5  C   UNL     1      23.386  48.220  48.756  1.00  0.00     0.011 C 
HETATM    6  C   UNL     1      21.092  47.920  47.528  1.00  0.00     0.166 C 
HETATM    7  S   UNL     1      23.852  50.738  47.818  1.00  0.00    -0.086 SA
HETATM    8  C   UNL     1      24.449  49.311  48.793  1.00  0.00     0.135 C 
HETATM    9  C   UNL     1      19.956  48.660  48.151  1.00  0.00     0.069 C 
ENDROOT
BRANCH   5  10
HETATM   10  C   UNL     1      23.513  46.925  49.506  1.00  0.00     0.156 C 
BRANCH  10  11
HETATM   11  C   UNL     1      24.883  46.750  50.134  1.00  0.00     0.223 C 
HETATM   12  N   UNL     1      25.682  45.771  49.602  1.00  0.00    -0.359 N 
HETATM   13  H   UNL     1      25.362  45.237  48.796  1.00  0.00     0.162 HD
HETATM   14  O   UNL     1      25.237  47.411  51.107  1.00  0.00    -0.273 OA
BRANCH  12  15
HETATM   15  C   UNL     1      26.911  45.285  50.244  1.00  0.00     0.150 C 
BRANCH  15  16
HETATM   16  C   UNL     1      26.720  44.205  51.335  1.00  0.00     0.254 C 
BRANCH  16  17
HETATM   17  N   UNL     1      27.902  44.125  52.284  1.00  0.00    -0.070 N 
HETATM   18  H   UNL     1      28.558  44.881  52.006  1.00  0.00     0.279 HD
HETATM   19  C   UNL     1      27.537  44.402  53.725  1.00  0.00     0.235 C 
HETATM   20  C   UNL     1      28.808  44.486  54.559  1.00  0.00     0.028 C 
HETATM   21  C   UNL     1      29.651  43.223  54.431  1.00  0.00     0.003 C 
HETATM   22  C   UNL     1      29.933  42.889  52.970  1.00  0.00     0.028 C 
HETATM   23  C   UNL     1      28.655  42.823  52.148  1.00  0.00     0.235 C 
ENDBRANCH  16  17
ENDBRANCH  15  16
ENDBRANCH  12  15
ENDBRANCH  10  11
ENDBRANCH   5  10
BRANCH   6  24
HETATM   24  C   UNL     1      21.149  46.421  47.253  1.00  0.00    -0.024 A 
HETATM   25  C   UNL     1      20.512  45.887  46.092  1.00  0.00    -0.053 A 
HETATM   26  C   UNL     1      19.716  46.722  45.114  1.00  0.00     0.049 C 
HETATM   27  C   UNL     1      20.553  44.504  45.841  1.00  0.00     0.008 A 
HETATM   28  C   UNL     1      21.218  43.639  46.701  1.00  0.00     0.007 A 
HETATM   29  C   UNL     1      21.849  44.135  47.839  1.00  0.00    -0.061 A 
HETATM   30  C   UNL     1      22.576  43.194  48.759  1.00  0.00     0.048 C 
HETATM   31  C   UNL     1      21.826  45.515  48.093  1.00  0.00     0.017 A 
ENDBRANCH   6  24
BRANCH   9  32
HETATM   32  C   UNL     1      18.978  47.960  48.972  1.00  0.00     0.293 C 
HETATM   33  O   UNL     1      19.155  47.857  50.177  1.00  0.00    -0.259 OA
BRANCH  32  34
HETATM   34  O   UNL     1      18.003  47.443  48.211  1.00  0.00    -0.323 OA
HETATM   35  C   UNL     1      16.759  47.196  48.880  1.00  0.00     0.213 C 
ENDBRANCH  32  34
ENDBRANCH   9  32
BRANCH   1  36
HETATM   36  C   UNL     1      18.952  50.906  48.805  1.00  0.00     0.056 C 
HETATM   37  C   UNL     1      19.162  52.372  48.451  1.00  0.00     0.011 C 
ENDBRANCH   1  36
TORSDOF 9
ENDMDL
MODEL 4
REMARK VINA RESULT:      -7.3     27.034     29.978
REMARK  9 active torsions:
REMARK  status: ('A' for Active; 'I' for Inactive)
REMARK    1  A    between atoms: C_2  and  C_3 
REMARK    2  A    between atoms: C_7  and  C_8 
REMARK    3  A    between atoms: C_8  and  C_9 
REMARK       I    between atoms: C_9  and  N_10 
REMARK    4  A    between atoms: N_10  and  C_11 
REMARK    5  A    between atoms: C_11  and  C_12 
REMARK    6  A    between atoms: C_12  and  N_13 
REMARK    7  A    between atoms: C_21  and  C_22 
REMARK    8  A    between atoms: C_32  and  C_33 
REMARK    9  A    between atoms: C_33  and  O_34 
ROOT
HETATM    1  C   UNL     1      35.548  44.348  66.677  1.00  0.00     0.051 C 
HETATM    2  N   UNL     1      35.480  44.135  68.057  1.00  0.00    -0.228 NA
HETATM    3  C   UNL     1      36.387  44.714  68.770  1.00  0.00     0.170 C 
HETATM    4  N   UNL     1      37.364  45.776  68.185  1.00  0.00    -0.318 N 
HETATM    5  C   UNL     1      38.526  45.658  68.741  1.00  0.00     0.011 C 
HETATM    6  C   UNL     1      36.663  46.484  67.095  1.00  0.00     0.166 C 
HETATM    7  S   UNL     1      36.832  44.280  70.375  1.00  0.00    -0.086 SA
HETATM    8  C   UNL     1      38.536  44.850  70.033  1.00  0.00     0.135 C 
HETATM    9  C   UNL     1      36.163  45.439  66.154  1.00  0.00     0.069 C 
ENDROOT
BRANCH   5  10
HETATM   10  C   UNL     1      39.769  46.229  68.121  1.00  0.00     0.156 C 
BRANCH  10  11
HETATM   11  C   UNL     1      40.666  45.159  67.528  1.00  0.00     0.223 C 
HETATM   12  N   UNL     1      40.265  44.613  66.336  1.00  0.00    -0.359 N 
HETATM   13  H   UNL     1      39.427  44.963  65.875  1.00  0.00     0.162 HD
HETATM   14  O   UNL     1      41.670  44.759  68.114  1.00  0.00    -0.273 OA
BRANCH  12  15
HETATM   15  C   UNL     1      40.853  43.396  65.760  1.00  0.00     0.150 C 
BRANCH  15  16
HETATM   16  C   UNL     1      40.372  42.059  66.370  1.00  0.00     0.254 C 
BRANCH  16  17
HETATM   17  N   UNL     1      39.871  41.089  65.316  1.00  0.00    -0.070 N 
HETATM   18  H   UNL     1      38.858  40.946  65.500  1.00  0.00     0.279 HD
HETATM   19  C   UNL     1      39.964  41.630  63.907  1.00  0.00     0.235 C 
HETATM   20  C   UNL     1      39.268  40.670  62.952  1.00  0.00     0.028 C 
HETATM   21  C   UNL     1      39.846  39.263  63.047  1.00  0.00     0.003 C 
HETATM   22  C   UNL     1      39.844  38.758  64.485  1.00  0.00     0.028 C 
HETATM   23  C   UNL     1      40.530  39.735  65.429  1.00  0.00     0.235 C 
ENDBRANCH  16  17
ENDBRANCH  15  16
ENDBRANCH  12  15
ENDBRANCH  10  11
ENDBRANCH   5  10
BRANCH   6  24
HETATM   24  C   UNL     1      37.251  47.838  66.710  1.00  0.00    -0.024 A 
HETATM   25  C   UNL     1      36.862  49.011  67.425  1.00  0.00    -0.053 A 
HETATM   26  C   UNL     1      35.838  49.012  68.537  1.00  0.00     0.049 C 
HETATM   27  C   UNL     1      37.394  50.261  67.065  1.00  0.00     0.008 A 
HETATM   28  C   UNL     1      38.308  50.380  66.026  1.00  0.00     0.007 A 
HETATM   29  C   UNL     1      38.706  49.251  65.315  1.00  0.00    -0.061 A 
HETATM   30  C   UNL     1      39.704  49.385  64.199  1.00  0.00     0.048 C 
HETATM   31  C   UNL     1      38.192  47.995  65.673  1.00  0.00     0.017 A 
ENDBRANCH   6  24
BRANCH   9  32
HETATM   32  C   UNL     1      36.604  45.421  64.767  1.00  0.00     0.293 C 
HETATM   33  O   UNL     1      35.927  45.962  63.904  1.00  0.00    -0.259 OA
BRANCH  32  34
HETATM   34  O   UNL     1      37.727  44.701  64.635  1.00  0.00    -0.323 OA
HETATM   35  C   UNL     1      38.247  44.601  63.302  1.00  0.00     0.213 C 
ENDBRANCH  32  34
ENDBRANCH   9  32
BRANCH   1  36
HETATM   36  C   UNL     1      34.993  43.199  65.852  1.00  0.00     0.056 C 
HETATM   37  C   UNL     1      33.536  42.909  66.186  1.00  0.00     0.011 C 
ENDBRANCH   1  36
TORSDOF 9
ENDMDL
MODEL 5
REMARK VINA RESULT:      -7.0      8.205     12.408
REMARK  9 active torsions:
REMARK  status: ('A' for Active; 'I' for Inactive)
REMARK    1  A    between atoms: C_2  and  C_3 
REMARK    2  A    between atoms: C_7  and  C_8 
REMARK    3  A    between atoms: C_8  and  C_9 
REMARK       I    between atoms: C_9  and  N_10 
REMARK    4  A    between atoms: N_10  and  C_11 
REMARK    5  A    between atoms: C_11  and  C_12 
REMARK    6  A    between atoms: C_12  and  N_13 
REMARK    7  A    between atoms: C_21  and  C_22 
REMARK    8  A    between atoms: C_32  and  C_33 
REMARK    9  A    between atoms: C_33  and  O_34 
ROOT
HETATM    1  C   UNL     1      27.200  44.297  51.911  1.00  0.00     0.051 C 
HETATM    2  N   UNL     1      27.457  43.369  50.898  1.00  0.00    -0.228 NA
HETATM    3  C   UNL     1      26.664  43.400  49.879  1.00  0.00     0.170 C 
HETATM    4  N   UNL     1      25.627  44.539  49.656  1.00  0.00    -0.318 N 
HETATM    5  C   UNL     1      24.553  44.057  49.121  1.00  0.00     0.011 C 
HETATM    6  C   UNL     1      26.177  45.774  50.251  1.00  0.00     0.166 C 
HETATM    7  S   UNL     1      26.443  42.129  48.740  1.00  0.00    -0.086 SA
HETATM    8  C   UNL     1      24.714  42.676  48.500  1.00  0.00     0.135 C 
HETATM    9  C   UNL     1      26.530  45.452  51.665  1.00  0.00     0.069 C 
ENDROOT
BRANCH   5  10
HETATM   10  C   UNL     1      23.241  44.788  49.166  1.00  0.00     0.156 C 
BRANCH  10  11
HETATM   11  C   UNL     1      22.404  44.554  47.923  1.00  0.00     0.223 C 
HETATM   12  N   UNL     1      22.303  45.602  47.044  1.00  0.00    -0.359 N 
HETATM   13  H   UNL     1      22.815  46.464  47.222  1.00  0.00     0.162 HD
HETATM   14  O   UNL     1      21.798  43.501  47.740  1.00  0.00    -0.273 OA
BRANCH  12  15
HETATM   15  C   UNL     1      21.332  45.650  45.942  1.00  0.00     0.150 C 
BRANCH  15  16
HETATM   16  C   UNL     1      19.849  45.803  46.356  1.00  0.00     0.254 C 
BRANCH  16  17
HETATM   17  N   UNL     1      19.610  47.038  47.205  1.00  0.00    -0.070 N 
HETATM   18  H   UNL     1      20.527  47.297  47.619  1.00  0.00     0.279 HD
HETATM   19  C   UNL     1      19.160  48.240  46.406  1.00  0.00     0.235 C 
HETATM   20  C   UNL     1      19.132  49.464  47.311  1.00  0.00     0.028 C 
HETATM   21  C   UNL     1      18.245  49.243  48.531  1.00  0.00     0.003 C 
HETATM   22  C   UNL     1      18.637  47.973  49.279  1.00  0.00     0.028 C 
HETATM   23  C   UNL     1      18.674  46.763  48.358  1.00  0.00     0.235 C 
ENDBRANCH  16  17
ENDBRANCH  15  16
ENDBRANCH  12  15
ENDBRANCH  10  11
ENDBRANCH   5  10
BRANCH   6  24
HETATM   24  C   UNL     1      25.555  47.074  49.751  1.00  0.00    -0.024 A 
HETATM   25  C   UNL     1      26.390  48.099  49.210  1.00  0.00    -0.053 A 
HETATM   26  C   UNL     1      27.897  48.003  49.145  1.00  0.00     0.049 C 
HETATM   27  C   UNL     1      25.821  49.302  48.758  1.00  0.00     0.008 A 
HETATM   28  C   UNL     1      24.449  49.513  48.815  1.00  0.00     0.007 A 
HETATM   29  C   UNL     1      23.613  48.529  49.336  1.00  0.00    -0.061 A 
HETATM   30  C   UNL     1      22.129  48.760  49.384  1.00  0.00     0.048 C 
HETATM   31  C   UNL     1      24.167  47.318  49.779  1.00  0.00     0.017 A 
ENDBRANCH   6  24
BRANCH   9  32
HETATM   32  C   UNL     1      25.899  46.166  52.766  1.00  0.00     0.293 C 
HETATM   33  O   UNL     1      24.816  45.795  53.193  1.00  0.00    -0.259 OA
BRANCH  32  34
HETATM   34  O   UNL     1      26.627  47.236  53.118  1.00  0.00    -0.323 OA
HETATM   35  C   UNL     1      26.310  47.811  54.392  1.00  0.00     0.213 C 
ENDBRANCH  32  34
ENDBRANCH   9  32
BRANCH   1  36
HETATM   36  C   UNL     1      27.622  43.829  53.293  1.00  0.00     0.056 C 
HETATM   37  C   UNL     1      28.151  42.401  53.274  1.00  0.00     0.011 C 
ENDBRANCH   1  36
TORSDOF 9
ENDMDL
MODEL 6
REMARK VINA RESULT:      -7.0      4.800      9.380
REMARK  9 active torsions:
REMARK  status: ('A' for Active; 'I' for Inactive)
REMARK    1  A    between atoms: C_2  and  C_3 
REMARK    2  A    between atoms: C_7  and  C_8 
REMARK    3  A    between atoms: C_8  and  C_9 
REMARK       I    between atoms: C_9  and  N_10 
REMARK    4  A    between atoms: N_10  and  C_11 
REMARK    5  A    between atoms: C_11  and  C_12 
REMARK    6  A    between atoms: C_12  and  N_13 
REMARK    7  A    between atoms: C_21  and  C_22 
REMARK    8  A    between atoms: C_32  and  C_33 
REMARK    9  A    between atoms: C_33  and  O_34 
ROOT
HETATM    1  C   UNL     1      16.725  51.056  48.388  1.00  0.00     0.051 C 
HETATM    2  N   UNL     1      17.947  51.683  48.645  1.00  0.00    -0.228 NA
HETATM    3  C   UNL     1      19.007  50.972  48.447  1.00  0.00     0.170 C 
HETATM    4  N   UNL     1      18.968  49.584  47.746  1.00  0.00    -0.318 N 
HETATM    5  C   UNL     1      19.844  48.796  48.281  1.00  0.00     0.011 C 
HETATM    6  C   UNL     1      17.850  49.594  46.782  1.00  0.00     0.166 C 
HETATM    7  S   UNL     1      20.568  51.295  49.098  1.00  0.00    -0.086 SA
HETATM    8  C   UNL     1      20.906  49.498  49.117  1.00  0.00     0.135 C 
HETATM    9  C   UNL     1      16.630  50.000  47.541  1.00  0.00     0.069 C 
ENDROOT
BRANCH   5  10
HETATM   10  C   UNL     1      19.775  47.303  48.129  1.00  0.00     0.156 C 
BRANCH  10  11
HETATM   11  C   UNL     1      21.119  46.692  47.782  1.00  0.00     0.223 C 
HETATM   12  N   UNL     1      21.699  45.902  48.741  1.00  0.00    -0.359 N 
HETATM   13  H   UNL     1      21.206  45.716  49.612  1.00  0.00     0.162 HD
HETATM   14  O   UNL     1      21.687  46.939  46.721  1.00  0.00    -0.273 OA
BRANCH  12  15
HETATM   15  C   UNL     1      23.098  45.455  48.690  1.00  0.00     0.150 C 
BRANCH  15  16
HETATM   16  C   UNL     1      23.591  44.637  49.907  1.00  0.00     0.254 C 
BRANCH  16  17
HETATM   17  N   UNL     1      24.721  45.327  50.648  1.00  0.00    -0.070 N 
HETATM   18  H   UNL     1      25.606  44.997  50.215  1.00  0.00     0.279 HD
HETATM   19  C   UNL     1      24.716  46.831  50.489  1.00  0.00     0.235 C 
HETATM   20  C   UNL     1      25.984  47.407  51.104  1.00  0.00     0.028 C 
HETATM   21  C   UNL     1      26.136  47.002  52.565  1.00  0.00     0.003 C 
HETATM   22  C   UNL     1      26.039  45.490  52.736  1.00  0.00     0.028 C 
HETATM   23  C   UNL     1      24.775  44.929  52.104  1.00  0.00     0.235 C 
ENDBRANCH  16  17
ENDBRANCH  15  16
ENDBRANCH  12  15
ENDBRANCH  10  11
ENDBRANCH   5  10
BRANCH   6  24
HETATM   24  C   UNL     1      17.920  48.535  45.686  1.00  0.00    -0.024 A 
HETATM   25  C   UNL     1      18.223  48.920  44.345  1.00  0.00    -0.053 A 
HETATM   26  C   UNL     1      18.434  50.353  43.912  1.00  0.00     0.049 C 
HETATM   27  C   UNL     1      18.278  47.947  43.331  1.00  0.00     0.008 A 
HETATM   28  C   UNL     1      18.053  46.605  43.611  1.00  0.00     0.007 A 
HETATM   29  C   UNL     1      17.758  46.204  44.911  1.00  0.00    -0.061 A 
HETATM   30  C   UNL     1      17.527  44.749  45.209  1.00  0.00     0.048 C 
HETATM   31  C   UNL     1      17.713  47.164  45.935  1.00  0.00     0.017 A 
ENDBRANCH   6  24
BRANCH   9  32
HETATM   32  C   UNL     1      15.482  49.108  47.627  1.00  0.00     0.293 C 
HETATM   33  O   UNL     1      15.470  48.208  48.455  1.00  0.00    -0.259 OA
BRANCH  32  34
HETATM   34  O   UNL     1      14.587  49.392  46.671  1.00  0.00    -0.323 OA
HETATM   35  C   UNL     1      14.133  48.275  45.895  1.00  0.00     0.213 C 
ENDBRANCH  32  34
ENDBRANCH   9  32
BRANCH   1  36
HETATM   36  C   UNL     1      15.577  51.582  49.233  1.00  0.00     0.056 C 
HETATM   37  C   UNL     1      15.521  53.103  49.234  1.00  0.00     0.011 C 
ENDBRANCH   1  36
TORSDOF 9
ENDMDL
MODEL 7
REMARK VINA RESULT:      -7.0     27.455     31.133
REMARK  9 active torsions:
REMARK  status: ('A' for Active; 'I' for Inactive)
REMARK    1  A    between atoms: C_2  and  C_3 
REMARK    2  A    between atoms: C_7  and  C_8 
REMARK    3  A    between atoms: C_8  and  C_9 
REMARK       I    between atoms: C_9  and  N_10 
REMARK    4  A    between atoms: N_10  and  C_11 
REMARK    5  A    between atoms: C_11  and  C_12 
REMARK    6  A    between atoms: C_12  and  N_13 
REMARK    7  A    between atoms: C_21  and  C_22 
REMARK    8  A    between atoms: C_32  and  C_33 
REMARK    9  A    between atoms: C_33  and  O_34 
ROOT
HETATM    1  C   UNL     1      38.843  49.169  65.984  1.00  0.00     0.051 C 
HETATM    2  N   UNL     1      40.005  49.378  66.733  1.00  0.00    -0.228 NA
HETATM    3  C   UNL     1      40.613  48.318  67.153  1.00  0.00     0.170 C 
HETATM    4  N   UNL     1      40.233  46.887  66.674  1.00  0.00    -0.318 N 
HETATM    5  C   UNL     1      40.371  46.046  67.647  1.00  0.00     0.011 C 
HETATM    6  C   UNL     1      39.720  46.993  65.293  1.00  0.00     0.166 C 
HETATM    7  S   UNL     1      41.754  48.259  68.441  1.00  0.00    -0.086 SA
HETATM    8  C   UNL     1      41.209  46.554  68.814  1.00  0.00     0.135 C 
HETATM    9  C   UNL     1      38.626  48.007  65.316  1.00  0.00     0.069 C 
ENDROOT
BRANCH   5  10
HETATM   10  C   UNL     1      39.704  44.701  67.641  1.00  0.00     0.156 C 
BRANCH  10  11
HETATM   11  C   UNL     1      40.612  43.605  67.115  1.00  0.00     0.223 C 
HETATM   12  N   UNL     1      39.997  42.490  66.606  1.00  0.00    -0.359 N 
HETATM   13  H   UNL     1      38.981  42.450  66.555  1.00  0.00     0.162 HD
HETATM   14  O   UNL     1      41.835  43.686  67.195  1.00  0.00    -0.273 OA
BRANCH  12  15
HETATM   15  C   UNL     1      40.703  41.237  66.307  1.00  0.00     0.150 C 
BRANCH  15  16
HETATM   16  C   UNL     1      40.271  40.512  65.010  1.00  0.00     0.254 C 
BRANCH  16  17
HETATM   17  N   UNL     1      40.536  39.019  65.067  1.00  0.00    -0.070 N 
HETATM   18  H   UNL     1      39.828  38.567  64.456  1.00  0.00     0.279 HD
HETATM   19  C   UNL     1      41.883  38.624  64.504  1.00  0.00     0.235 C 
HETATM   20  C   UNL     1      41.973  37.106  64.431  1.00  0.00     0.028 C 
HETATM   21  C   UNL     1      41.728  36.461  65.790  1.00  0.00     0.003 C 
HETATM   22  C   UNL     1      40.416  36.939  66.402  1.00  0.00     0.028 C 
HETATM   23  C   UNL     1      40.335  38.457  66.454  1.00  0.00     0.235 C 
ENDBRANCH  16  17
ENDBRANCH  15  16
ENDBRANCH  12  15
ENDBRANCH  10  11
ENDBRANCH   5  10
BRANCH   6  24
HETATM   24  C   UNL     1      39.731  45.696  64.490  1.00  0.00    -0.024 A 
HETATM   25  C   UNL     1      40.964  45.186  63.980  1.00  0.00    -0.053 A 
HETATM   26  C   UNL     1      42.292  45.890  64.142  1.00  0.00     0.049 C 
HETATM   27  C   UNL     1      40.976  43.997  63.230  1.00  0.00     0.008 A 
HETATM   28  C   UNL     1      39.803  43.294  62.982  1.00  0.00     0.007 A 
HETATM   29  C   UNL     1      38.589  43.769  63.470  1.00  0.00    -0.061 A 
HETATM   30  C   UNL     1      37.326  42.997  63.207  1.00  0.00     0.048 C 
HETATM   31  C   UNL     1      38.565  44.948  64.231  1.00  0.00     0.017 A 
ENDBRANCH   6  24
BRANCH   9  32
HETATM   32  C   UNL     1      37.271  47.643  64.929  1.00  0.00     0.293 C 
HETATM   33  O   UNL     1      36.815  48.030  63.863  1.00  0.00    -0.259 OA
BRANCH  32  34
HETATM   34  O   UNL     1      36.669  46.947  65.905  1.00  0.00    -0.323 OA
HETATM   35  C   UNL     1      35.508  47.562  66.480  1.00  0.00     0.213 C 
ENDBRANCH  32  34
ENDBRANCH   9  32
BRANCH   1  36
HETATM   36  C   UNL     1      37.827  50.292  66.103  1.00  0.00     0.056 C 
HETATM   37  C   UNL     1      37.463  50.579  67.553  1.00  0.00     0.011 C 
ENDBRANCH   1  36
TORSDOF 9
ENDMDL
MODEL 8
REMARK VINA RESULT:      -6.8     27.713     31.020
REMARK  9 active torsions:
REMARK  status: ('A' for Active; 'I' for Inactive)
REMARK    1  A    between atoms: C_2  and  C_3 
REMARK    2  A    between atoms: C_7  and  C_8 
REMARK    3  A    between atoms: C_8  and  C_9 
REMARK       I    between atoms: C_9  and  N_10 
REMARK    4  A    between atoms: N_10  and  C_11 
REMARK    5  A    between atoms: C_11  and  C_12 
REMARK    6  A    between atoms: C_12  and  N_13 
REMARK    7  A    between atoms: C_21  and  C_22 
REMARK    8  A    between atoms: C_32  and  C_33 
REMARK    9  A    between atoms: C_33  and  O_34 
ROOT
HETATM    1  C   UNL     1      38.760  48.936  66.173  1.00  0.00     0.051 C 
HETATM    2  N   UNL     1      39.974  49.234  66.798  1.00  0.00    -0.228 NA
HETATM    3  C   UNL     1      40.704  48.225  67.141  1.00  0.00     0.170 C 
HETATM    4  N   UNL     1      40.389  46.769  66.691  1.00  0.00    -0.318 N 
HETATM    5  C   UNL     1      40.693  45.941  67.637  1.00  0.00     0.011 C 
HETATM    6  C   UNL     1      39.727  46.836  65.373  1.00  0.00     0.166 C 
HETATM    7  S   UNL     1      41.975  48.254  68.302  1.00  0.00    -0.086 SA
HETATM    8  C   UNL     1      41.608  46.511  68.714  1.00  0.00     0.135 C 
HETATM    9  C   UNL     1      38.565  47.761  65.520  1.00  0.00     0.069 C 
ENDROOT
BRANCH   5  10
HETATM   10  C   UNL     1      40.136  44.547  67.688  1.00  0.00     0.156 C 
BRANCH  10  11
HETATM   11  C   UNL     1      41.159  43.498  67.294  1.00  0.00     0.223 C 
HETATM   12  N   UNL     1      40.760  42.189  67.377  1.00  0.00    -0.359 N 
HETATM   13  H   UNL     1      39.804  41.967  67.648  1.00  0.00     0.162 HD
HETATM   14  O   UNL     1      42.306  43.802  66.973  1.00  0.00    -0.273 OA
BRANCH  12  15
HETATM   15  C   UNL     1      41.684  41.050  67.298  1.00  0.00     0.150 C 
BRANCH  15  16
HETATM   16  C   UNL     1      41.033  39.647  67.358  1.00  0.00     0.254 C 
BRANCH  16  17
HETATM   17  N   UNL     1      40.500  39.199  66.010  1.00  0.00    -0.070 N 
HETATM   18  H   UNL     1      39.916  38.358  66.185  1.00  0.00     0.279 HD
HETATM   19  C   UNL     1      39.585  40.212  65.357  1.00  0.00     0.235 C 
HETATM   20  C   UNL     1      38.958  39.596  64.114  1.00  0.00     0.028 C 
HETATM   21  C   UNL     1      40.016  39.093  63.139  1.00  0.00     0.003 C 
HETATM   22  C   UNL     1      40.999  38.150  63.825  1.00  0.00     0.028 C 
HETATM   23  C   UNL     1      41.605  38.773  65.072  1.00  0.00     0.235 C 
ENDBRANCH  16  17
ENDBRANCH  15  16
ENDBRANCH  12  15
ENDBRANCH  10  11
ENDBRANCH   5  10
BRANCH   6  24
HETATM   24  C   UNL     1      39.754  45.545  64.560  1.00  0.00    -0.024 A 
HETATM   25  C   UNL     1      40.986  45.077  64.011  1.00  0.00    -0.053 A 
HETATM   26  C   UNL     1      42.296  45.821  64.139  1.00  0.00     0.049 C 
HETATM   27  C   UNL     1      41.013  43.894  63.253  1.00  0.00     0.008 A 
HETATM   28  C   UNL     1      39.856  43.156  63.035  1.00  0.00     0.007 A 
HETATM   29  C   UNL     1      38.643  43.589  63.561  1.00  0.00    -0.061 A 
HETATM   30  C   UNL     1      37.397  42.780  63.331  1.00  0.00     0.048 C 
HETATM   31  C   UNL     1      38.605  44.762  64.331  1.00  0.00     0.017 A 
ENDBRANCH   6  24
BRANCH   9  32
HETATM   32  C   UNL     1      37.209  47.292  65.274  1.00  0.00     0.293 C 
HETATM   33  O   UNL     1      36.643  47.581  64.230  1.00  0.00    -0.259 OA
BRANCH  32  34
HETATM   34  O   UNL     1      36.736  46.627  66.338  1.00  0.00    -0.323 OA
HETATM   35  C   UNL     1      35.522  47.140  66.901  1.00  0.00     0.213 C 
ENDBRANCH  32  34
ENDBRANCH   9  32
BRANCH   1  36
HETATM   36  C   UNL     1      37.678  49.975  66.409  1.00  0.00     0.056 C 
HETATM   37  C   UNL     1      38.157  51.382  66.077  1.00  0.00     0.011 C 
ENDBRANCH   1  36
TORSDOF 9
ENDMDL
MODEL 9
REMARK VINA RESULT:      -6.7      4.387      8.238
REMARK  9 active torsions:
REMARK  status: ('A' for Active; 'I' for Inactive)
REMARK    1  A    between atoms: C_2  and  C_3 
REMARK    2  A    between atoms: C_7  and  C_8 
REMARK    3  A    between atoms: C_8  and  C_9 
REMARK       I    between atoms: C_9  and  N_10 
REMARK    4  A    between atoms: N_10  and  C_11 
REMARK    5  A    between atoms: C_11  and  C_12 
REMARK    6  A    between atoms: C_12  and  N_13 
REMARK    7  A    between atoms: C_21  and  C_22 
REMARK    8  A    between atoms: C_32  and  C_33 
REMARK    9  A    between atoms: C_33  and  O_34 
ROOT
HETATM    1  C   UNL     1      17.522  47.616  45.560  1.00  0.00     0.051 C 
HETATM    2  N   UNL     1      18.250  48.112  44.475  1.00  0.00    -0.228 NA
HETATM    3  C   UNL     1      18.181  49.386  44.275  1.00  0.00     0.170 C 
HETATM    4  N   UNL     1      17.530  50.363  45.298  1.00  0.00    -0.318 N 
HETATM    5  C   UNL     1      16.922  51.316  44.669  1.00  0.00     0.011 C 
HETATM    6  C   UNL     1      17.720  49.797  46.648  1.00  0.00     0.166 C 
HETATM    7  S   UNL     1      18.566  50.194  42.805  1.00  0.00    -0.086 SA
HETATM    8  C   UNL     1      17.320  51.471  43.207  1.00  0.00     0.135 C 
HETATM    9  C   UNL     1      17.186  48.404  46.612  1.00  0.00     0.069 C 
ENDROOT
BRANCH   5  10
HETATM   10  C   UNL     1      15.868  52.160  45.326  1.00  0.00     0.156 C 
BRANCH  10  11
HETATM   11  C   UNL     1      14.462  51.727  44.954  1.00  0.00     0.223 C 
HETATM   12  N   UNL     1      14.137  50.419  45.203  1.00  0.00    -0.359 N 
HETATM   13  H   UNL     1      14.810  49.807  45.660  1.00  0.00     0.162 HD
HETATM   14  O   UNL     1      13.675  52.492  44.402  1.00  0.00    -0.273 OA
BRANCH  12  15
HETATM   15  C   UNL     1      12.935  49.763  44.670  1.00  0.00     0.150 C 
BRANCH  15  16
HETATM   16  C   UNL     1      13.128  48.961  43.361  1.00  0.00     0.254 C 
BRANCH  16  17
HETATM   17  N   UNL     1      12.463  47.598  43.415  1.00  0.00    -0.070 N 
HETATM   18  H   UNL     1      11.449  47.754  43.251  1.00  0.00     0.279 HD
HETATM   19  C   UNL     1      12.922  46.661  42.320  1.00  0.00     0.235 C 
HETATM   20  C   UNL     1      12.067  45.401  42.344  1.00  0.00     0.028 C 
HETATM   21  C   UNL     1      12.102  44.723  43.708  1.00  0.00     0.003 C 
HETATM   22  C   UNL     1      11.737  45.697  44.823  1.00  0.00     0.028 C 
HETATM   23  C   UNL     1      12.590  46.956  44.776  1.00  0.00     0.235 C 
ENDBRANCH  16  17
ENDBRANCH  15  16
ENDBRANCH  12  15
ENDBRANCH  10  11
ENDBRANCH   5  10
BRANCH   6  24
HETATM   24  C   UNL     1      17.578  50.789  47.799  1.00  0.00    -0.024 A 
HETATM   25  C   UNL     1      18.743  51.374  48.381  1.00  0.00    -0.053 A 
HETATM   26  C   UNL     1      20.153  51.029  47.958  1.00  0.00     0.049 C 
HETATM   27  C   UNL     1      18.615  52.280  49.448  1.00  0.00     0.008 A 
HETATM   28  C   UNL     1      17.367  52.631  49.946  1.00  0.00     0.007 A 
HETATM   29  C   UNL     1      16.215  52.076  49.394  1.00  0.00    -0.061 A 
HETATM   30  C   UNL     1      14.867  52.469  49.930  1.00  0.00     0.048 C 
HETATM   31  C   UNL     1      16.328  51.181  48.319  1.00  0.00     0.017 A 
ENDBRANCH   6  24
BRANCH   9  32
HETATM   32  C   UNL     1      16.088  48.011  47.484  1.00  0.00     0.293 C 
HETATM   33  O   UNL     1      14.973  48.481  47.311  1.00  0.00    -0.259 OA
BRANCH  32  34
HETATM   34  O   UNL     1      16.520  47.188  48.451  1.00  0.00    -0.323 OA
HETATM   35  C   UNL     1      17.529  47.725  49.316  1.00  0.00     0.213 C 
ENDBRANCH  32  34
ENDBRANCH   9  32
BRANCH   1  36
HETATM   36  C   UNL     1      17.053  46.182  45.379  1.00  0.00     0.056 C 
HETATM   37  C   UNL     1      16.048  46.052  44.243  1.00  0.00     0.011 C 
ENDBRANCH   1  36
TORSDOF 9
ENDMDL
MODEL 10
REMARK VINA RESULT:      -6.6     27.283     29.350
REMARK  9 active torsions:
REMARK  status: ('A' for Active; 'I' for Inactive)
REMARK    1  A    between atoms: C_2  and  C_3 
REMARK    2  A    between atoms: C_7  and  C_8 
REMARK    3  A    between atoms: C_8  and  C_9 
REMARK       I    between atoms: C_9  and  N_10 
REMARK    4  A    between atoms: N_10  and  C_11 
REMARK    5  A    between atoms: C_11  and  C_12 
REMARK    6  A    between atoms: C_12  and  N_13 
REMARK    7  A    between atoms: C_21  and  C_22 
REMARK    8  A    between atoms: C_32  and  C_33 
REMARK    9  A    between atoms: C_33  and  O_34 
ROOT
HETATM    1  C   UNL     1      38.862  49.011  65.877  1.00  0.00     0.051 C 
HETATM    2  N   UNL     1      40.023  49.192  66.635  1.00  0.00    -0.228 NA
HETATM    3  C   UNL     1      40.593  48.119  67.072  1.00  0.00     0.170 C 
HETATM    4  N   UNL     1      40.173  46.694  66.606  1.00  0.00    -0.318 N 
HETATM    5  C   UNL     1      40.274  45.862  67.591  1.00  0.00     0.011 C 
HETATM    6  C   UNL     1      39.676  46.800  65.220  1.00  0.00     0.166 C 
HETATM    7  S   UNL     1      41.719  48.039  68.372  1.00  0.00    -0.086 SA
HETATM    8  C   UNL     1      41.117  46.356  68.760  1.00  0.00     0.135 C 
HETATM    9  C   UNL     1      38.615  47.849  65.220  1.00  0.00     0.069 C 
ENDROOT
BRANCH   5  10
HETATM   10  C   UNL     1      39.565  44.538  67.594  1.00  0.00     0.156 C 
BRANCH  10  11
HETATM   11  C   UNL     1      38.404  44.503  68.571  1.00  0.00     0.223 C 
HETATM   12  N   UNL     1      37.484  45.514  68.467  1.00  0.00    -0.359 N 
HETATM   13  H   UNL     1      37.577  46.211  67.730  1.00  0.00     0.162 HD
HETATM   14  O   UNL     1      38.324  43.648  69.449  1.00  0.00    -0.273 OA
BRANCH  12  15
HETATM   15  C   UNL     1      36.460  45.791  69.484  1.00  0.00     0.150 C 
BRANCH  15  16
HETATM   16  C   UNL     1      36.734  47.003  70.405  1.00  0.00     0.254 C 
BRANCH  16  17
HETATM   17  N   UNL     1      35.991  48.249  69.958  1.00  0.00    -0.070 N 
HETATM   18  H   UNL     1      35.664  48.068  68.989  1.00  0.00     0.279 HD
HETATM   19  C   UNL     1      34.748  48.533  70.771  1.00  0.00     0.235 C 
HETATM   20  C   UNL     1      33.980  49.681  70.131  1.00  0.00     0.028 C 
HETATM   21  C   UNL     1      34.845  50.926  69.983  1.00  0.00     0.003 C 
HETATM   22  C   UNL     1      36.146  50.615  69.251  1.00  0.00     0.028 C 
HETATM   23  C   UNL     1      36.895  49.458  69.894  1.00  0.00     0.235 C 
ENDBRANCH  16  17
ENDBRANCH  15  16
ENDBRANCH  12  15
ENDBRANCH  10  11
ENDBRANCH   5  10
BRANCH   6  24
HETATM   24  C   UNL     1      39.654  45.494  64.432  1.00  0.00    -0.024 A 
HETATM   25  C   UNL     1      40.867  44.965  63.898  1.00  0.00    -0.053 A 
HETATM   26  C   UNL     1      42.206  45.657  64.018  1.00  0.00     0.049 C 
HETATM   27  C   UNL     1      40.848  43.767  63.162  1.00  0.00     0.008 A 
HETATM   28  C   UNL     1      39.663  43.074  62.952  1.00  0.00     0.007 A 
HETATM   29  C   UNL     1      38.466  43.567  63.464  1.00  0.00    -0.061 A 
HETATM   30  C   UNL     1      37.189  42.805  63.243  1.00  0.00     0.048 C 
HETATM   31  C   UNL     1      38.474  44.755  64.212  1.00  0.00     0.017 A 
ENDBRANCH   6  24
BRANCH   9  32
HETATM   32  C   UNL     1      37.252  47.522  64.824  1.00  0.00     0.293 C 
HETATM   33  O   UNL     1      36.832  47.877  63.733  1.00  0.00    -0.259 OA
BRANCH  32  34
HETATM   34  O   UNL     1      36.604  46.900  65.820  1.00  0.00    -0.323 OA
HETATM   35  C   UNL     1      35.488  47.609  66.372  1.00  0.00     0.213 C 
ENDBRANCH  32  34
ENDBRANCH   9  32
BRANCH   1  36
HETATM   36  C   UNL     1      37.881  50.167  65.973  1.00  0.00     0.056 C 
HETATM   37  C   UNL     1      38.552  51.444  66.458  1.00  0.00     0.011 C 
ENDBRANCH   1  36
TORSDOF 9
ENDMDL
