MODEL 1
REMARK VINA RESULT:     -11.1      0.000      0.000
REMARK  4 active torsions:
REMARK  status: ('A' for Active; 'I' for Inactive)
REMARK       I    between atoms: N_10  and  C_11 
REMARK    1  A    between atoms: C_11  and  C_12 
REMARK    2  A    between atoms: C_14  and  O_15 
REMARK    3  A    between atoms: O_15  and  C_16 
REMARK    4  A    between atoms: C_16  and  C_17 
ROOT
HETATM    1  C   UNL     1      26.212  45.551  49.782  1.00  0.00     0.034 A 
HETATM    2  C   UNL     1      24.908  46.042  49.925  1.00  0.00     0.053 A 
HETATM    3  C   UNL     1      24.668  47.409  49.786  1.00  0.00     0.070 A 
HETATM    4  C   UNL     1      25.739  48.270  49.521  1.00  0.00     0.037 A 
HETATM    5  C   UNL     1      27.043  47.783  49.411  1.00  0.00     0.004 A 
HETATM    6  C   UNL     1      27.284  46.419  49.552  1.00  0.00     0.017 A 
ENDROOT
BRANCH   1   7
HETATM    7  C   UNL     1      26.446  44.101  49.963  1.00  0.00     0.254 C 
HETATM    8  N   UNL     1      26.896  43.634  51.194  1.00  0.00    -0.343 N 
HETATM    9  C   UNL     1      27.291  44.510  52.320  1.00  0.00     0.167 C 
HETATM   10  C   UNL     1      26.884  42.177  51.435  1.00  0.00     0.132 C 
HETATM   11  C   UNL     1      28.314  43.841  53.180  1.00  0.00    -0.005 A 
HETATM   12  C   UNL     1      29.012  44.346  54.316  1.00  0.00     0.000 A 
HETATM   13  C   UNL     1      28.737  42.543  52.994  1.00  0.00     0.020 A 
HETATM   14  C   UNL     1      29.014  45.577  55.003  1.00  0.00     0.014 A 
HETATM   15  C   UNL     1      29.842  43.320  54.778  1.00  0.00     0.043 A 
HETATM   16  C   UNL     1      29.839  45.738  56.122  1.00  0.00     0.001 A 
HETATM   17  C   UNL     1      30.654  44.697  56.562  1.00  0.00     0.002 A 
HETATM   18  C   UNL     1      30.672  43.467  55.897  1.00  0.00     0.030 A 
HETATM   19  N   UNL     1      29.663  42.235  53.946  1.00  0.00    -0.358 N 
HETATM   20  H   UNL     1      30.144  41.351  54.043  1.00  0.00     0.166 HD
HETATM   21  C   UNL     1      28.247  41.644  51.918  1.00  0.00     0.077 C 
HETATM   22  O   UNL     1      26.224  43.375  48.997  1.00  0.00    -0.267 OA
ENDBRANCH   1   7
BRANCH   3  23
HETATM   23  O   UNL     1      23.456  48.031  49.885  1.00  0.00    -0.345 OA
BRANCH  23  24
HETATM   24  C   UNL     1      22.587  47.967  48.747  1.00  0.00     0.236 C 
BRANCH  24  25
HETATM   25  C   UNL     1      21.428  48.900  48.905  1.00  0.00     0.077 A 
HETATM   26  N   UNL     1      21.495  50.194  48.426  1.00  0.00    -0.232 NA
HETATM   27  C   UNL     1      20.343  50.748  48.741  1.00  0.00     0.134 A 
HETATM   28  N   UNL     1      19.513  49.853  49.406  1.00  0.00    -0.316 N 
HETATM   29  C   UNL     1      19.839  52.064  48.529  1.00  0.00     0.051 A 
HETATM   30  C   UNL     1      20.200  48.671  49.497  1.00  0.00     0.127 A 
HETATM   31  C   UNL     1      18.239  50.178  49.864  1.00  0.00     0.098 A 
HETATM   32  C   UNL     1      17.770  51.421  49.665  1.00  0.00     0.018 A 
HETATM   33  C   UNL     1      18.608  52.388  48.971  1.00  0.00     0.005 A 
ENDBRANCH  24  25
ENDBRANCH  23  24
ENDBRANCH   3  23
TORSDOF 4
ENDMDL
MODEL 2
REMARK VINA RESULT:     -10.4      2.249     10.760
REMARK  4 active torsions:
REMARK  status: ('A' for Active; 'I' for Inactive)
REMARK       I    between atoms: N_10  and  C_11 
REMARK    1  A    between atoms: C_11  and  C_12 
REMARK    2  A    between atoms: C_14  and  O_15 
REMARK    3  A    between atoms: O_15  and  C_16 
REMARK    4  A    between atoms: C_16  and  C_17 
ROOT
HETATM    1  C   UNL     1      25.074  47.071  50.164  1.00  0.00     0.034 A 
HETATM    2  C   UNL     1      25.374  47.123  51.532  1.00  0.00     0.053 A 
HETATM    3  C   UNL     1      25.318  45.956  52.293  1.00  0.00     0.070 A 
HETATM    4  C   UNL     1      24.948  44.754  51.680  1.00  0.00     0.037 A 
HETATM    5  C   UNL     1      24.618  44.710  50.325  1.00  0.00     0.004 A 
HETATM    6  C   UNL     1      24.671  45.874  49.564  1.00  0.00     0.017 A 
ENDROOT
BRANCH   1   7
HETATM    7  C   UNL     1      25.112  48.328  49.384  1.00  0.00     0.254 C 
HETATM    8  N   UNL     1      23.939  49.058  49.215  1.00  0.00    -0.343 N 
HETATM    9  C   UNL     1      22.604  48.596  49.656  1.00  0.00     0.167 C 
HETATM   10  C   UNL     1      24.040  50.421  48.655  1.00  0.00     0.132 C 
HETATM   11  C   UNL     1      21.529  49.181  48.797  1.00  0.00    -0.005 A 
HETATM   12  C   UNL     1      20.122  48.951  48.824  1.00  0.00     0.000 A 
HETATM   13  C   UNL     1      21.765  50.107  47.804  1.00  0.00     0.020 A 
HETATM   14  C   UNL     1      19.273  48.139  49.602  1.00  0.00     0.014 A 
HETATM   15  C   UNL     1      19.555  49.757  47.832  1.00  0.00     0.043 A 
HETATM   16  C   UNL     1      17.894  48.162  49.365  1.00  0.00     0.001 A 
HETATM   17  C   UNL     1      17.356  48.977  48.371  1.00  0.00     0.002 A 
HETATM   18  C   UNL     1      18.176  49.790  47.584  1.00  0.00     0.030 A 
HETATM   19  N   UNL     1      20.581  50.443  47.217  1.00  0.00    -0.358 N 
HETATM   20  H   UNL     1      20.460  51.097  46.456  1.00  0.00     0.166 HD
HETATM   21  C   UNL     1      23.107  50.637  47.448  1.00  0.00     0.077 C 
HETATM   22  O   UNL     1      26.199  48.664  48.920  1.00  0.00    -0.267 OA
ENDBRANCH   1   7
BRANCH   3  23
HETATM   23  O   UNL     1      25.593  45.847  53.627  1.00  0.00    -0.345 OA
BRANCH  23  24
HETATM   24  C   UNL     1      26.519  46.787  54.188  1.00  0.00     0.236 C 
BRANCH  24  25
HETATM   25  C   UNL     1      27.694  46.086  54.792  1.00  0.00     0.077 A 
HETATM   26  N   UNL     1      28.170  44.910  54.243  1.00  0.00    -0.232 NA
HETATM   27  C   UNL     1      29.176  44.544  55.010  1.00  0.00     0.134 A 
HETATM   28  N   UNL     1      29.385  45.450  56.043  1.00  0.00    -0.316 N 
HETATM   29  C   UNL     1      30.039  43.411  54.958  1.00  0.00     0.051 A 
HETATM   30  C   UNL     1      28.449  46.440  55.894  1.00  0.00     0.127 A 
HETATM   31  C   UNL     1      30.377  45.303  57.009  1.00  0.00     0.098 A 
HETATM   32  C   UNL     1      31.186  44.232  56.957  1.00  0.00     0.018 A 
HETATM   33  C   UNL     1      31.001  43.260  55.890  1.00  0.00     0.005 A 
ENDBRANCH  24  25
ENDBRANCH  23  24
ENDBRANCH   3  23
TORSDOF 4
ENDMDL
MODEL 3
REMARK VINA RESULT:     -10.3      1.663      2.570
REMARK  4 active torsions:
REMARK  status: ('A' for Active; 'I' for Inactive)
REMARK       I    between atoms: N_10  and  C_11 
REMARK    1  A    between atoms: C_11  and  C_12 
REMARK    2  A    between atoms: C_14  and  O_15 
REMARK    3  A    between atoms: O_15  and  C_16 
REMARK    4  A    between atoms: C_16  and  C_17 
ROOT
HETATM    1  C   UNL     1      25.710  42.870  50.470  1.00  0.00     0.034 A 
HETATM    2  C   UNL     1      25.984  44.171  50.027  1.00  0.00     0.053 A 
HETATM    3  C   UNL     1      24.929  45.030  49.720  1.00  0.00     0.070 A 
HETATM    4  C   UNL     1      23.612  44.572  49.844  1.00  0.00     0.037 A 
HETATM    5  C   UNL     1      23.342  43.265  50.254  1.00  0.00     0.004 A 
HETATM    6  C   UNL     1      24.393  42.406  50.559  1.00  0.00     0.017 A 
ENDROOT
BRANCH   1   7
HETATM    7  C   UNL     1      26.846  41.969  50.762  1.00  0.00     0.254 C 
HETATM    8  N   UNL     1      27.504  42.080  51.983  1.00  0.00    -0.343 N 
HETATM    9  C   UNL     1      27.231  43.140  52.979  1.00  0.00     0.167 C 
HETATM   10  C   UNL     1      28.461  41.020  52.358  1.00  0.00     0.132 C 
HETATM   11  C   UNL     1      28.450  43.427  53.796  1.00  0.00    -0.005 A 
HETATM   12  C   UNL     1      28.651  44.410  54.808  1.00  0.00     0.000 A 
HETATM   13  C   UNL     1      29.624  42.712  53.693  1.00  0.00     0.020 A 
HETATM   14  C   UNL     1      27.845  45.419  55.373  1.00  0.00     0.014 A 
HETATM   15  C   UNL     1      29.957  44.252  55.282  1.00  0.00     0.043 A 
HETATM   16  C   UNL     1      28.368  46.228  56.389  1.00  0.00     0.001 A 
HETATM   17  C   UNL     1      29.672  46.046  56.844  1.00  0.00     0.002 A 
HETATM   18  C   UNL     1      30.492  45.054  56.299  1.00  0.00     0.030 A 
HETATM   19  N   UNL     1      30.532  43.216  54.576  1.00  0.00    -0.358 N 
HETATM   20  H   UNL     1      31.478  42.887  54.709  1.00  0.00     0.166 HD
HETATM   21  C   UNL     1      29.841  41.580  52.757  1.00  0.00     0.077 C 
HETATM   22  O   UNL     1      27.149  41.154  49.893  1.00  0.00    -0.267 OA
ENDBRANCH   1   7
BRANCH   3  23
HETATM   23  O   UNL     1      25.038  46.323  49.290  1.00  0.00    -0.345 OA
BRANCH  23  24
HETATM   24  C   UNL     1      24.568  47.351  50.169  1.00  0.00     0.236 C 
BRANCH  24  25
HETATM   25  C   UNL     1      23.465  48.137  49.533  1.00  0.00     0.077 A 
HETATM   26  N   UNL     1      23.356  49.498  49.748  1.00  0.00    -0.232 NA
HETATM   27  C   UNL     1      22.287  49.877  49.080  1.00  0.00     0.134 A 
HETATM   28  N   UNL     1      21.694  48.807  48.419  1.00  0.00    -0.316 N 
HETATM   29  C   UNL     1      21.663  51.150  48.939  1.00  0.00     0.051 A 
HETATM   30  C   UNL     1      22.454  47.701  48.697  1.00  0.00     0.127 A 
HETATM   31  C   UNL     1      20.541  48.921  47.646  1.00  0.00     0.098 A 
HETATM   32  C   UNL     1      19.955  50.124  47.520  1.00  0.00     0.018 A 
HETATM   33  C   UNL     1      20.546  51.270  48.195  1.00  0.00     0.005 A 
ENDBRANCH  24  25
ENDBRANCH  23  24
ENDBRANCH   3  23
TORSDOF 4
ENDMDL
MODEL 4
REMARK VINA RESULT:     -10.2      3.338      4.953
REMARK  4 active torsions:
REMARK  status: ('A' for Active; 'I' for Inactive)
REMARK       I    between atoms: N_10  and  C_11 
REMARK    1  A    between atoms: C_11  and  C_12 
REMARK    2  A    between atoms: C_14  and  O_15 
REMARK    3  A    between atoms: O_15  and  C_16 
REMARK    4  A    between atoms: C_16  and  C_17 
ROOT
HETATM    1  C   UNL     1      26.341  41.381  50.264  1.00  0.00     0.034 A 
HETATM    2  C   UNL     1      25.600  42.555  50.453  1.00  0.00     0.053 A 
HETATM    3  C   UNL     1      24.564  42.864  49.573  1.00  0.00     0.070 A 
HETATM    4  C   UNL     1      24.291  42.003  48.504  1.00  0.00     0.037 A 
HETATM    5  C   UNL     1      25.050  40.850  48.298  1.00  0.00     0.004 A 
HETATM    6  C   UNL     1      26.087  40.541  49.175  1.00  0.00     0.017 A 
ENDROOT
BRANCH   1   7
HETATM    7  C   UNL     1      27.455  41.090  51.193  1.00  0.00     0.254 C 
HETATM    8  N   UNL     1      27.606  41.867  52.337  1.00  0.00    -0.343 N 
HETATM    9  C   UNL     1      26.798  43.071  52.634  1.00  0.00     0.167 C 
HETATM   10  C   UNL     1      28.557  41.411  53.370  1.00  0.00     0.132 C 
HETATM   11  C   UNL     1      27.569  44.033  53.480  1.00  0.00    -0.005 A 
HETATM   12  C   UNL     1      27.203  45.334  53.935  1.00  0.00     0.000 A 
HETATM   13  C   UNL     1      28.820  43.765  53.993  1.00  0.00     0.020 A 
HETATM   14  C   UNL     1      26.069  46.153  53.765  1.00  0.00     0.014 A 
HETATM   15  C   UNL     1      28.263  45.809  54.714  1.00  0.00     0.043 A 
HETATM   16  C   UNL     1      26.031  47.410  54.378  1.00  0.00     0.001 A 
HETATM   17  C   UNL     1      27.100  47.857  55.152  1.00  0.00     0.002 A 
HETATM   18  C   UNL     1      28.238  47.066  55.334  1.00  0.00     0.030 A 
HETATM   19  N   UNL     1      29.241  44.837  54.723  1.00  0.00    -0.358 N 
HETATM   20  H   UNL     1      30.125  44.916  55.207  1.00  0.00     0.166 HD
HETATM   21  C   UNL     1      29.570  42.503  53.768  1.00  0.00     0.077 C 
HETATM   22  O   UNL     1      28.198  40.157  50.898  1.00  0.00    -0.267 OA
ENDBRANCH   1   7
BRANCH   3  23
HETATM   23  O   UNL     1      23.750  43.961  49.635  1.00  0.00    -0.345 OA
BRANCH  23  24
HETATM   24  C   UNL     1      24.011  44.917  50.670  1.00  0.00     0.236 C 
BRANCH  24  25
HETATM   25  C   UNL     1      24.606  46.168  50.106  1.00  0.00     0.077 A 
HETATM   26  N   UNL     1      25.971  46.382  50.151  1.00  0.00    -0.232 NA
HETATM   27  C   UNL     1      26.162  47.564  49.605  1.00  0.00     0.134 A 
HETATM   28  N   UNL     1      24.963  48.132  49.189  1.00  0.00    -0.316 N 
HETATM   29  C   UNL     1      27.347  48.324  49.390  1.00  0.00     0.051 A 
HETATM   30  C   UNL     1      23.974  47.236  49.496  1.00  0.00     0.127 A 
HETATM   31  C   UNL     1      24.871  49.385  48.587  1.00  0.00     0.098 A 
HETATM   32  C   UNL     1      25.992  50.099  48.391  1.00  0.00     0.018 A 
HETATM   33  C   UNL     1      27.268  49.538  48.810  1.00  0.00     0.005 A 
ENDBRANCH  24  25
ENDBRANCH  23  24
ENDBRANCH   3  23
TORSDOF 4
ENDMDL
MODEL 5
REMARK VINA RESULT:     -10.1      2.186     10.176
REMARK  4 active torsions:
REMARK  status: ('A' for Active; 'I' for Inactive)
REMARK       I    between atoms: N_10  and  C_11 
REMARK    1  A    between atoms: C_11  and  C_12 
REMARK    2  A    between atoms: C_14  and  O_15 
REMARK    3  A    between atoms: O_15  and  C_16 
REMARK    4  A    between atoms: C_16  and  C_17 
ROOT
HETATM    1  C   UNL     1      24.187  44.520  49.806  1.00  0.00     0.034 A 
HETATM    2  C   UNL     1      24.293  45.235  51.007  1.00  0.00     0.053 A 
HETATM    3  C   UNL     1      25.554  45.542  51.516  1.00  0.00     0.070 A 
HETATM    4  C   UNL     1      26.695  45.117  50.826  1.00  0.00     0.037 A 
HETATM    5  C   UNL     1      26.588  44.377  49.647  1.00  0.00     0.004 A 
HETATM    6  C   UNL     1      25.330  44.068  49.139  1.00  0.00     0.017 A 
ENDROOT
BRANCH   1   7
HETATM    7  C   UNL     1      22.838  44.181  49.301  1.00  0.00     0.254 C 
HETATM    8  N   UNL     1      22.075  45.169  48.687  1.00  0.00    -0.343 N 
HETATM    9  C   UNL     1      22.467  46.594  48.614  1.00  0.00     0.167 C 
HETATM   10  C   UNL     1      20.849  44.760  47.972  1.00  0.00     0.132 C 
HETATM   11  C   UNL     1      21.260  47.474  48.546  1.00  0.00    -0.005 A 
HETATM   12  C   UNL     1      21.175  48.897  48.535  1.00  0.00     0.000 A 
HETATM   13  C   UNL     1      19.970  46.995  48.453  1.00  0.00     0.020 A 
HETATM   14  C   UNL     1      22.122  49.939  48.593  1.00  0.00     0.014 A 
HETATM   15  C   UNL     1      19.820  49.227  48.437  1.00  0.00     0.043 A 
HETATM   16  C   UNL     1      21.685  51.268  48.548  1.00  0.00     0.001 A 
HETATM   17  C   UNL     1      20.328  51.568  48.447  1.00  0.00     0.002 A 
HETATM   18  C   UNL     1      19.369  50.553  48.391  1.00  0.00     0.030 A 
HETATM   19  N   UNL     1      19.106  48.048  48.400  1.00  0.00    -0.358 N 
HETATM   20  H   UNL     1      18.100  47.987  48.336  1.00  0.00     0.166 HD
HETATM   21  C   UNL     1      19.608  45.555  48.421  1.00  0.00     0.077 C 
HETATM   22  O   UNL     1      22.460  43.021  49.455  1.00  0.00    -0.267 OA
ENDBRANCH   1   7
BRANCH   3  23
HETATM   23  O   UNL     1      25.815  46.239  52.662  1.00  0.00    -0.345 OA
BRANCH  23  24
HETATM   24  C   UNL     1      25.705  45.531  53.903  1.00  0.00     0.236 C 
BRANCH  24  25
HETATM   25  C   UNL     1      27.056  45.190  54.447  1.00  0.00     0.077 A 
HETATM   26  N   UNL     1      27.681  44.009  54.092  1.00  0.00    -0.232 NA
HETATM   27  C   UNL     1      28.822  44.002  54.750  1.00  0.00     0.134 A 
HETATM   28  N   UNL     1      28.973  45.149  55.519  1.00  0.00    -0.316 N 
HETATM   29  C   UNL     1      29.874  43.042  54.803  1.00  0.00     0.051 A 
HETATM   30  C   UNL     1      27.854  45.913  55.315  1.00  0.00     0.127 A 
HETATM   31  C   UNL     1      30.083  45.397  56.324  1.00  0.00     0.098 A 
HETATM   32  C   UNL     1      31.070  44.487  56.373  1.00  0.00     0.018 A 
HETATM   33  C   UNL     1      30.950  43.272  55.580  1.00  0.00     0.005 A 
ENDBRANCH  24  25
ENDBRANCH  23  24
ENDBRANCH   3  23
TORSDOF 4
ENDMDL
MODEL 6
REMARK VINA RESULT:      -9.7      3.199      4.848
REMARK  4 active torsions:
REMARK  status: ('A' for Active; 'I' for Inactive)
REMARK       I    between atoms: N_10  and  C_11 
REMARK    1  A    between atoms: C_11  and  C_12 
REMARK    2  A    between atoms: C_14  and  O_15 
REMARK    3  A    between atoms: O_15  and  C_16 
REMARK    4  A    between atoms: C_16  and  C_17 
ROOT
HETATM    1  C   UNL     1      27.006  41.027  49.920  1.00  0.00     0.034 A 
HETATM    2  C   UNL     1      25.643  41.261  50.148  1.00  0.00     0.053 A 
HETATM    3  C   UNL     1      24.800  41.523  49.068  1.00  0.00     0.070 A 
HETATM    4  C   UNL     1      25.333  41.562  47.775  1.00  0.00     0.037 A 
HETATM    5  C   UNL     1      26.696  41.360  47.552  1.00  0.00     0.004 A 
HETATM    6  C   UNL     1      27.540  41.101  48.629  1.00  0.00     0.017 A 
ENDROOT
BRANCH   1   7
HETATM    7  C   UNL     1      27.886  40.780  51.083  1.00  0.00     0.254 C 
HETATM    8  N   UNL     1      27.790  41.611  52.195  1.00  0.00    -0.343 N 
HETATM    9  C   UNL     1      26.948  42.827  52.252  1.00  0.00     0.167 C 
HETATM   10  C   UNL     1      28.487  41.205  53.432  1.00  0.00     0.132 C 
HETATM   11  C   UNL     1      27.524  43.828  53.201  1.00  0.00    -0.005 A 
HETATM   12  C   UNL     1      27.080  45.148  53.504  1.00  0.00     0.000 A 
HETATM   13  C   UNL     1      28.630  43.586  53.988  1.00  0.00     0.020 A 
HETATM   14  C   UNL     1      26.019  45.958  53.052  1.00  0.00     0.014 A 
HETATM   15  C   UNL     1      27.948  45.661  54.474  1.00  0.00     0.043 A 
HETATM   16  C   UNL     1      25.860  47.243  53.583  1.00  0.00     0.001 A 
HETATM   17  C   UNL     1      26.738  47.727  54.551  1.00  0.00     0.002 A 
HETATM   18  C   UNL     1      27.800  46.946  55.014  1.00  0.00     0.030 A 
HETATM   19  N   UNL     1      28.891  44.691  54.742  1.00  0.00    -0.358 N 
HETATM   20  H   UNL     1      29.648  44.793  55.404  1.00  0.00     0.166 HD
HETATM   21  C   UNL     1      29.399  42.315  53.991  1.00  0.00     0.077 C 
HETATM   22  O   UNL     1      28.667  39.835  51.002  1.00  0.00    -0.267 OA
ENDBRANCH   1   7
BRANCH   3  23
HETATM   23  O   UNL     1      23.456  41.759  49.131  1.00  0.00    -0.345 OA
BRANCH  23  24
HETATM   24  C   UNL     1      22.987  42.627  50.171  1.00  0.00     0.236 C 
BRANCH  24  25
HETATM   25  C   UNL     1      23.097  44.061  49.760  1.00  0.00     0.077 A 
HETATM   26  N   UNL     1      24.087  44.870  50.287  1.00  0.00    -0.232 NA
HETATM   27  C   UNL     1      23.896  46.057  49.750  1.00  0.00     0.134 A 
HETATM   28  N   UNL     1      22.815  46.052  48.875  1.00  0.00    -0.316 N 
HETATM   29  C   UNL     1      24.583  47.293  49.923  1.00  0.00     0.051 A 
HETATM   30  C   UNL     1      22.316  44.776  48.871  1.00  0.00     0.127 A 
HETATM   31  C   UNL     1      22.384  47.177  48.177  1.00  0.00     0.098 A 
HETATM   32  C   UNL     1      23.034  48.341  48.347  1.00  0.00     0.018 A 
HETATM   33  C   UNL     1      24.171  48.387  49.254  1.00  0.00     0.005 A 
ENDBRANCH  24  25
ENDBRANCH  23  24
ENDBRANCH   3  23
TORSDOF 4
ENDMDL
MODEL 7
REMARK VINA RESULT:      -9.7      1.849     11.115
REMARK  4 active torsions:
REMARK  status: ('A' for Active; 'I' for Inactive)
REMARK       I    between atoms: N_10  and  C_11 
REMARK    1  A    between atoms: C_11  and  C_12 
REMARK    2  A    between atoms: C_14  and  O_15 
REMARK    3  A    between atoms: O_15  and  C_16 
REMARK    4  A    between atoms: C_16  and  C_17 
ROOT
HETATM    1  C   UNL     1      23.835  47.473  49.595  1.00  0.00     0.034 A 
HETATM    2  C   UNL     1      24.529  47.134  50.764  1.00  0.00     0.053 A 
HETATM    3  C   UNL     1      24.726  45.791  51.082  1.00  0.00     0.070 A 
HETATM    4  C   UNL     1      24.213  44.803  50.235  1.00  0.00     0.037 A 
HETATM    5  C   UNL     1      23.495  45.142  49.087  1.00  0.00     0.004 A 
HETATM    6  C   UNL     1      23.295  46.482  48.769  1.00  0.00     0.017 A 
ENDROOT
BRANCH   1   7
HETATM    7  C   UNL     1      23.614  48.905  49.293  1.00  0.00     0.254 C 
HETATM    8  N   UNL     1      22.316  49.408  49.302  1.00  0.00    -0.343 N 
HETATM    9  C   UNL     1      21.105  48.573  49.465  1.00  0.00     0.167 C 
HETATM   10  C   UNL     1      22.135  50.872  49.248  1.00  0.00     0.132 C 
HETATM   11  C   UNL     1      19.932  49.202  48.784  1.00  0.00    -0.005 A 
HETATM   12  C   UNL     1      18.602  48.710  48.633  1.00  0.00     0.000 A 
HETATM   13  C   UNL     1      19.971  50.443  48.185  1.00  0.00     0.020 A 
HETATM   14  C   UNL     1      17.938  47.531  49.026  1.00  0.00     0.014 A 
HETATM   15  C   UNL     1      17.880  49.685  47.937  1.00  0.00     0.043 A 
HETATM   16  C   UNL     1      16.583  47.369  48.716  1.00  0.00     0.001 A 
HETATM   17  C   UNL     1      15.888  48.358  48.025  1.00  0.00     0.002 A 
HETATM   18  C   UNL     1      16.523  49.536  47.620  1.00  0.00     0.030 A 
HETATM   19  N   UNL     1      18.743  50.726  47.666  1.00  0.00    -0.358 N 
HETATM   20  H   UNL     1      18.489  51.567  47.167  1.00  0.00     0.166 HD
HETATM   21  C   UNL     1      21.175  51.310  48.125  1.00  0.00     0.077 C 
HETATM   22  O   UNL     1      24.609  49.584  49.049  1.00  0.00    -0.267 OA
ENDBRANCH   1   7
BRANCH   3  23
HETATM   23  O   UNL     1      25.389  45.308  52.175  1.00  0.00    -0.345 OA
BRANCH  23  24
HETATM   24  C   UNL     1      26.255  44.184  51.977  1.00  0.00     0.236 C 
BRANCH  24  25
HETATM   25  C   UNL     1      27.368  44.183  52.977  1.00  0.00     0.077 A 
HETATM   26  N   UNL     1      27.506  45.222  53.878  1.00  0.00    -0.232 NA
HETATM   27  C   UNL     1      28.577  44.935  54.588  1.00  0.00     0.134 A 
HETATM   28  N   UNL     1      29.143  43.729  54.189  1.00  0.00    -0.316 N 
HETATM   29  C   UNL     1      29.224  45.636  55.646  1.00  0.00     0.051 A 
HETATM   30  C   UNL     1      28.364  43.244  53.172  1.00  0.00     0.127 A 
HETATM   31  C   UNL     1      30.291  43.190  54.764  1.00  0.00     0.098 A 
HETATM   32  C   UNL     1      30.900  43.857  55.759  1.00  0.00     0.018 A 
HETATM   33  C   UNL     1      30.337  45.122  56.206  1.00  0.00     0.005 A 
ENDBRANCH  24  25
ENDBRANCH  23  24
ENDBRANCH   3  23
TORSDOF 4
ENDMDL
MODEL 8
REMARK VINA RESULT:      -9.5      3.280     10.258
REMARK  4 active torsions:
REMARK  status: ('A' for Active; 'I' for Inactive)
REMARK       I    between atoms: N_10  and  C_11 
REMARK    1  A    between atoms: C_11  and  C_12 
REMARK    2  A    between atoms: C_14  and  O_15 
REMARK    3  A    between atoms: O_15  and  C_16 
REMARK    4  A    between atoms: C_16  and  C_17 
ROOT
HETATM    1  C   UNL     1      22.020  49.738  49.158  1.00  0.00     0.034 A 
HETATM    2  C   UNL     1      22.926  48.751  49.569  1.00  0.00     0.053 A 
HETATM    3  C   UNL     1      24.235  48.776  49.089  1.00  0.00     0.070 A 
HETATM    4  C   UNL     1      24.618  49.779  48.192  1.00  0.00     0.037 A 
HETATM    5  C   UNL     1      23.706  50.743  47.759  1.00  0.00     0.004 A 
HETATM    6  C   UNL     1      22.398  50.718  48.235  1.00  0.00     0.017 A 
ENDROOT
BRANCH   1   7
HETATM    7  C   UNL     1      20.629  49.673  49.658  1.00  0.00     0.254 C 
HETATM    8  N   UNL     1      19.858  48.550  49.377  1.00  0.00    -0.343 N 
HETATM    9  C   UNL     1      20.290  47.449  48.487  1.00  0.00     0.167 C 
HETATM   10  C   UNL     1      18.572  48.390  50.086  1.00  0.00     0.132 C 
HETATM   11  C   UNL     1      19.110  46.787  47.850  1.00  0.00    -0.005 A 
HETATM   12  C   UNL     1      19.072  45.741  46.882  1.00  0.00     0.000 A 
HETATM   13  C   UNL     1      17.803  47.104  48.149  1.00  0.00     0.020 A 
HETATM   14  C   UNL     1      20.055  44.996  46.199  1.00  0.00     0.014 A 
HETATM   15  C   UNL     1      17.725  45.464  46.628  1.00  0.00     0.043 A 
HETATM   16  C   UNL     1      19.660  44.004  45.294  1.00  0.00     0.001 A 
HETATM   17  C   UNL     1      18.310  43.747  45.064  1.00  0.00     0.002 A 
HETATM   18  C   UNL     1      17.316  44.474  45.726  1.00  0.00     0.030 A 
HETATM   19  N   UNL     1      16.972  46.319  47.406  1.00  0.00    -0.358 N 
HETATM   20  H   UNL     1      15.962  46.343  47.420  1.00  0.00     0.166 HD
HETATM   21  C   UNL     1      17.391  48.144  49.126  1.00  0.00     0.077 C 
HETATM   22  O   UNL     1      20.224  50.635  50.308  1.00  0.00    -0.267 OA
ENDBRANCH   1   7
BRANCH   3  23
HETATM   23  O   UNL     1      25.229  47.894  49.406  1.00  0.00    -0.345 OA
BRANCH  23  24
HETATM   24  C   UNL     1      24.844  46.668  50.041  1.00  0.00     0.236 C 
BRANCH  24  25
HETATM   25  C   UNL     1      25.566  46.488  51.339  1.00  0.00     0.077 A 
HETATM   26  N   UNL     1      25.499  47.457  52.323  1.00  0.00    -0.232 NA
HETATM   27  C   UNL     1      26.249  47.012  53.309  1.00  0.00     0.134 A 
HETATM   28  N   UNL     1      26.800  45.771  53.010  1.00  0.00    -0.316 N 
HETATM   29  C   UNL     1      26.578  47.579  54.573  1.00  0.00     0.051 A 
HETATM   30  C   UNL     1      26.352  45.431  51.760  1.00  0.00     0.127 A 
HETATM   31  C   UNL     1      27.643  45.074  53.872  1.00  0.00     0.098 A 
HETATM   32  C   UNL     1      27.954  45.616  55.062  1.00  0.00     0.018 A 
HETATM   33  C   UNL     1      27.396  46.913  55.413  1.00  0.00     0.005 A 
ENDBRANCH  24  25
ENDBRANCH  23  24
ENDBRANCH   3  23
TORSDOF 4
ENDMDL
MODEL 9
REMARK VINA RESULT:      -9.5      1.595      2.214
REMARK  4 active torsions:
REMARK  status: ('A' for Active; 'I' for Inactive)
REMARK       I    between atoms: N_10  and  C_11 
REMARK    1  A    between atoms: C_11  and  C_12 
REMARK    2  A    between atoms: C_14  and  O_15 
REMARK    3  A    between atoms: O_15  and  C_16 
REMARK    4  A    between atoms: C_16  and  C_17 
ROOT
HETATM    1  C   UNL     1      24.430  46.665  49.344  1.00  0.00     0.034 A 
HETATM    2  C   UNL     1      23.134  47.168  49.165  1.00  0.00     0.053 A 
HETATM    3  C   UNL     1      22.948  48.536  48.963  1.00  0.00     0.070 A 
HETATM    4  C   UNL     1      24.060  49.386  48.959  1.00  0.00     0.037 A 
HETATM    5  C   UNL     1      25.347  48.888  49.170  1.00  0.00     0.004 A 
HETATM    6  C   UNL     1      25.534  47.524  49.373  1.00  0.00     0.017 A 
ENDROOT
BRANCH   1   7
HETATM    7  C   UNL     1      24.599  45.215  49.585  1.00  0.00     0.254 C 
HETATM    8  N   UNL     1      25.071  44.783  50.820  1.00  0.00    -0.343 N 
HETATM    9  C   UNL     1      25.550  45.689  51.888  1.00  0.00     0.167 C 
HETATM   10  C   UNL     1      24.997  43.341  51.130  1.00  0.00     0.132 C 
HETATM   11  C   UNL     1      26.571  45.008  52.743  1.00  0.00    -0.005 A 
HETATM   12  C   UNL     1      27.335  45.528  53.828  1.00  0.00     0.000 A 
HETATM   13  C   UNL     1      26.923  43.683  52.604  1.00  0.00     0.020 A 
HETATM   14  C   UNL     1      27.423  46.788  54.455  1.00  0.00     0.014 A 
HETATM   15  C   UNL     1      28.131  44.483  54.309  1.00  0.00     0.043 A 
HETATM   16  C   UNL     1      28.296  46.958  55.536  1.00  0.00     0.001 A 
HETATM   17  C   UNL     1      29.075  45.898  55.995  1.00  0.00     0.002 A 
HETATM   18  C   UNL     1      29.009  44.640  55.390  1.00  0.00     0.030 A 
HETATM   19  N   UNL     1      27.868  43.372  53.536  1.00  0.00    -0.358 N 
HETATM   20  H   UNL     1      28.308  42.471  53.657  1.00  0.00     0.166 HD
HETATM   21  C   UNL     1      26.349  42.762  51.589  1.00  0.00     0.077 C 
HETATM   22  O   UNL     1      24.305  44.459  48.662  1.00  0.00    -0.267 OA
ENDBRANCH   1   7
BRANCH   3  23
HETATM   23  O   UNL     1      21.754  49.168  48.764  1.00  0.00    -0.345 OA
BRANCH  23  24
HETATM   24  C   UNL     1      20.567  48.484  49.185  1.00  0.00     0.236 C 
BRANCH  24  25
HETATM   25  C   UNL     1      19.381  49.395  49.146  1.00  0.00     0.077 A 
HETATM   26  N   UNL     1      19.439  50.651  49.720  1.00  0.00    -0.232 NA
HETATM   27  C   UNL     1      18.247  51.178  49.539  1.00  0.00     0.134 A 
HETATM   28  N   UNL     1      17.406  50.310  48.851  1.00  0.00    -0.316 N 
HETATM   29  C   UNL     1      17.702  52.436  49.927  1.00  0.00     0.051 A 
HETATM   30  C   UNL     1      18.134  49.180  48.589  1.00  0.00     0.127 A 
HETATM   31  C   UNL     1      16.083  50.608  48.533  1.00  0.00     0.098 A 
HETATM   32  C   UNL     1      15.573  51.795  48.905  1.00  0.00     0.018 A 
HETATM   33  C   UNL     1      16.422  52.732  49.626  1.00  0.00     0.005 A 
ENDBRANCH  24  25
ENDBRANCH  23  24
ENDBRANCH   3  23
TORSDOF 4
ENDMDL
MODEL 10
REMARK VINA RESULT:      -9.0      2.600      4.416
REMARK  4 active torsions:
REMARK  status: ('A' for Active; 'I' for Inactive)
REMARK       I    between atoms: N_10  and  C_11 
REMARK    1  A    between atoms: C_11  and  C_12 
REMARK    2  A    between atoms: C_14  and  O_15 
REMARK    3  A    between atoms: O_15  and  C_16 
REMARK    4  A    between atoms: C_16  and  C_17 
ROOT
HETATM    1  C   UNL     1      22.673  48.489  48.407  1.00  0.00     0.034 A 
HETATM    2  C   UNL     1      21.533  48.914  49.103  1.00  0.00     0.053 A 
HETATM    3  C   UNL     1      21.369  50.268  49.395  1.00  0.00     0.070 A 
HETATM    4  C   UNL     1      22.356  51.179  49.001  1.00  0.00     0.037 A 
HETATM    5  C   UNL     1      23.506  50.750  48.336  1.00  0.00     0.004 A 
HETATM    6  C   UNL     1      23.672  49.399  48.046  1.00  0.00     0.017 A 
ENDROOT
BRANCH   1   7
HETATM    7  C   UNL     1      22.838  47.045  48.135  1.00  0.00     0.254 C 
HETATM    8  N   UNL     1      23.378  46.225  49.121  1.00  0.00    -0.343 N 
HETATM    9  C   UNL     1      23.931  46.721  50.401  1.00  0.00     0.167 C 
HETATM   10  C   UNL     1      23.304  44.762  48.931  1.00  0.00     0.132 C 
HETATM   11  C   UNL     1      24.992  45.802  50.913  1.00  0.00    -0.005 A 
HETATM   12  C   UNL     1      25.826  45.932  52.063  1.00  0.00     0.000 A 
HETATM   13  C   UNL     1      25.318  44.604  50.315  1.00  0.00     0.020 A 
HETATM   14  C   UNL     1      25.967  46.907  53.071  1.00  0.00     0.014 A 
HETATM   15  C   UNL     1      26.636  44.793  52.114  1.00  0.00     0.043 A 
HETATM   16  C   UNL     1      26.905  46.710  54.091  1.00  0.00     0.001 A 
HETATM   17  C   UNL     1      27.697  45.564  54.118  1.00  0.00     0.002 A 
HETATM   18  C   UNL     1      27.579  44.583  53.129  1.00  0.00     0.030 A 
HETATM   19  N   UNL     1      26.313  44.005  51.029  1.00  0.00    -0.358 N 
HETATM   20  H   UNL     1      26.749  43.119  50.813  1.00  0.00     0.166 HD
HETATM   21  C   UNL     1      24.675  44.074  49.085  1.00  0.00     0.077 C 
HETATM   22  O   UNL     1      22.480  46.641  47.031  1.00  0.00    -0.267 OA
ENDBRANCH   1   7
BRANCH   3  23
HETATM   23  O   UNL     1      20.312  50.831  50.052  1.00  0.00    -0.345 OA
BRANCH  23  24
HETATM   24  C   UNL     1      19.315  49.945  50.578  1.00  0.00     0.236 C 
BRANCH  24  25
HETATM   25  C   UNL     1      18.249  49.677  49.563  1.00  0.00     0.077 A 
HETATM   26  N   UNL     1      17.603  50.721  48.928  1.00  0.00    -0.232 NA
HETATM   27  C   UNL     1      16.721  50.157  48.130  1.00  0.00     0.134 A 
HETATM   28  N   UNL     1      16.774  48.770  48.211  1.00  0.00    -0.316 N 
HETATM   29  C   UNL     1      15.757  50.717  47.243  1.00  0.00     0.051 A 
HETATM   30  C   UNL     1      17.758  48.465  49.115  1.00  0.00     0.127 A 
HETATM   31  C   UNL     1      15.943  47.922  47.482  1.00  0.00     0.098 A 
HETATM   32  C   UNL     1      15.033  48.456  46.650  1.00  0.00     0.018 A 
HETATM   33  C   UNL     1      14.947  49.904  46.535  1.00  0.00     0.005 A 
ENDBRANCH  24  25
ENDBRANCH  23  24
ENDBRANCH   3  23
TORSDOF 4
ENDMDL
