MODEL 1
REMARK VINA RESULT:      -9.4      0.000      0.000
REMARK  7 active torsions:
REMARK  status: ('A' for Active; 'I' for Inactive)
REMARK    1  A    between atoms: C_4  and  C_5 
REMARK    2  A    between atoms: C_5  and  N_6 
REMARK       I    between atoms: N_6  and  C_7 
REMARK       I    between atoms: C_7  and  N_8 
REMARK    3  A    between atoms: N_8  and  C_9 
REMARK    4  A    between atoms: C_9  and  C_10 
REMARK    5  A    between atoms: C_12  and  O_13 
REMARK    6  A    between atoms: O_13  and  C_14 
REMARK    7  A    between atoms: C_23  and  O_24 
ROOT
HETATM    1  N   UNL     1      26.554  45.293  52.381  1.00  0.00    -0.335 N 
HETATM    2  C   UNL     1      25.304  45.471  51.875  1.00  0.00     0.316 C 
HETATM    3  N   UNL     1      25.156  46.503  51.006  1.00  0.00    -0.339 N 
HETATM    4  O   UNL     1      24.341  44.758  52.128  1.00  0.00    -0.247 OA
HETATM    5  H   UNL     1      27.159  46.095  52.381  1.00  0.00     0.165 HD
HETATM    6  H   UNL     1      24.214  46.564  50.640  1.00  0.00     0.164 HD
ENDROOT
BRANCH   1   7
HETATM    7  C   UNL     1      26.842  44.268  53.380  1.00  0.00     0.118 C 
HETATM    8  C   UNL     1      27.272  42.984  52.667  1.00  0.00     0.037 C 
BRANCH   7   9
HETATM    9  C   UNL     1      27.911  44.690  54.388  1.00  0.00    -0.002 A 
HETATM   10  C   UNL     1      29.043  43.887  54.639  1.00  0.00     0.018 A 
HETATM   11  C   UNL     1      30.007  44.259  55.584  1.00  0.00    -0.061 A 
HETATM   12  C   UNL     1      31.208  43.398  55.842  1.00  0.00     0.048 C 
HETATM   13  C   UNL     1      29.831  45.445  56.299  1.00  0.00     0.009 A 
HETATM   14  C   UNL     1      28.709  46.247  56.076  1.00  0.00     0.038 A 
HETATM   15  C   UNL     1      27.748  45.879  55.130  1.00  0.00     0.076 A 
BRANCH  15  16
HETATM   16  O   UNL     1      26.604  46.594  54.878  1.00  0.00    -0.355 OA
HETATM   17  C   UNL     1      26.593  47.967  55.245  1.00  0.00     0.210 C 
ENDBRANCH  15  16
ENDBRANCH   7   9
ENDBRANCH   1   7
BRANCH   3  18
HETATM   18  C   UNL     1      26.163  47.374  50.441  1.00  0.00     0.163 C 
BRANCH  18  19
HETATM   19  C   UNL     1      25.596  48.343  49.437  1.00  0.00    -0.035 A 
HETATM   20  C   UNL     1      24.216  48.420  49.230  1.00  0.00     0.066 A 
HETATM   21  C   UNL     1      23.733  49.330  48.303  1.00  0.00     0.164 A 
HETATM   22  N   UNL     1      24.512  50.164  47.586  1.00  0.00    -0.237 NA
HETATM   23  C   UNL     1      25.839  50.091  47.814  1.00  0.00     0.120 A 
HETATM   24  C   UNL     1      26.420  49.214  48.716  1.00  0.00     0.028 A 
BRANCH  21  25
HETATM   25  O   UNL     1      22.364  49.356  48.118  1.00  0.00    -0.329 OA
BRANCH  25  26
HETATM   26  C   UNL     1      21.737  50.654  48.218  1.00  0.00     0.130 C 
HETATM   27  C   UNL     1      20.322  50.798  47.598  1.00  0.00     0.032 C 
HETATM   28  C   UNL     1      19.942  51.661  48.814  1.00  0.00     0.005 C 
HETATM   29  C   UNL     1      21.065  50.945  49.587  1.00  0.00     0.032 C 
ENDBRANCH  25  26
ENDBRANCH  21  25
ENDBRANCH  18  19
ENDBRANCH   3  18
TORSDOF 7
ENDMDL
MODEL 2
REMARK VINA RESULT:      -9.3      1.402      2.483
REMARK  7 active torsions:
REMARK  status: ('A' for Active; 'I' for Inactive)
REMARK    1  A    between atoms: C_4  and  C_5 
REMARK    2  A    between atoms: C_5  and  N_6 
REMARK       I    between atoms: N_6  and  C_7 
REMARK       I    between atoms: C_7  and  N_8 
REMARK    3  A    between atoms: N_8  and  C_9 
REMARK    4  A    between atoms: C_9  and  C_10 
REMARK    5  A    between atoms: C_12  and  O_13 
REMARK    6  A    between atoms: O_13  and  C_14 
REMARK    7  A    between atoms: C_23  and  O_24 
ROOT
HETATM    1  N   UNL     1      26.344  45.661  53.127  1.00  0.00    -0.335 N 
HETATM    2  C   UNL     1      25.899  46.942  53.231  1.00  0.00     0.316 C 
HETATM    3  N   UNL     1      25.653  47.584  52.061  1.00  0.00    -0.339 N 
HETATM    4  O   UNL     1      25.685  47.522  54.289  1.00  0.00    -0.247 OA
HETATM    5  H   UNL     1      26.792  45.409  52.264  1.00  0.00     0.165 HD
HETATM    6  H   UNL     1      25.294  48.520  52.205  1.00  0.00     0.164 HD
ENDROOT
BRANCH   1   7
HETATM    7  C   UNL     1      26.715  44.876  54.300  1.00  0.00     0.118 C 
HETATM    8  C   UNL     1      25.596  43.879  54.608  1.00  0.00     0.037 C 
BRANCH   7   9
HETATM    9  C   UNL     1      28.044  44.138  54.137  1.00  0.00    -0.002 A 
HETATM   10  C   UNL     1      29.026  44.160  55.149  1.00  0.00     0.018 A 
HETATM   11  C   UNL     1      30.255  43.509  54.988  1.00  0.00    -0.061 A 
HETATM   12  C   UNL     1      31.293  43.538  56.072  1.00  0.00     0.048 C 
HETATM   13  C   UNL     1      30.513  42.836  53.792  1.00  0.00     0.009 A 
HETATM   14  C   UNL     1      29.560  42.814  52.772  1.00  0.00     0.038 A 
HETATM   15  C   UNL     1      28.330  43.460  52.933  1.00  0.00     0.076 A 
BRANCH  15  16
HETATM   16  O   UNL     1      27.357  43.514  51.967  1.00  0.00    -0.355 OA
HETATM   17  C   UNL     1      26.947  42.287  51.378  1.00  0.00     0.210 C 
ENDBRANCH  15  16
ENDBRANCH   7   9
ENDBRANCH   1   7
BRANCH   3  18
HETATM   18  C   UNL     1      25.680  47.065  50.711  1.00  0.00     0.163 C 
BRANCH  18  19
HETATM   19  C   UNL     1      25.745  48.153  49.672  1.00  0.00    -0.035 A 
HETATM   20  C   UNL     1      24.590  48.554  48.995  1.00  0.00     0.066 A 
HETATM   21  C   UNL     1      24.690  49.565  48.051  1.00  0.00     0.164 A 
HETATM   22  N   UNL     1      25.838  50.202  47.745  1.00  0.00    -0.237 NA
HETATM   23  C   UNL     1      26.938  49.817  48.423  1.00  0.00     0.120 A 
HETATM   24  C   UNL     1      26.942  48.817  49.383  1.00  0.00     0.028 A 
BRANCH  21  25
HETATM   25  O   UNL     1      23.526  49.913  47.392  1.00  0.00    -0.329 OA
BRANCH  25  26
HETATM   26  C   UNL     1      22.332  49.961  48.203  1.00  0.00     0.130 C 
HETATM   27  C   UNL     1      22.151  51.206  49.111  1.00  0.00     0.032 C 
HETATM   28  C   UNL     1      20.658  51.187  48.739  1.00  0.00     0.005 C 
HETATM   29  C   UNL     1      21.059  50.437  47.455  1.00  0.00     0.032 C 
ENDBRANCH  25  26
ENDBRANCH  21  25
ENDBRANCH  18  19
ENDBRANCH   3  18
TORSDOF 7
ENDMDL
MODEL 3
REMARK VINA RESULT:      -9.2      1.458      2.393
REMARK  7 active torsions:
REMARK  status: ('A' for Active; 'I' for Inactive)
REMARK    1  A    between atoms: C_4  and  C_5 
REMARK    2  A    between atoms: C_5  and  N_6 
REMARK       I    between atoms: N_6  and  C_7 
REMARK       I    between atoms: C_7  and  N_8 
REMARK    3  A    between atoms: N_8  and  C_9 
REMARK    4  A    between atoms: C_9  and  C_10 
REMARK    5  A    between atoms: C_12  and  O_13 
REMARK    6  A    between atoms: O_13  and  C_14 
REMARK    7  A    between atoms: C_23  and  O_24 
ROOT
HETATM    1  N   UNL     1      26.262  45.603  53.256  1.00  0.00    -0.335 N 
HETATM    2  C   UNL     1      25.834  46.890  53.357  1.00  0.00     0.316 C 
HETATM    3  N   UNL     1      25.578  47.526  52.184  1.00  0.00    -0.339 N 
HETATM    4  O   UNL     1      25.643  47.482  54.412  1.00  0.00    -0.247 OA
HETATM    5  H   UNL     1      26.694  45.339  52.389  1.00  0.00     0.165 HD
HETATM    6  H   UNL     1      25.232  48.466  52.326  1.00  0.00     0.164 HD
ENDROOT
BRANCH   1   7
HETATM    7  C   UNL     1      26.641  44.823  54.430  1.00  0.00     0.118 C 
HETATM    8  C   UNL     1      25.472  43.920  54.829  1.00  0.00     0.037 C 
BRANCH   7   9
HETATM    9  C   UNL     1      27.901  43.985  54.217  1.00  0.00    -0.002 A 
HETATM   10  C   UNL     1      27.875  42.798  53.455  1.00  0.00     0.018 A 
HETATM   11  C   UNL     1      29.022  42.014  53.285  1.00  0.00    -0.061 A 
HETATM   12  C   UNL     1      28.983  40.754  52.471  1.00  0.00     0.048 C 
HETATM   13  C   UNL     1      30.213  42.414  53.895  1.00  0.00     0.009 A 
HETATM   14  C   UNL     1      30.257  43.578  54.666  1.00  0.00     0.038 A 
HETATM   15  C   UNL     1      29.113  44.365  54.834  1.00  0.00     0.076 A 
BRANCH  15  16
HETATM   16  O   UNL     1      29.066  45.501  55.602  1.00  0.00    -0.355 OA
HETATM   17  C   UNL     1      30.141  45.727  56.504  1.00  0.00     0.210 C 
ENDBRANCH  15  16
ENDBRANCH   7   9
ENDBRANCH   1   7
BRANCH   3  18
HETATM   18  C   UNL     1      25.578  46.995  50.839  1.00  0.00     0.163 C 
BRANCH  18  19
HETATM   19  C   UNL     1      25.766  48.063  49.794  1.00  0.00    -0.035 A 
HETATM   20  C   UNL     1      24.668  48.564  49.089  1.00  0.00     0.066 A 
HETATM   21  C   UNL     1      24.881  49.552  48.141  1.00  0.00     0.164 A 
HETATM   22  N   UNL     1      26.089  50.077  47.855  1.00  0.00    -0.237 NA
HETATM   23  C   UNL     1      27.135  49.596  48.559  1.00  0.00     0.120 A 
HETATM   24  C   UNL     1      27.026  48.609  49.525  1.00  0.00     0.028 A 
BRANCH  21  25
HETATM   25  O   UNL     1      23.769  50.002  47.456  1.00  0.00    -0.329 OA
BRANCH  25  26
HETATM   26  C   UNL     1      22.526  49.988  48.191  1.00  0.00     0.130 C 
HETATM   27  C   UNL     1      22.198  51.249  49.036  1.00  0.00     0.032 C 
HETATM   28  C   UNL     1      20.736  51.103  48.576  1.00  0.00     0.005 C 
HETATM   29  C   UNL     1      21.270  50.340  47.350  1.00  0.00     0.032 C 
ENDBRANCH  25  26
ENDBRANCH  21  25
ENDBRANCH  18  19
ENDBRANCH   3  18
TORSDOF 7
ENDMDL
MODEL 4
REMARK VINA RESULT:      -8.4      1.862      2.948
REMARK  7 active torsions:
REMARK  status: ('A' for Active; 'I' for Inactive)
REMARK    1  A    between atoms: C_4  and  C_5 
REMARK    2  A    between atoms: C_5  and  N_6 
REMARK       I    between atoms: N_6  and  C_7 
REMARK       I    between atoms: C_7  and  N_8 
REMARK    3  A    between atoms: N_8  and  C_9 
REMARK    4  A    between atoms: C_9  and  C_10 
REMARK    5  A    between atoms: C_12  and  O_13 
REMARK    6  A    between atoms: O_13  and  C_14 
REMARK    7  A    between atoms: C_23  and  O_24 
ROOT
HETATM    1  N   UNL     1      26.019  45.559  52.790  1.00  0.00    -0.335 N 
HETATM    2  C   UNL     1      25.718  46.881  52.682  1.00  0.00     0.316 C 
HETATM    3  N   UNL     1      25.350  47.310  51.447  1.00  0.00    -0.339 N 
HETATM    4  O   UNL     1      25.730  47.678  53.612  1.00  0.00    -0.247 OA
HETATM    5  H   UNL     1      26.299  45.092  51.946  1.00  0.00     0.165 HD
HETATM    6  H   UNL     1      25.107  48.292  51.438  1.00  0.00     0.164 HD
ENDROOT
BRANCH   1   7
HETATM    7  C   UNL     1      26.498  44.978  54.040  1.00  0.00     0.118 C 
HETATM    8  C   UNL     1      25.418  44.052  54.604  1.00  0.00     0.037 C 
BRANCH   7   9
HETATM    9  C   UNL     1      27.813  44.215  53.887  1.00  0.00    -0.002 A 
HETATM   10  C   UNL     1      28.796  44.233  54.898  1.00  0.00     0.018 A 
HETATM   11  C   UNL     1      30.014  43.559  54.746  1.00  0.00    -0.061 A 
HETATM   12  C   UNL     1      31.052  43.584  55.829  1.00  0.00     0.048 C 
HETATM   13  C   UNL     1      30.260  42.867  53.558  1.00  0.00     0.009 A 
HETATM   14  C   UNL     1      29.307  42.849  52.538  1.00  0.00     0.038 A 
HETATM   15  C   UNL     1      28.088  43.518  52.691  1.00  0.00     0.076 A 
BRANCH  15  16
HETATM   16  O   UNL     1      27.116  43.576  51.724  1.00  0.00    -0.355 OA
HETATM   17  C   UNL     1      26.824  42.380  51.014  1.00  0.00     0.210 C 
ENDBRANCH  15  16
ENDBRANCH   7   9
ENDBRANCH   1   7
BRANCH   3  18
HETATM   18  C   UNL     1      25.113  46.538  50.246  1.00  0.00     0.163 C 
BRANCH  18  19
HETATM   19  C   UNL     1      23.875  46.977  49.510  1.00  0.00    -0.035 A 
HETATM   20  C   UNL     1      23.499  48.323  49.496  1.00  0.00     0.066 A 
HETATM   21  C   UNL     1      22.356  48.687  48.801  1.00  0.00     0.164 A 
HETATM   22  N   UNL     1      21.578  47.822  48.120  1.00  0.00    -0.237 NA
HETATM   23  C   UNL     1      21.967  46.530  48.128  1.00  0.00     0.120 A 
HETATM   24  C   UNL     1      23.090  46.066  48.793  1.00  0.00     0.028 A 
BRANCH  21  25
HETATM   25  O   UNL     1      22.014  50.025  48.832  1.00  0.00    -0.329 OA
BRANCH  25  26
HETATM   26  C   UNL     1      20.604  50.314  48.949  1.00  0.00     0.130 C 
HETATM   27  C   UNL     1      20.104  50.820  50.329  1.00  0.00     0.032 C 
HETATM   28  C   UNL     1      19.194  51.803  49.571  1.00  0.00     0.005 C 
HETATM   29  C   UNL     1      20.177  51.699  48.392  1.00  0.00     0.032 C 
ENDBRANCH  25  26
ENDBRANCH  21  25
ENDBRANCH  18  19
ENDBRANCH   3  18
TORSDOF 7
ENDMDL
MODEL 5
REMARK VINA RESULT:      -8.2      1.869      2.727
REMARK  7 active torsions:
REMARK  status: ('A' for Active; 'I' for Inactive)
REMARK    1  A    between atoms: C_4  and  C_5 
REMARK    2  A    between atoms: C_5  and  N_6 
REMARK       I    between atoms: N_6  and  C_7 
REMARK       I    between atoms: C_7  and  N_8 
REMARK    3  A    between atoms: N_8  and  C_9 
REMARK    4  A    between atoms: C_9  and  C_10 
REMARK    5  A    between atoms: C_12  and  O_13 
REMARK    6  A    between atoms: O_13  and  C_14 
REMARK    7  A    between atoms: C_23  and  O_24 
ROOT
HETATM    1  N   UNL     1      25.699  45.491  52.858  1.00  0.00    -0.335 N 
HETATM    2  C   UNL     1      25.501  46.813  52.610  1.00  0.00     0.316 C 
HETATM    3  N   UNL     1      25.145  47.134  51.339  1.00  0.00    -0.339 N 
HETATM    4  O   UNL     1      25.592  47.702  53.447  1.00  0.00    -0.247 OA
HETATM    5  H   UNL     1      25.925  44.913  52.068  1.00  0.00     0.165 HD
HETATM    6  H   UNL     1      24.980  48.126  51.226  1.00  0.00     0.164 HD
ENDROOT
BRANCH   1   7
HETATM    7  C   UNL     1      26.153  45.011  54.160  1.00  0.00     0.118 C 
HETATM    8  C   UNL     1      25.046  44.166  54.793  1.00  0.00     0.037 C 
BRANCH   7   9
HETATM    9  C   UNL     1      27.450  44.206  54.087  1.00  0.00    -0.002 A 
HETATM   10  C   UNL     1      27.550  43.041  53.297  1.00  0.00     0.018 A 
HETATM   11  C   UNL     1      28.728  42.287  53.255  1.00  0.00    -0.061 A 
HETATM   12  C   UNL     1      28.824  41.050  52.410  1.00  0.00     0.048 C 
HETATM   13  C   UNL     1      29.821  42.694  54.023  1.00  0.00     0.009 A 
HETATM   14  C   UNL     1      29.738  43.835  54.823  1.00  0.00     0.038 A 
HETATM   15  C   UNL     1      28.563  44.593  54.864  1.00  0.00     0.076 A 
BRANCH  15  16
HETATM   16  O   UNL     1      28.391  45.704  55.649  1.00  0.00    -0.355 OA
HETATM   17  C   UNL     1      29.411  46.005  56.593  1.00  0.00     0.210 C 
ENDBRANCH  15  16
ENDBRANCH   7   9
ENDBRANCH   1   7
BRANCH   3  18
HETATM   18  C   UNL     1      24.826  46.259  50.232  1.00  0.00     0.163 C 
BRANCH  18  19
HETATM   19  C   UNL     1      23.696  46.783  49.386  1.00  0.00    -0.035 A 
HETATM   20  C   UNL     1      23.368  48.142  49.405  1.00  0.00     0.066 A 
HETATM   21  C   UNL     1      22.326  48.585  48.606  1.00  0.00     0.164 A 
HETATM   22  N   UNL     1      21.605  47.789  47.793  1.00  0.00    -0.237 NA
HETATM   23  C   UNL     1      21.948  46.484  47.771  1.00  0.00     0.120 A 
HETATM   24  C   UNL     1      22.971  45.943  48.533  1.00  0.00     0.028 A 
BRANCH  21  25
HETATM   25  O   UNL     1      22.026  49.933  48.674  1.00  0.00    -0.329 OA
BRANCH  25  26
HETATM   26  C   UNL     1      20.643  50.260  48.931  1.00  0.00     0.130 C 
HETATM   27  C   UNL     1      20.314  50.869  50.321  1.00  0.00     0.032 C 
HETATM   28  C   UNL     1      19.335  51.818  49.606  1.00  0.00     0.005 C 
HETATM   29  C   UNL     1      20.174  51.612  48.331  1.00  0.00     0.032 C 
ENDBRANCH  25  26
ENDBRANCH  21  25
ENDBRANCH  18  19
ENDBRANCH   3  18
TORSDOF 7
ENDMDL
MODEL 6
REMARK VINA RESULT:      -8.1      2.853      4.658
REMARK  7 active torsions:
REMARK  status: ('A' for Active; 'I' for Inactive)
REMARK    1  A    between atoms: C_4  and  C_5 
REMARK    2  A    between atoms: C_5  and  N_6 
REMARK       I    between atoms: N_6  and  C_7 
REMARK       I    between atoms: C_7  and  N_8 
REMARK    3  A    between atoms: N_8  and  C_9 
REMARK    4  A    between atoms: C_9  and  C_10 
REMARK    5  A    between atoms: C_12  and  O_13 
REMARK    6  A    between atoms: O_13  and  C_14 
REMARK    7  A    between atoms: C_23  and  O_24 
ROOT
HETATM    1  N   UNL     1      28.386  42.850  52.285  1.00  0.00    -0.335 N 
HETATM    2  C   UNL     1      27.714  41.734  51.895  1.00  0.00     0.316 C 
HETATM    3  N   UNL     1      27.013  41.836  50.737  1.00  0.00    -0.339 N 
HETATM    4  O   UNL     1      27.728  40.666  52.493  1.00  0.00    -0.247 OA
HETATM    5  H   UNL     1      28.049  43.727  51.929  1.00  0.00     0.165 HD
HETATM    6  H   UNL     1      26.562  40.965  50.483  1.00  0.00     0.164 HD
ENDROOT
BRANCH   1   7
HETATM    7  C   UNL     1      29.123  42.905  53.544  1.00  0.00     0.118 C 
HETATM    8  C   UNL     1      30.620  42.786  53.252  1.00  0.00     0.037 C 
BRANCH   7   9
HETATM    9  C   UNL     1      28.846  44.174  54.350  1.00  0.00    -0.002 A 
HETATM   10  C   UNL     1      27.921  45.141  53.905  1.00  0.00     0.018 A 
HETATM   11  C   UNL     1      27.690  46.318  54.628  1.00  0.00    -0.061 A 
HETATM   12  C   UNL     1      26.702  47.339  54.146  1.00  0.00     0.048 C 
HETATM   13  C   UNL     1      28.404  46.539  55.808  1.00  0.00     0.009 A 
HETATM   14  C   UNL     1      29.335  45.601  56.258  1.00  0.00     0.038 A 
HETATM   15  C   UNL     1      29.564  44.423  55.539  1.00  0.00     0.076 A 
BRANCH  15  16
HETATM   16  O   UNL     1      30.486  43.471  55.896  1.00  0.00    -0.355 OA
HETATM   17  C   UNL     1      31.519  43.861  56.792  1.00  0.00     0.210 C 
ENDBRANCH  15  16
ENDBRANCH   7   9
ENDBRANCH   1   7
BRANCH   3  18
HETATM   18  C   UNL     1      26.972  42.926  49.787  1.00  0.00     0.163 C 
BRANCH  18  19
HETATM   19  C   UNL     1      26.223  44.123  50.311  1.00  0.00    -0.035 A 
HETATM   20  C   UNL     1      26.757  45.408  50.174  1.00  0.00     0.066 A 
HETATM   21  C   UNL     1      26.033  46.484  50.663  1.00  0.00     0.164 A 
HETATM   22  N   UNL     1      24.829  46.377  51.259  1.00  0.00    -0.237 NA
HETATM   23  C   UNL     1      24.319  45.133  51.364  1.00  0.00     0.120 A 
HETATM   24  C   UNL     1      24.964  43.994  50.910  1.00  0.00     0.028 A 
BRANCH  21  25
HETATM   25  O   UNL     1      26.610  47.732  50.523  1.00  0.00    -0.329 OA
BRANCH  25  26
HETATM   26  C   UNL     1      26.596  48.288  49.191  1.00  0.00     0.130 C 
HETATM   27  C   UNL     1      25.397  49.204  48.826  1.00  0.00     0.032 C 
HETATM   28  C   UNL     1      26.393  50.113  48.085  1.00  0.00     0.005 C 
HETATM   29  C   UNL     1      27.490  49.543  49.003  1.00  0.00     0.032 C 
ENDBRANCH  25  26
ENDBRANCH  21  25
ENDBRANCH  18  19
ENDBRANCH   3  18
TORSDOF 7
ENDMDL
MODEL 7
REMARK VINA RESULT:      -8.0      1.871      9.744
REMARK  7 active torsions:
REMARK  status: ('A' for Active; 'I' for Inactive)
REMARK    1  A    between atoms: C_4  and  C_5 
REMARK    2  A    between atoms: C_5  and  N_6 
REMARK       I    between atoms: N_6  and  C_7 
REMARK       I    between atoms: C_7  and  N_8 
REMARK    3  A    between atoms: N_8  and  C_9 
REMARK    4  A    between atoms: C_9  and  C_10 
REMARK    5  A    between atoms: C_12  and  O_13 
REMARK    6  A    between atoms: O_13  and  C_14 
REMARK    7  A    between atoms: C_23  and  O_24 
ROOT
HETATM    1  N   UNL     1      24.375  47.301  50.305  1.00  0.00    -0.335 N 
HETATM    2  C   UNL     1      25.734  47.247  50.319  1.00  0.00     0.316 C 
HETATM    3  N   UNL     1      26.316  47.213  51.546  1.00  0.00    -0.339 N 
HETATM    4  O   UNL     1      26.442  47.198  49.321  1.00  0.00    -0.247 OA
HETATM    5  H   UNL     1      23.931  47.667  51.128  1.00  0.00     0.165 HD
HETATM    6  H   UNL     1      27.324  47.140  51.490  1.00  0.00     0.164 HD
ENDROOT
BRANCH   1   7
HETATM    7  C   UNL     1      23.622  47.413  49.060  1.00  0.00     0.118 C 
HETATM    8  C   UNL     1      22.760  46.161  48.884  1.00  0.00     0.037 C 
BRANCH   7   9
HETATM    9  C   UNL     1      22.747  48.665  48.994  1.00  0.00    -0.002 A 
HETATM   10  C   UNL     1      21.342  48.576  48.912  1.00  0.00     0.018 A 
HETATM   11  C   UNL     1      20.542  49.722  48.821  1.00  0.00    -0.061 A 
HETATM   12  C   UNL     1      19.048  49.616  48.734  1.00  0.00     0.048 C 
HETATM   13  C   UNL     1      21.156  50.976  48.800  1.00  0.00     0.009 A 
HETATM   14  C   UNL     1      22.547  51.085  48.867  1.00  0.00     0.038 A 
HETATM   15  C   UNL     1      23.347  49.942  48.961  1.00  0.00     0.076 A 
BRANCH  15  16
HETATM   16  O   UNL     1      24.718  49.964  48.996  1.00  0.00    -0.355 OA
HETATM   17  C   UNL     1      25.401  50.227  47.777  1.00  0.00     0.210 C 
ENDBRANCH  15  16
ENDBRANCH   7   9
ENDBRANCH   1   7
BRANCH   3  18
HETATM   18  C   UNL     1      25.696  47.104  52.848  1.00  0.00     0.163 C 
BRANCH  18  19
HETATM   19  C   UNL     1      26.311  46.022  53.695  1.00  0.00    -0.035 A 
HETATM   20  C   UNL     1      27.550  46.223  54.310  1.00  0.00     0.066 A 
HETATM   21  C   UNL     1      28.079  45.204  55.088  1.00  0.00     0.164 A 
HETATM   22  N   UNL     1      27.468  44.022  55.303  1.00  0.00    -0.237 NA
HETATM   23  C   UNL     1      26.264  43.854  54.718  1.00  0.00     0.120 A 
HETATM   24  C   UNL     1      25.652  44.808  53.922  1.00  0.00     0.028 A 
BRANCH  21  25
HETATM   25  O   UNL     1      29.314  45.441  55.660  1.00  0.00    -0.329 OA
BRANCH  25  26
HETATM   26  C   UNL     1      29.898  44.336  56.382  1.00  0.00     0.130 C 
HETATM   27  C   UNL     1      31.034  43.555  55.669  1.00  0.00     0.032 C 
HETATM   28  C   UNL     1      31.757  43.486  57.026  1.00  0.00     0.005 C 
HETATM   29  C   UNL     1      30.965  44.741  57.435  1.00  0.00     0.032 C 
ENDBRANCH  25  26
ENDBRANCH  21  25
ENDBRANCH  18  19
ENDBRANCH   3  18
TORSDOF 7
ENDMDL
MODEL 8
REMARK VINA RESULT:      -8.0      3.734      5.819
REMARK  7 active torsions:
REMARK  status: ('A' for Active; 'I' for Inactive)
REMARK    1  A    between atoms: C_4  and  C_5 
REMARK    2  A    between atoms: C_5  and  N_6 
REMARK       I    between atoms: N_6  and  C_7 
REMARK       I    between atoms: C_7  and  N_8 
REMARK    3  A    between atoms: N_8  and  C_9 
REMARK    4  A    between atoms: C_9  and  C_10 
REMARK    5  A    between atoms: C_12  and  O_13 
REMARK    6  A    between atoms: O_13  and  C_14 
REMARK    7  A    between atoms: C_23  and  O_24 
ROOT
HETATM    1  N   UNL     1      27.366  46.525  54.970  1.00  0.00    -0.335 N 
HETATM    2  C   UNL     1      26.707  47.698  54.770  1.00  0.00     0.316 C 
HETATM    3  N   UNL     1      25.735  47.680  53.822  1.00  0.00    -0.339 N 
HETATM    4  O   UNL     1      26.912  48.730  55.397  1.00  0.00    -0.247 OA
HETATM    5  H   UNL     1      27.362  45.870  54.209  1.00  0.00     0.165 HD
HETATM    6  H   UNL     1      25.260  48.570  53.742  1.00  0.00     0.164 HD
ENDROOT
BRANCH   1   7
HETATM    7  C   UNL     1      28.480  46.418  55.907  1.00  0.00     0.118 C 
HETATM    8  C   UNL     1      27.928  46.337  57.332  1.00  0.00     0.037 C 
BRANCH   7   9
HETATM    9  C   UNL     1      29.390  45.222  55.630  1.00  0.00    -0.002 A 
HETATM   10  C   UNL     1      29.107  44.306  54.595  1.00  0.00     0.018 A 
HETATM   11  C   UNL     1      29.923  43.194  54.360  1.00  0.00    -0.061 A 
HETATM   12  C   UNL     1      29.612  42.227  53.255  1.00  0.00     0.048 C 
HETATM   13  C   UNL     1      31.035  42.985  55.179  1.00  0.00     0.009 A 
HETATM   14  C   UNL     1      31.325  43.871  56.219  1.00  0.00     0.038 A 
HETATM   15  C   UNL     1      30.512  44.986  56.452  1.00  0.00     0.076 A 
BRANCH  15  16
HETATM   16  O   UNL     1      30.711  45.881  57.472  1.00  0.00    -0.355 OA
HETATM   17  C   UNL     1      31.076  45.359  58.743  1.00  0.00     0.210 C 
ENDBRANCH  15  16
ENDBRANCH   7   9
ENDBRANCH   1   7
BRANCH   3  18
HETATM   18  C   UNL     1      25.213  46.560  53.071  1.00  0.00     0.163 C 
BRANCH  18  19
HETATM   19  C   UNL     1      25.906  46.374  51.747  1.00  0.00    -0.035 A 
HETATM   20  C   UNL     1      26.294  45.100  51.324  1.00  0.00     0.066 A 
HETATM   21  C   UNL     1      26.923  44.970  50.095  1.00  0.00     0.164 A 
HETATM   22  N   UNL     1      27.181  46.000  49.266  1.00  0.00    -0.237 NA
HETATM   23  C   UNL     1      26.781  47.220  49.681  1.00  0.00     0.120 A 
HETATM   24  C   UNL     1      26.148  47.454  50.891  1.00  0.00     0.028 A 
BRANCH  21  25
HETATM   25  O   UNL     1      27.305  43.694  49.729  1.00  0.00    -0.329 OA
BRANCH  25  26
HETATM   26  C   UNL     1      26.858  42.627  50.593  1.00  0.00     0.130 C 
HETATM   27  C   UNL     1      25.547  41.901  50.189  1.00  0.00     0.032 C 
HETATM   28  C   UNL     1      26.215  40.583  50.620  1.00  0.00     0.005 C 
HETATM   29  C   UNL     1      27.571  41.267  50.367  1.00  0.00     0.032 C 
ENDBRANCH  25  26
ENDBRANCH  21  25
ENDBRANCH  18  19
ENDBRANCH   3  18
TORSDOF 7
ENDMDL
MODEL 9
REMARK VINA RESULT:      -8.0      3.789      6.507
REMARK  7 active torsions:
REMARK  status: ('A' for Active; 'I' for Inactive)
REMARK    1  A    between atoms: C_4  and  C_5 
REMARK    2  A    between atoms: C_5  and  N_6 
REMARK       I    between atoms: N_6  and  C_7 
REMARK       I    between atoms: C_7  and  N_8 
REMARK    3  A    between atoms: N_8  and  C_9 
REMARK    4  A    between atoms: C_9  and  C_10 
REMARK    5  A    between atoms: C_12  and  O_13 
REMARK    6  A    between atoms: O_13  and  C_14 
REMARK    7  A    between atoms: C_23  and  O_24 
ROOT
HETATM    1  N   UNL     1      26.608  45.651  52.657  1.00  0.00    -0.335 N 
HETATM    2  C   UNL     1      25.989  46.721  52.089  1.00  0.00     0.316 C 
HETATM    3  N   UNL     1      26.159  46.865  50.750  1.00  0.00    -0.339 N 
HETATM    4  O   UNL     1      25.284  47.521  52.692  1.00  0.00    -0.247 OA
HETATM    5  H   UNL     1      27.400  45.277  52.166  1.00  0.00     0.165 HD
HETATM    6  H   UNL     1      25.648  47.657  50.381  1.00  0.00     0.164 HD
ENDROOT
BRANCH   1   7
HETATM    7  C   UNL     1      26.570  45.414  54.097  1.00  0.00     0.118 C 
HETATM    8  C   UNL     1      25.488  44.377  54.403  1.00  0.00     0.037 C 
BRANCH   7   9
HETATM    9  C   UNL     1      27.911  44.957  54.670  1.00  0.00    -0.002 A 
HETATM   10  C   UNL     1      28.521  45.635  55.746  1.00  0.00     0.018 A 
HETATM   11  C   UNL     1      29.764  45.235  56.251  1.00  0.00    -0.061 A 
HETATM   12  C   UNL     1      30.404  45.963  57.396  1.00  0.00     0.048 C 
HETATM   13  C   UNL     1      30.415  44.147  55.664  1.00  0.00     0.009 A 
HETATM   14  C   UNL     1      29.835  43.471  54.589  1.00  0.00     0.038 A 
HETATM   15  C   UNL     1      28.591  43.867  54.086  1.00  0.00     0.076 A 
BRANCH  15  16
HETATM   16  O   UNL     1      27.973  43.277  53.012  1.00  0.00    -0.355 OA
HETATM   17  C   UNL     1      27.893  41.858  52.998  1.00  0.00     0.210 C 
ENDBRANCH  15  16
ENDBRANCH   7   9
ENDBRANCH   1   7
BRANCH   3  18
HETATM   18  C   UNL     1      26.807  45.975  49.811  1.00  0.00     0.163 C 
BRANCH  18  19
HETATM   19  C   UNL     1      25.992  44.742  49.524  1.00  0.00    -0.035 A 
HETATM   20  C   UNL     1      26.497  43.474  49.827  1.00  0.00     0.066 A 
HETATM   21  C   UNL     1      25.713  42.364  49.554  1.00  0.00     0.164 A 
HETATM   22  N   UNL     1      24.478  42.424  49.019  1.00  0.00    -0.237 NA
HETATM   23  C   UNL     1      23.998  43.656  48.752  1.00  0.00     0.120 A 
HETATM   24  C   UNL     1      24.703  44.825  48.986  1.00  0.00     0.028 A 
BRANCH  21  25
HETATM   25  O   UNL     1      26.262  41.131  49.853  1.00  0.00    -0.329 OA
BRANCH  25  26
HETATM   26  C   UNL     1      27.640  40.943  49.465  1.00  0.00     0.130 C 
HETATM   27  C   UNL     1      28.297  39.589  49.846  1.00  0.00     0.032 C 
HETATM   28  C   UNL     1      28.984  39.603  48.470  1.00  0.00     0.005 C 
HETATM   29  C   UNL     1      27.845  40.518  47.986  1.00  0.00     0.032 C 
ENDBRANCH  25  26
ENDBRANCH  21  25
ENDBRANCH  18  19
ENDBRANCH   3  18
TORSDOF 7
ENDMDL
MODEL 10
REMARK VINA RESULT:      -7.8      2.017      9.508
REMARK  7 active torsions:
REMARK  status: ('A' for Active; 'I' for Inactive)
REMARK    1  A    between atoms: C_4  and  C_5 
REMARK    2  A    between atoms: C_5  and  N_6 
REMARK       I    between atoms: N_6  and  C_7 
REMARK       I    between atoms: C_7  and  N_8 
REMARK    3  A    between atoms: N_8  and  C_9 
REMARK    4  A    between atoms: C_9  and  C_10 
REMARK    5  A    between atoms: C_12  and  O_13 
REMARK    6  A    between atoms: O_13  and  C_14 
REMARK    7  A    between atoms: C_23  and  O_24 
ROOT
HETATM    1  N   UNL     1      22.397  46.853  49.169  1.00  0.00    -0.335 N 
HETATM    2  C   UNL     1      23.190  45.844  48.719  1.00  0.00     0.316 C 
HETATM    3  N   UNL     1      24.271  45.549  49.485  1.00  0.00    -0.339 N 
HETATM    4  O   UNL     1      22.975  45.185  47.709  1.00  0.00    -0.247 OA
HETATM    5  H   UNL     1      22.825  47.520  49.786  1.00  0.00     0.165 HD
HETATM    6  H   UNL     1      24.802  44.770  49.116  1.00  0.00     0.164 HD
ENDROOT
BRANCH   1   7
HETATM    7  C   UNL     1      21.241  47.322  48.411  1.00  0.00     0.118 C 
HETATM    8  C   UNL     1      20.017  46.493  48.803  1.00  0.00     0.037 C 
BRANCH   7   9
HETATM    9  C   UNL     1      20.952  48.810  48.610  1.00  0.00    -0.002 A 
HETATM   10  C   UNL     1      19.727  49.255  49.149  1.00  0.00     0.018 A 
HETATM   11  C   UNL     1      19.450  50.619  49.303  1.00  0.00    -0.061 A 
HETATM   12  C   UNL     1      18.144  51.081  49.880  1.00  0.00     0.048 C 
HETATM   13  C   UNL     1      20.407  51.554  48.901  1.00  0.00     0.009 A 
HETATM   14  C   UNL     1      21.620  51.134  48.351  1.00  0.00     0.038 A 
HETATM   15  C   UNL     1      21.900  49.772  48.200  1.00  0.00     0.076 A 
BRANCH  15  16
HETATM   16  O   UNL     1      23.051  49.282  47.638  1.00  0.00    -0.355 OA
HETATM   17  C   UNL     1      24.285  49.834  48.080  1.00  0.00     0.210 C 
ENDBRANCH  15  16
ENDBRANCH   7   9
ENDBRANCH   1   7
BRANCH   3  18
HETATM   18  C   UNL     1      24.642  46.073  50.781  1.00  0.00     0.163 C 
BRANCH  18  19
HETATM   19  C   UNL     1      25.825  45.358  51.379  1.00  0.00    -0.035 A 
HETATM   20  C   UNL     1      26.096  45.458  52.746  1.00  0.00     0.066 A 
HETATM   21  C   UNL     1      27.190  44.779  53.259  1.00  0.00     0.164 A 
HETATM   22  N   UNL     1      28.015  44.009  52.522  1.00  0.00    -0.237 NA
HETATM   23  C   UNL     1      27.726  43.907  51.209  1.00  0.00     0.120 A 
HETATM   24  C   UNL     1      26.659  44.547  50.600  1.00  0.00     0.028 A 
BRANCH  21  25
HETATM   25  O   UNL     1      27.429  44.925  54.612  1.00  0.00    -0.329 OA
BRANCH  25  26
HETATM   26  C   UNL     1      28.680  45.551  54.969  1.00  0.00     0.130 C 
HETATM   27  C   UNL     1      28.759  46.209  56.373  1.00  0.00     0.032 C 
HETATM   28  C   UNL     1      30.188  45.651  56.488  1.00  0.00     0.005 C 
HETATM   29  C   UNL     1      29.776  44.573  55.469  1.00  0.00     0.032 C 
ENDBRANCH  25  26
ENDBRANCH  21  25
ENDBRANCH  18  19
ENDBRANCH   3  18
TORSDOF 7
ENDMDL
