MODEL 1
REMARK VINA RESULT:     -10.0      0.000      0.000
REMARK  3 active torsions:
REMARK  status: ('A' for Active; 'I' for Inactive)
REMARK    1  A    between atoms: C_3  and  C_4 
REMARK       I    between atoms: C_4  and  N_5 
REMARK    2  A    between atoms: N_5  and  C_6 
REMARK    3  A    between atoms: C_13  and  C_14 
REMARK       I    between atoms: C_14  and  N_15 
ROOT
HETATM    1  C   UNL     1      25.920  47.623  50.436  1.00  0.00     0.035 A 
HETATM    2  C   UNL     1      24.548  47.644  50.137  1.00  0.00     0.046 A 
HETATM    3  C   UNL     1      24.063  48.517  49.143  1.00  0.00     0.030 A 
HETATM    4  C   UNL     1      24.957  49.364  48.503  1.00  0.00     0.063 A 
HETATM    5  N   UNL     1      24.203  50.084  47.618  1.00  0.00    -0.277 N 
HETATM    6  H   UNL     1      24.525  50.806  46.984  1.00  0.00     0.189 HD
HETATM    7  N   UNL     1      22.898  49.759  47.606  1.00  0.00    -0.168 NA
HETATM    8  C   UNL     1      22.798  48.790  48.543  1.00  0.00     0.156 A 
HETATM    9  C   UNL     1      26.323  49.384  48.790  1.00  0.00     0.034 A 
HETATM   10  C   UNL     1      26.787  48.487  49.764  1.00  0.00     0.032 A 
ENDROOT
BRANCH   1  11
HETATM   11  N   UNL     1      26.338  46.706  51.418  1.00  0.00    -0.325 N 
HETATM   12  C   UNL     1      26.057  46.720  52.774  1.00  0.00     0.252 C 
HETATM   13  O   UNL     1      25.398  47.565  53.375  1.00  0.00    -0.270 OA
HETATM   14  H   UNL     1      26.946  45.952  51.111  1.00  0.00     0.169 HD
BRANCH  12  15
HETATM   15  C   UNL     1      26.754  45.586  53.534  1.00  0.00     0.229 C 
HETATM   16  C   UNL     1      27.630  46.072  54.710  1.00  0.00     0.056 C 
HETATM   17  C   UNL     1      28.313  47.426  54.527  1.00  0.00     0.018 C 
HETATM   18  C   UNL     1      28.633  44.971  54.687  1.00  0.00    -0.018 A 
HETATM   19  C   UNL     1      28.552  44.299  53.476  1.00  0.00     0.076 A 
HETATM   20  C   UNL     1      29.580  44.613  55.631  1.00  0.00     0.010 A 
HETATM   21  O   UNL     1      27.578  44.787  52.645  1.00  0.00    -0.335 OA
HETATM   22  C   UNL     1      29.401  43.262  53.153  1.00  0.00     0.037 A 
HETATM   23  C   UNL     1      30.356  42.884  54.099  1.00  0.00     0.003 A 
HETATM   24  C   UNL     1      30.444  43.556  55.331  1.00  0.00     0.001 A 
ENDBRANCH  12  15
ENDBRANCH   1  11
BRANCH   8  25
HETATM   25  C   UNL     1      21.517  48.134  48.837  1.00  0.00     0.270 C 
HETATM   26  N   UNL     1      20.737  48.805  49.738  1.00  0.00    -0.365 N 
HETATM   27  H   UNL     1      21.078  49.683  50.114  1.00  0.00     0.159 HD
HETATM   28  H   UNL     1      19.826  48.448  49.979  1.00  0.00     0.159 HD
HETATM   29  O   UNL     1      21.143  47.082  48.327  1.00  0.00    -0.266 OA
ENDBRANCH   8  25
TORSDOF 3
ENDMDL
MODEL 2
REMARK VINA RESULT:      -9.7      2.050      3.230
REMARK  3 active torsions:
REMARK  status: ('A' for Active; 'I' for Inactive)
REMARK    1  A    between atoms: C_3  and  C_4 
REMARK       I    between atoms: C_4  and  N_5 
REMARK    2  A    between atoms: N_5  and  C_6 
REMARK    3  A    between atoms: C_13  and  C_14 
REMARK       I    between atoms: C_14  and  N_15 
ROOT
HETATM    1  C   UNL     1      25.564  45.843  51.520  1.00  0.00     0.035 A 
HETATM    2  C   UNL     1      25.301  47.045  50.844  1.00  0.00     0.046 A 
HETATM    3  C   UNL     1      24.236  47.110  49.923  1.00  0.00     0.030 A 
HETATM    4  C   UNL     1      23.490  45.965  49.682  1.00  0.00     0.063 A 
HETATM    5  N   UNL     1      22.557  46.329  48.753  1.00  0.00    -0.277 N 
HETATM    6  H   UNL     1      21.844  45.741  48.335  1.00  0.00     0.189 HD
HETATM    7  N   UNL     1      22.612  47.623  48.386  1.00  0.00    -0.168 NA
HETATM    8  C   UNL     1      23.645  48.117  49.104  1.00  0.00     0.156 A 
HETATM    9  C   UNL     1      23.737  44.748  50.321  1.00  0.00     0.034 A 
HETATM   10  C   UNL     1      24.785  44.715  51.253  1.00  0.00     0.032 A 
ENDROOT
BRANCH   1  11
HETATM   11  N   UNL     1      26.623  45.859  52.446  1.00  0.00    -0.325 N 
HETATM   12  C   UNL     1      26.550  45.965  53.825  1.00  0.00     0.252 C 
HETATM   13  O   UNL     1      25.527  46.090  54.495  1.00  0.00    -0.270 OA
HETATM   14  H   UNL     1      27.564  45.816  52.066  1.00  0.00     0.169 HD
BRANCH  12  15
HETATM   15  C   UNL     1      27.930  46.018  54.488  1.00  0.00     0.229 C 
HETATM   16  C   UNL     1      28.735  44.705  54.355  1.00  0.00     0.056 C 
HETATM   17  C   UNL     1      27.920  43.414  54.348  1.00  0.00     0.018 C 
HETATM   18  C   UNL     1      29.524  44.820  55.613  1.00  0.00    -0.018 A 
HETATM   19  C   UNL     1      28.935  45.763  56.443  1.00  0.00     0.076 A 
HETATM   20  C   UNL     1      30.645  44.120  56.025  1.00  0.00     0.010 A 
HETATM   21  O   UNL     1      27.824  46.352  55.897  1.00  0.00    -0.335 OA
HETATM   22  C   UNL     1      29.422  46.041  57.702  1.00  0.00     0.037 A 
HETATM   23  C   UNL     1      30.557  45.348  58.128  1.00  0.00     0.003 A 
HETATM   24  C   UNL     1      31.165  44.394  57.294  1.00  0.00     0.001 A 
ENDBRANCH  12  15
ENDBRANCH   1  11
BRANCH   8  25
HETATM   25  C   UNL     1      24.037  49.530  49.013  1.00  0.00     0.270 C 
HETATM   26  N   UNL     1      25.129  49.758  48.222  1.00  0.00    -0.365 N 
HETATM   27  H   UNL     1      25.564  48.970  47.758  1.00  0.00     0.159 HD
HETATM   28  H   UNL     1      25.454  50.701  48.074  1.00  0.00     0.159 HD
HETATM   29  O   UNL     1      23.452  50.450  49.576  1.00  0.00    -0.266 OA
ENDBRANCH   8  25
TORSDOF 3
ENDMDL
MODEL 3
REMARK VINA RESULT:      -9.2      2.550      3.172
REMARK  3 active torsions:
REMARK  status: ('A' for Active; 'I' for Inactive)
REMARK    1  A    between atoms: C_3  and  C_4 
REMARK       I    between atoms: C_4  and  N_5 
REMARK    2  A    between atoms: N_5  and  C_6 
REMARK    3  A    between atoms: C_13  and  C_14 
REMARK       I    between atoms: C_14  and  N_15 
ROOT
HETATM    1  C   UNL     1      24.944  44.187  51.371  1.00  0.00     0.035 A 
HETATM    2  C   UNL     1      24.737  45.505  50.937  1.00  0.00     0.046 A 
HETATM    3  C   UNL     1      23.888  45.754  49.839  1.00  0.00     0.030 A 
HETATM    4  C   UNL     1      23.301  44.677  49.190  1.00  0.00     0.063 A 
HETATM    5  N   UNL     1      22.559  45.224  48.180  1.00  0.00    -0.277 N 
HETATM    6  H   UNL     1      21.999  44.730  47.495  1.00  0.00     0.189 HD
HETATM    7  N   UNL     1      22.590  46.568  48.132  1.00  0.00    -0.168 NA
HETATM    8  C   UNL     1      23.407  46.909  49.153  1.00  0.00     0.156 A 
HETATM    9  C   UNL     1      23.502  43.353  49.582  1.00  0.00     0.034 A 
HETATM   10  C   UNL     1      24.329  43.131  50.694  1.00  0.00     0.032 A 
ENDROOT
BRANCH   1  11
HETATM   11  N   UNL     1      25.780  44.014  52.490  1.00  0.00    -0.325 N 
HETATM   12  C   UNL     1      25.457  44.168  53.828  1.00  0.00     0.252 C 
HETATM   13  O   UNL     1      24.368  44.512  54.282  1.00  0.00    -0.270 OA
HETATM   14  H   UNL     1      26.749  43.774  52.304  1.00  0.00     0.169 HD
BRANCH  12  15
HETATM   15  C   UNL     1      26.660  43.961  54.753  1.00  0.00     0.229 C 
HETATM   16  C   UNL     1      27.312  45.279  55.231  1.00  0.00     0.056 C 
HETATM   17  C   UNL     1      27.275  46.444  54.245  1.00  0.00     0.018 C 
HETATM   18  C   UNL     1      28.703  44.772  55.394  1.00  0.00    -0.018 A 
HETATM   19  C   UNL     1      28.837  43.567  54.719  1.00  0.00     0.076 A 
HETATM   20  C   UNL     1      29.786  45.343  56.040  1.00  0.00     0.010 A 
HETATM   21  O   UNL     1      27.680  43.148  54.116  1.00  0.00    -0.335 OA
HETATM   22  C   UNL     1      30.037  42.892  54.652  1.00  0.00     0.037 A 
HETATM   23  C   UNL     1      31.136  43.452  55.307  1.00  0.00     0.003 A 
HETATM   24  C   UNL     1      31.010  44.670  55.997  1.00  0.00     0.001 A 
ENDBRANCH  12  15
ENDBRANCH   1  11
BRANCH   8  25
HETATM   25  C   UNL     1      23.698  48.314  49.468  1.00  0.00     0.270 C 
HETATM   26  N   UNL     1      22.587  49.081  49.683  1.00  0.00    -0.365 N 
HETATM   27  H   UNL     1      21.676  48.641  49.628  1.00  0.00     0.159 HD
HETATM   28  H   UNL     1      22.688  50.052  49.935  1.00  0.00     0.159 HD
HETATM   29  O   UNL     1      24.827  48.787  49.548  1.00  0.00    -0.266 OA
ENDBRANCH   8  25
TORSDOF 3
ENDMDL
MODEL 4
REMARK VINA RESULT:      -9.0      2.126      3.014
REMARK  3 active torsions:
REMARK  status: ('A' for Active; 'I' for Inactive)
REMARK    1  A    between atoms: C_3  and  C_4 
REMARK       I    between atoms: C_4  and  N_5 
REMARK    2  A    between atoms: N_5  and  C_6 
REMARK    3  A    between atoms: C_13  and  C_14 
REMARK       I    between atoms: C_14  and  N_15 
ROOT
HETATM    1  C   UNL     1      24.257  46.224  49.638  1.00  0.00     0.035 A 
HETATM    2  C   UNL     1      23.825  47.555  49.757  1.00  0.00     0.046 A 
HETATM    3  C   UNL     1      22.640  47.964  49.113  1.00  0.00     0.030 A 
HETATM    4  C   UNL     1      21.942  47.042  48.346  1.00  0.00     0.063 A 
HETATM    5  N   UNL     1      20.867  47.723  47.849  1.00  0.00    -0.277 N 
HETATM    6  H   UNL     1      20.142  47.364  47.238  1.00  0.00     0.189 HD
HETATM    7  N   UNL     1      20.787  49.005  48.250  1.00  0.00    -0.168 NA
HETATM    8  C   UNL     1      21.876  49.167  49.033  1.00  0.00     0.156 A 
HETATM    9  C   UNL     1      22.355  45.717  48.190  1.00  0.00     0.034 A 
HETATM   10  C   UNL     1      23.523  45.325  48.862  1.00  0.00     0.032 A 
ENDROOT
BRANCH   1  11
HETATM   11  N   UNL     1      25.432  45.878  50.331  1.00  0.00    -0.325 N 
HETATM   12  C   UNL     1      25.545  45.240  51.555  1.00  0.00     0.252 C 
HETATM   13  O   UNL     1      24.620  44.878  52.278  1.00  0.00    -0.270 OA
HETATM   14  H   UNL     1      26.312  46.149  49.902  1.00  0.00     0.169 HD
BRANCH  12  15
HETATM   15  C   UNL     1      27.000  45.100  52.016  1.00  0.00     0.229 C 
HETATM   16  C   UNL     1      27.686  43.806  51.526  1.00  0.00     0.056 C 
HETATM   17  C   UNL     1      26.788  42.578  51.388  1.00  0.00     0.018 C 
HETATM   18  C   UNL     1      28.637  43.635  52.660  1.00  0.00    -0.018 A 
HETATM   19  C   UNL     1      28.227  44.422  53.727  1.00  0.00     0.076 A 
HETATM   20  C   UNL     1      29.749  42.819  52.771  1.00  0.00     0.010 A 
HETATM   21  O   UNL     1      27.100  45.155  53.464  1.00  0.00    -0.335 OA
HETATM   22  C   UNL     1      28.891  44.424  54.935  1.00  0.00     0.037 A 
HETATM   23  C   UNL     1      30.019  43.611  55.059  1.00  0.00     0.003 A 
HETATM   24  C   UNL     1      30.445  42.814  53.983  1.00  0.00     0.001 A 
ENDBRANCH  12  15
ENDBRANCH   1  11
BRANCH   8  25
HETATM   25  C   UNL     1      22.160  50.444  49.700  1.00  0.00     0.270 C 
HETATM   26  N   UNL     1      21.169  50.869  50.541  1.00  0.00    -0.365 N 
HETATM   27  H   UNL     1      20.348  50.287  50.654  1.00  0.00     0.159 HD
HETATM   28  H   UNL     1      21.288  51.720  51.068  1.00  0.00     0.159 HD
HETATM   29  O   UNL     1      23.190  51.093  49.546  1.00  0.00    -0.266 OA
ENDBRANCH   8  25
TORSDOF 3
ENDMDL
MODEL 5
REMARK VINA RESULT:      -8.8      4.268      5.945
REMARK  3 active torsions:
REMARK  status: ('A' for Active; 'I' for Inactive)
REMARK    1  A    between atoms: C_3  and  C_4 
REMARK       I    between atoms: C_4  and  N_5 
REMARK    2  A    between atoms: N_5  and  C_6 
REMARK    3  A    between atoms: C_13  and  C_14 
REMARK       I    between atoms: C_14  and  N_15 
ROOT
HETATM    1  C   UNL     1      27.092  43.799  51.006  1.00  0.00     0.035 A 
HETATM    2  C   UNL     1      27.067  42.448  50.628  1.00  0.00     0.046 A 
HETATM    3  C   UNL     1      26.250  42.038  49.555  1.00  0.00     0.030 A 
HETATM    4  C   UNL     1      25.460  42.983  48.917  1.00  0.00     0.063 A 
HETATM    5  N   UNL     1      24.785  42.296  47.948  1.00  0.00    -0.277 N 
HETATM    6  H   UNL     1      24.109  42.668  47.290  1.00  0.00     0.189 HD
HETATM    7  N   UNL     1      25.088  40.987  47.880  1.00  0.00    -0.168 NA
HETATM    8  C   UNL     1      25.994  40.814  48.867  1.00  0.00     0.156 A 
HETATM    9  C   UNL     1      25.444  44.331  49.281  1.00  0.00     0.034 A 
HETATM   10  C   UNL     1      26.286  44.721  50.334  1.00  0.00     0.032 A 
ENDROOT
BRANCH   1  11
HETATM   11  N   UNL     1      27.952  44.143  52.065  1.00  0.00    -0.325 N 
HETATM   12  C   UNL     1      27.612  44.536  53.349  1.00  0.00     0.252 C 
HETATM   13  O   UNL     1      26.474  44.681  53.791  1.00  0.00    -0.270 OA
HETATM   14  H   UNL     1      28.949  44.130  51.868  1.00  0.00     0.169 HD
BRANCH  12  15
HETATM   15  C   UNL     1      28.834  44.897  54.200  1.00  0.00     0.229 C 
HETATM   16  C   UNL     1      29.778  43.704  54.470  1.00  0.00     0.056 C 
HETATM   17  C   UNL     1      29.114  42.334  54.595  1.00  0.00     0.018 C 
HETATM   18  C   UNL     1      30.306  44.153  55.788  1.00  0.00    -0.018 A 
HETATM   19  C   UNL     1      29.481  45.143  56.301  1.00  0.00     0.076 A 
HETATM   20  C   UNL     1      31.397  43.699  56.509  1.00  0.00     0.010 A 
HETATM   21  O   UNL     1      28.436  45.466  55.476  1.00  0.00    -0.335 OA
HETATM   22  C   UNL     1      29.697  45.711  57.539  1.00  0.00     0.037 A 
HETATM   23  C   UNL     1      30.798  45.269  58.274  1.00  0.00     0.003 A 
HETATM   24  C   UNL     1      31.643  44.269  57.762  1.00  0.00     0.001 A 
ENDBRANCH  12  15
ENDBRANCH   1  11
BRANCH   8  25
HETATM   25  C   UNL     1      26.609  39.505  49.126  1.00  0.00     0.270 C 
HETATM   26  N   UNL     1      26.177  38.901  50.274  1.00  0.00    -0.365 N 
HETATM   27  H   UNL     1      25.479  39.372  50.836  1.00  0.00     0.159 HD
HETATM   28  H   UNL     1      26.520  37.985  50.519  1.00  0.00     0.159 HD
HETATM   29  O   UNL     1      27.432  38.969  48.391  1.00  0.00    -0.266 OA
ENDBRANCH   8  25
TORSDOF 3
ENDMDL
MODEL 6
REMARK VINA RESULT:      -8.7      3.038      4.040
REMARK  3 active torsions:
REMARK  status: ('A' for Active; 'I' for Inactive)
REMARK    1  A    between atoms: C_3  and  C_4 
REMARK       I    between atoms: C_4  and  N_5 
REMARK    2  A    between atoms: N_5  and  C_6 
REMARK    3  A    between atoms: C_13  and  C_14 
REMARK       I    between atoms: C_14  and  N_15 
ROOT
HETATM    1  C   UNL     1      26.035  45.821  51.363  1.00  0.00     0.035 A 
HETATM    2  C   UNL     1      25.705  44.664  50.639  1.00  0.00     0.046 A 
HETATM    3  C   UNL     1      24.676  44.713  49.677  1.00  0.00     0.030 A 
HETATM    4  C   UNL     1      23.988  45.904  49.492  1.00  0.00     0.063 A 
HETATM    5  N   UNL     1      23.062  45.641  48.523  1.00  0.00    -0.277 N 
HETATM    6  H   UNL     1      22.376  46.283  48.139  1.00  0.00     0.189 HD
HETATM    7  N   UNL     1      23.103  44.387  48.039  1.00  0.00    -0.168 NA
HETATM    8  C   UNL     1      24.098  43.802  48.743  1.00  0.00     0.156 A 
HETATM    9  C   UNL     1      24.277  47.067  50.210  1.00  0.00     0.034 A 
HETATM   10  C   UNL     1      25.323  47.002  51.143  1.00  0.00     0.032 A 
ENDROOT
BRANCH   1  11
HETATM   11  N   UNL     1      27.091  45.707  52.286  1.00  0.00    -0.325 N 
HETATM   12  C   UNL     1      27.013  45.587  53.663  1.00  0.00     0.252 C 
HETATM   13  O   UNL     1      25.986  45.582  54.339  1.00  0.00    -0.270 OA
HETATM   14  H   UNL     1      28.034  45.745  51.908  1.00  0.00     0.169 HD
BRANCH  12  15
HETATM   15  C   UNL     1      28.390  45.559  54.333  1.00  0.00     0.229 C 
HETATM   16  C   UNL     1      29.083  44.179  54.275  1.00  0.00     0.056 C 
HETATM   17  C   UNL     1      28.163  42.961  54.328  1.00  0.00     0.018 C 
HETATM   18  C   UNL     1      29.875  44.293  55.532  1.00  0.00    -0.018 A 
HETATM   19  C   UNL     1      29.363  45.324  56.307  1.00  0.00     0.076 A 
HETATM   20  C   UNL     1      30.931  43.524  55.988  1.00  0.00     0.010 A 
HETATM   21  O   UNL     1      28.308  45.974  55.722  1.00  0.00    -0.335 OA
HETATM   22  C   UNL     1      29.867  45.626  57.554  1.00  0.00     0.037 A 
HETATM   23  C   UNL     1      30.939  44.864  58.024  1.00  0.00     0.003 A 
HETATM   24  C   UNL     1      31.468  43.820  57.245  1.00  0.00     0.001 A 
ENDBRANCH  12  15
ENDBRANCH   1  11
BRANCH   8  25
HETATM   25  C   UNL     1      24.491  42.407  48.504  1.00  0.00     0.270 C 
HETATM   26  N   UNL     1      25.023  42.179  47.266  1.00  0.00    -0.365 N 
HETATM   27  H   UNL     1      25.121  42.962  46.629  1.00  0.00     0.159 HD
HETATM   28  H   UNL     1      25.350  41.258  47.021  1.00  0.00     0.159 HD
HETATM   29  O   UNL     1      24.375  41.504  49.326  1.00  0.00    -0.266 OA
ENDBRANCH   8  25
TORSDOF 3
ENDMDL
MODEL 7
REMARK VINA RESULT:      -8.6      2.834      8.742
REMARK  3 active torsions:
REMARK  status: ('A' for Active; 'I' for Inactive)
REMARK    1  A    between atoms: C_3  and  C_4 
REMARK       I    between atoms: C_4  and  N_5 
REMARK    2  A    between atoms: N_5  and  C_6 
REMARK    3  A    between atoms: C_13  and  C_14 
REMARK       I    between atoms: C_14  and  N_15 
ROOT
HETATM    1  C   UNL     1      24.526  46.890  49.761  1.00  0.00     0.035 A 
HETATM    2  C   UNL     1      24.938  47.238  51.057  1.00  0.00     0.046 A 
HETATM    3  C   UNL     1      25.734  46.344  51.800  1.00  0.00     0.030 A 
HETATM    4  C   UNL     1      26.066  45.119  51.239  1.00  0.00     0.063 A 
HETATM    5  N   UNL     1      26.818  44.480  52.184  1.00  0.00    -0.277 N 
HETATM    6  H   UNL     1      27.228  43.554  52.119  1.00  0.00     0.189 HD
HETATM    7  N   UNL     1      27.030  45.195  53.304  1.00  0.00    -0.168 NA
HETATM    8  C   UNL     1      26.366  46.350  53.079  1.00  0.00     0.156 A 
HETATM    9  C   UNL     1      25.656  44.733  49.962  1.00  0.00     0.034 A 
HETATM   10  C   UNL     1      24.886  45.650  49.230  1.00  0.00     0.032 A 
ENDROOT
BRANCH   1  11
HETATM   11  N   UNL     1      23.758  47.843  49.066  1.00  0.00    -0.325 N 
HETATM   12  C   UNL     1      24.115  49.132  48.708  1.00  0.00     0.252 C 
HETATM   13  O   UNL     1      25.180  49.691  48.961  1.00  0.00    -0.270 OA
HETATM   14  H   UNL     1      22.811  47.571  48.813  1.00  0.00     0.169 HD
BRANCH  12  15
HETATM   15  C   UNL     1      22.978  49.891  48.018  1.00  0.00     0.229 C 
HETATM   16  C   UNL     1      22.403  51.052  48.861  1.00  0.00     0.056 C 
HETATM   17  C   UNL     1      22.402  50.849  50.374  1.00  0.00     0.018 C 
HETATM   18  C   UNL     1      21.012  51.024  48.327  1.00  0.00    -0.018 A 
HETATM   19  C   UNL     1      20.793  49.820  47.674  1.00  0.00     0.076 A 
HETATM   20  C   UNL     1      19.998  51.959  48.444  1.00  0.00     0.010 A 
HETATM   21  O   UNL     1      21.890  48.998  47.662  1.00  0.00    -0.335 OA
HETATM   22  C   UNL     1      19.572  49.494  47.124  1.00  0.00     0.037 A 
HETATM   23  C   UNL     1      18.542  50.430  47.227  1.00  0.00     0.003 A 
HETATM   24  C   UNL     1      18.754  51.655  47.883  1.00  0.00     0.001 A 
ENDBRANCH  12  15
ENDBRANCH   1  11
BRANCH   8  25
HETATM   25  C   UNL     1      26.360  47.437  54.067  1.00  0.00     0.270 C 
HETATM   26  N   UNL     1      27.537  47.581  54.748  1.00  0.00    -0.365 N 
HETATM   27  H   UNL     1      28.307  46.963  54.521  1.00  0.00     0.159 HD
HETATM   28  H   UNL     1      27.638  48.321  55.425  1.00  0.00     0.159 HD
HETATM   29  O   UNL     1      25.404  48.176  54.280  1.00  0.00    -0.266 OA
ENDBRANCH   8  25
TORSDOF 3
ENDMDL
MODEL 8
REMARK VINA RESULT:      -8.5      3.625      4.586
REMARK  3 active torsions:
REMARK  status: ('A' for Active; 'I' for Inactive)
REMARK    1  A    between atoms: C_3  and  C_4 
REMARK       I    between atoms: C_4  and  N_5 
REMARK    2  A    between atoms: N_5  and  C_6 
REMARK    3  A    between atoms: C_13  and  C_14 
REMARK       I    between atoms: C_14  and  N_15 
ROOT
HETATM    1  C   UNL     1      25.805  42.828  50.291  1.00  0.00     0.035 A 
HETATM    2  C   UNL     1      24.808  43.743  49.919  1.00  0.00     0.046 A 
HETATM    3  C   UNL     1      23.774  43.335  49.052  1.00  0.00     0.030 A 
HETATM    4  C   UNL     1      23.788  42.038  48.558  1.00  0.00     0.063 A 
HETATM    5  N   UNL     1      22.689  41.945  47.752  1.00  0.00    -0.277 N 
HETATM    6  H   UNL     1      22.386  41.138  47.218  1.00  0.00     0.189 HD
HETATM    7  N   UNL     1      21.942  43.063  47.698  1.00  0.00    -0.168 NA
HETATM    8  C   UNL     1      22.602  43.930  48.498  1.00  0.00     0.156 A 
HETATM    9  C   UNL     1      24.776  41.109  48.892  1.00  0.00     0.034 A 
HETATM   10  C   UNL     1      25.780  41.530  49.778  1.00  0.00     0.032 A 
ENDROOT
BRANCH   1  11
HETATM   11  N   UNL     1      26.789  43.295  51.182  1.00  0.00    -0.325 N 
HETATM   12  C   UNL     1      26.620  43.746  52.481  1.00  0.00     0.252 C 
HETATM   13  O   UNL     1      25.556  43.843  53.088  1.00  0.00    -0.270 OA
HETATM   14  H   UNL     1      27.742  43.337  50.831  1.00  0.00     0.169 HD
BRANCH  12  15
HETATM   15  C   UNL     1      27.927  44.241  53.109  1.00  0.00     0.229 C 
HETATM   16  C   UNL     1      28.914  43.107  53.465  1.00  0.00     0.056 C 
HETATM   17  C   UNL     1      28.290  41.783  53.900  1.00  0.00     0.018 C 
HETATM   18  C   UNL     1      29.585  43.774  54.617  1.00  0.00    -0.018 A 
HETATM   19  C   UNL     1      28.811  44.841  55.047  1.00  0.00     0.076 A 
HETATM   20  C   UNL     1      30.759  43.444  55.272  1.00  0.00     0.010 A 
HETATM   21  O   UNL     1      27.672  45.022  54.306  1.00  0.00    -0.335 OA
HETATM   22  C   UNL     1      29.160  45.611  56.135  1.00  0.00     0.037 A 
HETATM   23  C   UNL     1      30.346  45.296  56.801  1.00  0.00     0.003 A 
HETATM   24  C   UNL     1      31.141  44.219  56.371  1.00  0.00     0.001 A 
ENDBRANCH  12  15
ENDBRANCH   1  11
BRANCH   8  25
HETATM   25  C   UNL     1      22.100  45.290  48.736  1.00  0.00     0.270 C 
HETATM   26  N   UNL     1      20.808  45.341  49.180  1.00  0.00    -0.365 N 
HETATM   27  H   UNL     1      20.311  44.469  49.324  1.00  0.00     0.159 HD
HETATM   28  H   UNL     1      20.386  46.230  49.400  1.00  0.00     0.159 HD
HETATM   29  O   UNL     1      22.760  46.311  48.570  1.00  0.00    -0.266 OA
ENDBRANCH   8  25
TORSDOF 3
ENDMDL
MODEL 9
REMARK VINA RESULT:      -8.5      3.785      8.341
REMARK  3 active torsions:
REMARK  status: ('A' for Active; 'I' for Inactive)
REMARK    1  A    between atoms: C_3  and  C_4 
REMARK       I    between atoms: C_4  and  N_5 
REMARK    2  A    between atoms: N_5  and  C_6 
REMARK    3  A    between atoms: C_13  and  C_14 
REMARK       I    between atoms: C_14  and  N_15 
ROOT
HETATM    1  C   UNL     1      27.099  44.028  51.309  1.00  0.00     0.035 A 
HETATM    2  C   UNL     1      26.923  42.965  50.408  1.00  0.00     0.046 A 
HETATM    3  C   UNL     1      27.592  41.745  50.629  1.00  0.00     0.030 A 
HETATM    4  C   UNL     1      28.440  41.635  51.722  1.00  0.00     0.063 A 
HETATM    5  N   UNL     1      28.942  40.365  51.665  1.00  0.00    -0.277 N 
HETATM    6  H   UNL     1      29.603  39.937  52.304  1.00  0.00     0.189 HD
HETATM    7  N   UNL     1      28.472  39.626  50.644  1.00  0.00    -0.168 NA
HETATM    8  C   UNL     1      27.636  40.467  49.996  1.00  0.00     0.156 A 
HETATM    9  C   UNL     1      28.654  42.678  52.625  1.00  0.00     0.034 A 
HETATM   10  C   UNL     1      27.956  43.875  52.400  1.00  0.00     0.032 A 
ENDROOT
BRANCH   1  11
HETATM   11  N   UNL     1      26.378  45.207  51.042  1.00  0.00    -0.325 N 
HETATM   12  C   UNL     1      26.590  46.127  50.029  1.00  0.00     0.252 C 
HETATM   13  O   UNL     1      27.478  46.088  49.181  1.00  0.00    -0.270 OA
HETATM   14  H   UNL     1      25.623  45.436  51.683  1.00  0.00     0.169 HD
BRANCH  12  15
HETATM   15  C   UNL     1      25.638  47.324  50.110  1.00  0.00     0.229 C 
HETATM   16  C   UNL     1      24.150  46.949  49.924  1.00  0.00     0.056 C 
HETATM   17  C   UNL     1      23.862  45.784  48.980  1.00  0.00     0.018 C 
HETATM   18  C   UNL     1      23.688  48.234  49.327  1.00  0.00    -0.018 A 
HETATM   19  C   UNL     1      24.786  48.958  48.885  1.00  0.00     0.076 A 
HETATM   20  C   UNL     1      22.403  48.713  49.138  1.00  0.00     0.010 A 
HETATM   21  O   UNL     1      25.983  48.338  49.129  1.00  0.00    -0.335 OA
HETATM   22  C   UNL     1      24.655  50.169  48.239  1.00  0.00     0.037 A 
HETATM   23  C   UNL     1      23.366  50.669  48.049  1.00  0.00     0.003 A 
HETATM   24  C   UNL     1      22.247  49.946  48.496  1.00  0.00     0.001 A 
ENDBRANCH  12  15
ENDBRANCH   1  11
BRANCH   8  25
HETATM   25  C   UNL     1      26.885  40.039  48.808  1.00  0.00     0.270 C 
HETATM   26  N   UNL     1      25.846  39.192  49.077  1.00  0.00    -0.365 N 
HETATM   27  H   UNL     1      25.663  38.941  50.042  1.00  0.00     0.159 HD
HETATM   28  H   UNL     1      25.254  38.869  48.328  1.00  0.00     0.159 HD
HETATM   29  O   UNL     1      27.135  40.400  47.662  1.00  0.00    -0.266 OA
ENDBRANCH   8  25
TORSDOF 3
ENDMDL
MODEL 10
REMARK VINA RESULT:      -8.5      5.758      7.926
REMARK  3 active torsions:
REMARK  status: ('A' for Active; 'I' for Inactive)
REMARK    1  A    between atoms: C_3  and  C_4 
REMARK       I    between atoms: C_4  and  N_5 
REMARK    2  A    between atoms: N_5  and  C_6 
REMARK    3  A    between atoms: C_13  and  C_14 
REMARK       I    between atoms: C_14  and  N_15 
ROOT
HETATM    1  C   UNL     1      28.824  39.660  50.600  1.00  0.00     0.035 A 
HETATM    2  C   UNL     1      28.256  40.158  49.417  1.00  0.00     0.046 A 
HETATM    3  C   UNL     1      28.322  39.394  48.234  1.00  0.00     0.030 A 
HETATM    4  C   UNL     1      28.982  38.173  48.263  1.00  0.00     0.063 A 
HETATM    5  N   UNL     1      28.891  37.682  46.991  1.00  0.00    -0.277 N 
HETATM    6  H   UNL     1      29.269  36.808  46.642  1.00  0.00     0.189 HD
HETATM    7  N   UNL     1      28.204  38.465  46.140  1.00  0.00    -0.168 NA
HETATM    8  C   UNL     1      27.845  39.526  46.896  1.00  0.00     0.156 A 
HETATM    9  C   UNL     1      29.575  37.658  49.417  1.00  0.00     0.034 A 
HETATM   10  C   UNL     1      29.474  38.424  50.588  1.00  0.00     0.032 A 
ENDROOT
BRANCH   1  11
HETATM   11  N   UNL     1      28.696  40.463  51.748  1.00  0.00    -0.325 N 
HETATM   12  C   UNL     1      27.588  41.181  52.169  1.00  0.00     0.252 C 
HETATM   13  O   UNL     1      26.508  41.263  51.589  1.00  0.00    -0.270 OA
HETATM   14  H   UNL     1      29.520  40.558  52.335  1.00  0.00     0.169 HD
BRANCH  12  15
HETATM   15  C   UNL     1      27.859  41.994  53.438  1.00  0.00     0.229 C 
HETATM   16  C   UNL     1      27.555  43.502  53.288  1.00  0.00     0.056 C 
HETATM   17  C   UNL     1      27.802  44.104  51.906  1.00  0.00     0.018 C 
HETATM   18  C   UNL     1      28.554  44.012  54.268  1.00  0.00    -0.018 A 
HETATM   19  C   UNL     1      29.482  43.017  54.539  1.00  0.00     0.076 A 
HETATM   20  C   UNL     1      28.673  45.265  54.844  1.00  0.00     0.010 A 
HETATM   21  O   UNL     1      29.235  41.844  53.876  1.00  0.00    -0.335 OA
HETATM   22  C   UNL     1      30.558  43.225  55.375  1.00  0.00     0.037 A 
HETATM   23  C   UNL     1      30.687  44.481  55.970  1.00  0.00     0.003 A 
HETATM   24  C   UNL     1      29.750  45.495  55.706  1.00  0.00     0.001 A 
ENDBRANCH  12  15
ENDBRANCH   1  11
BRANCH   8  25
HETATM   25  C   UNL     1      27.047  40.629  46.344  1.00  0.00     0.270 C 
HETATM   26  N   UNL     1      27.674  41.333  45.353  1.00  0.00    -0.365 N 
HETATM   27  H   UNL     1      28.604  41.045  45.069  1.00  0.00     0.159 HD
HETATM   28  H   UNL     1      27.193  42.089  44.892  1.00  0.00     0.159 HD
HETATM   29  O   UNL     1      25.911  40.914  46.709  1.00  0.00    -0.266 OA
ENDBRANCH   8  25
TORSDOF 3
ENDMDL
