MODEL 1
REMARK VINA RESULT:     -10.4      0.000      0.000
REMARK  6 active torsions:
REMARK  status: ('A' for Active; 'I' for Inactive)
REMARK    1  A    between atoms: N_1  and  C_2 
REMARK    2  A    between atoms: C_6  and  C_8 
REMARK    3  A    between atoms: C_13  and  C_18 
REMARK    4  A    between atoms: C_24  and  C_28 
REMARK       I    between atoms: C_28  and  N_30 
REMARK    5  A    between atoms: N_30  and  C_31 
REMARK    6  A    between atoms: C_31  and  C_32 
ROOT
HETATM    1  C   UNL     1      26.526  42.520  49.991  1.00  0.00     0.084 C 
HETATM    2  C   UNL     1      25.405  41.526  50.293  1.00  0.00     0.188 C 
HETATM    3  O   UNL     1      24.171  42.144  50.687  1.00  0.00    -0.350 OA
HETATM    4  C   UNL     1      23.788  43.223  49.936  1.00  0.00     0.075 A 
HETATM    5  C   UNL     1      22.487  43.679  50.144  1.00  0.00     0.038 A 
HETATM    6  C   UNL     1      22.018  44.810  49.468  1.00  0.00     0.020 A 
HETATM    7  C   UNL     1      22.851  45.483  48.567  1.00  0.00     0.032 A 
HETATM    8  C   UNL     1      24.165  45.028  48.380  1.00  0.00     0.027 A 
HETATM    9  C   UNL     1      24.647  43.908  49.074  1.00  0.00    -0.023 A 
HETATM   10  C   UNL     1      26.069  43.459  48.873  1.00  0.00     0.056 C 
ENDROOT
BRANCH   1  11
HETATM   11  C   UNL     1      26.987  43.288  51.201  1.00  0.00     0.111 A 
HETATM   12  N   UNL     1      26.455  44.408  51.654  1.00  0.00    -0.233 NA
HETATM   13  C   UNL     1      27.144  44.709  52.803  1.00  0.00     0.085 A 
HETATM   14  C   UNL     1      26.985  45.774  53.697  1.00  0.00     0.035 A 
HETATM   15  C   UNL     1      28.130  43.767  53.050  1.00  0.00     0.063 A 
HETATM   16  C   UNL     1      27.830  45.845  54.819  1.00  0.00     0.016 A 
HETATM   17  C   UNL     1      28.828  44.880  55.071  1.00  0.00    -0.005 A 
HETATM   18  C   UNL     1      28.984  43.818  54.154  1.00  0.00     0.045 A 
HETATM   19  N   UNL     1      28.016  42.878  52.015  1.00  0.00    -0.342 N 
HETATM   20  H   UNL     1      28.577  42.047  51.883  1.00  0.00     0.167 HD
BRANCH  17  21
HETATM   21  C   UNL     1      29.706  44.958  56.259  1.00  0.00     0.071 A 
HETATM   22  C   UNL     1      29.580  45.940  57.221  1.00  0.00     0.052 A 
HETATM   23  C   UNL     1      30.465  45.876  58.270  1.00  0.00     0.122 A 
HETATM   24  N   UNL     1      31.409  44.927  58.387  1.00  0.00    -0.231 NA
HETATM   25  C   UNL     1      31.444  44.006  57.423  1.00  0.00     0.199 A 
HETATM   26  N   UNL     1      30.642  43.985  56.357  1.00  0.00    -0.218 NA
BRANCH  25  27
HETATM   27  N   UNL     1      32.414  43.029  57.508  1.00  0.00    -0.271 NA
HETATM   28  H   UNL     1      32.485  42.555  56.619  1.00  0.00     0.127 HD
HETATM   29  H   UNL     1      32.241  42.459  58.324  1.00  0.00     0.127 HD
ENDBRANCH  25  27
ENDBRANCH  17  21
ENDBRANCH   1  11
BRANCH   7  30
HETATM   30  C   UNL     1      22.418  46.700  47.818  1.00  0.00     0.251 C 
HETATM   31  O   UNL     1      22.020  46.593  46.662  1.00  0.00    -0.268 OA
HETATM   32  N   UNL     1      22.468  47.900  48.489  1.00  0.00    -0.353 N 
HETATM   33  H   UNL     1      22.750  47.946  49.455  1.00  0.00     0.163 HD
BRANCH  32  34
HETATM   34  C   UNL     1      22.112  49.149  47.852  1.00  0.00     0.161 C 
BRANCH  34  35
HETATM   35  C   UNL     1      20.991  49.820  48.600  1.00  0.00    -0.041 A 
HETATM   36  C   UNL     1      20.686  51.167  48.351  1.00  0.00     0.009 A 
HETATM   37  C   UNL     1      19.656  51.801  49.047  1.00  0.00     0.001 A 
HETATM   38  C   UNL     1      18.928  51.099  50.006  1.00  0.00     0.000 A 
HETATM   39  C   UNL     1      19.232  49.766  50.273  1.00  0.00     0.001 A 
HETATM   40  C   UNL     1      20.260  49.128  49.576  1.00  0.00     0.009 A 
ENDBRANCH  34  35
ENDBRANCH  32  34
ENDBRANCH   7  30
TORSDOF 6
ENDMDL
MODEL 2
REMARK VINA RESULT:      -9.7      4.819     10.888
REMARK  6 active torsions:
REMARK  status: ('A' for Active; 'I' for Inactive)
REMARK    1  A    between atoms: N_1  and  C_2 
REMARK    2  A    between atoms: C_6  and  C_8 
REMARK    3  A    between atoms: C_13  and  C_18 
REMARK    4  A    between atoms: C_24  and  C_28 
REMARK       I    between atoms: C_28  and  N_30 
REMARK    5  A    between atoms: N_30  and  C_31 
REMARK    6  A    between atoms: C_31  and  C_32 
ROOT
HETATM    1  C   UNL     1      26.203  47.645  50.477  1.00  0.00     0.084 C 
HETATM    2  C   UNL     1      26.013  47.257  51.943  1.00  0.00     0.188 C 
HETATM    3  O   UNL     1      25.091  46.175  52.142  1.00  0.00    -0.350 OA
HETATM    4  C   UNL     1      25.234  45.116  51.286  1.00  0.00     0.075 A 
HETATM    5  C   UNL     1      24.520  43.964  51.617  1.00  0.00     0.038 A 
HETATM    6  C   UNL     1      24.553  42.846  50.777  1.00  0.00     0.020 A 
HETATM    7  C   UNL     1      25.316  42.874  49.604  1.00  0.00     0.032 A 
HETATM    8  C   UNL     1      26.014  44.045  49.270  1.00  0.00     0.027 A 
HETATM    9  C   UNL     1      25.965  45.176  50.098  1.00  0.00    -0.023 A 
HETATM   10  C   UNL     1      26.703  46.426  49.701  1.00  0.00     0.056 C 
ENDROOT
BRANCH   1  11
HETATM   11  C   UNL     1      24.966  48.230  49.848  1.00  0.00     0.111 A 
HETATM   12  N   UNL     1      24.928  49.289  49.061  1.00  0.00    -0.233 NA
HETATM   13  C   UNL     1      23.618  49.415  48.670  1.00  0.00     0.085 A 
HETATM   14  C   UNL     1      23.015  50.352  47.822  1.00  0.00     0.035 A 
HETATM   15  C   UNL     1      22.833  48.426  49.242  1.00  0.00     0.063 A 
HETATM   16  C   UNL     1      21.634  50.249  47.576  1.00  0.00     0.016 A 
HETATM   17  C   UNL     1      20.840  49.237  48.156  1.00  0.00    -0.005 A 
HETATM   18  C   UNL     1      21.459  48.307  49.018  1.00  0.00     0.045 A 
HETATM   19  N   UNL     1      23.710  47.690  49.992  1.00  0.00    -0.342 N 
HETATM   20  H   UNL     1      23.480  46.872  50.541  1.00  0.00     0.167 HD
BRANCH  17  21
HETATM   21  C   UNL     1      19.390  49.133  47.885  1.00  0.00     0.071 A 
HETATM   22  C   UNL     1      18.741  49.927  46.961  1.00  0.00     0.052 A 
HETATM   23  C   UNL     1      17.393  49.707  46.815  1.00  0.00     0.122 A 
HETATM   24  N   UNL     1      16.712  48.782  47.513  1.00  0.00    -0.231 NA
HETATM   25  C   UNL     1      17.424  48.046  48.368  1.00  0.00     0.199 A 
HETATM   26  N   UNL     1      18.731  48.188  48.594  1.00  0.00    -0.218 NA
BRANCH  25  27
HETATM   27  N   UNL     1      16.748  47.099  49.111  1.00  0.00    -0.271 NA
HETATM   28  H   UNL     1      15.812  46.999  48.746  1.00  0.00     0.127 HD
HETATM   29  H   UNL     1      16.842  47.319  50.092  1.00  0.00     0.127 HD
ENDBRANCH  25  27
ENDBRANCH  17  21
ENDBRANCH   1  11
BRANCH   7  30
HETATM   30  C   UNL     1      25.390  41.721  48.658  1.00  0.00     0.251 C 
HETATM   31  O   UNL     1      24.521  40.855  48.685  1.00  0.00    -0.268 OA
HETATM   32  N   UNL     1      26.442  41.705  47.771  1.00  0.00    -0.353 N 
HETATM   33  H   UNL     1      27.109  42.459  47.740  1.00  0.00     0.163 HD
BRANCH  32  34
HETATM   34  C   UNL     1      26.639  40.619  46.836  1.00  0.00     0.161 C 
BRANCH  34  35
HETATM   35  C   UNL     1      27.638  39.632  47.379  1.00  0.00    -0.041 A 
HETATM   36  C   UNL     1      28.376  39.941  48.532  1.00  0.00     0.009 A 
HETATM   37  C   UNL     1      29.312  39.037  49.036  1.00  0.00     0.001 A 
HETATM   38  C   UNL     1      29.528  37.822  48.388  1.00  0.00     0.000 A 
HETATM   39  C   UNL     1      28.811  37.511  47.234  1.00  0.00     0.001 A 
HETATM   40  C   UNL     1      27.872  38.412  46.729  1.00  0.00     0.009 A 
ENDBRANCH  34  35
ENDBRANCH  32  34
ENDBRANCH   7  30
TORSDOF 6
ENDMDL
MODEL 3
REMARK VINA RESULT:      -9.7      3.403      5.682
REMARK  6 active torsions:
REMARK  status: ('A' for Active; 'I' for Inactive)
REMARK    1  A    between atoms: N_1  and  C_2 
REMARK    2  A    between atoms: C_6  and  C_8 
REMARK    3  A    between atoms: C_13  and  C_18 
REMARK    4  A    between atoms: C_24  and  C_28 
REMARK       I    between atoms: C_28  and  N_30 
REMARK    5  A    between atoms: N_30  and  C_31 
REMARK    6  A    between atoms: C_31  and  C_32 
ROOT
HETATM    1  C   UNL     1      22.344  46.203  47.465  1.00  0.00     0.084 C 
HETATM    2  C   UNL     1      21.161  45.273  47.201  1.00  0.00     0.188 C 
HETATM    3  O   UNL     1      20.089  45.414  48.146  1.00  0.00    -0.350 OA
HETATM    4  C   UNL     1      19.744  46.702  48.455  1.00  0.00     0.075 A 
HETATM    5  C   UNL     1      18.559  46.860  49.173  1.00  0.00     0.038 A 
HETATM    6  C   UNL     1      18.147  48.131  49.587  1.00  0.00     0.020 A 
HETATM    7  C   UNL     1      18.918  49.255  49.270  1.00  0.00     0.032 A 
HETATM    8  C   UNL     1      20.120  49.083  48.565  1.00  0.00     0.027 A 
HETATM    9  C   UNL     1      20.548  47.807  48.168  1.00  0.00    -0.023 A 
HETATM   10  C   UNL     1      21.854  47.651  47.437  1.00  0.00     0.056 C 
ENDROOT
BRANCH   1  11
HETATM   11  C   UNL     1      23.076  45.892  48.743  1.00  0.00     0.111 A 
HETATM   12  N   UNL     1      23.335  44.686  49.211  1.00  0.00    -0.233 NA
HETATM   13  C   UNL     1      24.073  44.880  50.353  1.00  0.00     0.085 A 
HETATM   14  C   UNL     1      24.630  43.948  51.236  1.00  0.00     0.035 A 
HETATM   15  C   UNL     1      24.255  46.231  50.601  1.00  0.00     0.063 A 
HETATM   16  C   UNL     1      25.360  44.419  52.342  1.00  0.00     0.016 A 
HETATM   17  C   UNL     1      25.548  45.795  52.588  1.00  0.00    -0.005 A 
HETATM   18  C   UNL     1      24.971  46.723  51.695  1.00  0.00     0.045 A 
HETATM   19  N   UNL     1      23.606  46.855  49.570  1.00  0.00    -0.342 N 
HETATM   20  H   UNL     1      23.546  47.854  49.425  1.00  0.00     0.167 HD
BRANCH  17  21
HETATM   21  C   UNL     1      26.325  46.281  53.749  1.00  0.00     0.071 A 
HETATM   22  C   UNL     1      27.473  45.658  54.197  1.00  0.00     0.052 A 
HETATM   23  C   UNL     1      28.088  46.232  55.283  1.00  0.00     0.122 A 
HETATM   24  N   UNL     1      27.629  47.335  55.898  1.00  0.00    -0.231 NA
HETATM   25  C   UNL     1      26.527  47.882  55.385  1.00  0.00     0.199 A 
HETATM   26  N   UNL     1      25.847  47.398  54.345  1.00  0.00    -0.218 NA
BRANCH  25  27
HETATM   27  N   UNL     1      26.023  49.007  56.007  1.00  0.00    -0.271 NA
HETATM   28  H   UNL     1      25.028  49.056  55.845  1.00  0.00     0.127 HD
HETATM   29  H   UNL     1      26.576  49.809  55.741  1.00  0.00     0.127 HD
ENDBRANCH  25  27
ENDBRANCH  17  21
ENDBRANCH   1  11
BRANCH   7  30
HETATM   30  C   UNL     1      18.543  50.639  49.686  1.00  0.00     0.251 C 
HETATM   31  O   UNL     1      19.405  51.401  50.111  1.00  0.00    -0.268 OA
HETATM   32  N   UNL     1      17.223  51.000  49.543  1.00  0.00    -0.353 N 
HETATM   33  H   UNL     1      16.550  50.367  49.141  1.00  0.00     0.163 HD
BRANCH  32  34
HETATM   34  C   UNL     1      16.736  52.300  49.949  1.00  0.00     0.161 C 
BRANCH  34  35
HETATM   35  C   UNL     1      15.796  52.857  48.913  1.00  0.00    -0.041 A 
HETATM   36  C   UNL     1      15.832  52.371  47.597  1.00  0.00     0.009 A 
HETATM   37  C   UNL     1      14.973  52.889  46.627  1.00  0.00     0.001 A 
HETATM   38  C   UNL     1      14.078  53.905  46.960  1.00  0.00     0.000 A 
HETATM   39  C   UNL     1      14.044  54.405  48.260  1.00  0.00     0.001 A 
HETATM   40  C   UNL     1      14.900  53.887  49.233  1.00  0.00     0.009 A 
ENDBRANCH  34  35
ENDBRANCH  32  34
ENDBRANCH   7  30
TORSDOF 6
ENDMDL
MODEL 4
REMARK VINA RESULT:      -9.6      6.784     11.583
REMARK  6 active torsions:
REMARK  status: ('A' for Active; 'I' for Inactive)
REMARK    1  A    between atoms: N_1  and  C_2 
REMARK    2  A    between atoms: C_6  and  C_8 
REMARK    3  A    between atoms: C_13  and  C_18 
REMARK    4  A    between atoms: C_24  and  C_28 
REMARK       I    between atoms: C_28  and  N_30 
REMARK    5  A    between atoms: N_30  and  C_31 
REMARK    6  A    between atoms: C_31  and  C_32 
ROOT
HETATM    1  C   UNL     1      25.742  38.625  46.963  1.00  0.00     0.084 C 
HETATM    2  C   UNL     1      26.158  37.507  47.919  1.00  0.00     0.188 C 
HETATM    3  O   UNL     1      27.290  37.836  48.738  1.00  0.00    -0.350 OA
HETATM    4  C   UNL     1      27.267  39.085  49.298  1.00  0.00     0.075 A 
HETATM    5  C   UNL     1      28.224  39.330  50.283  1.00  0.00     0.038 A 
HETATM    6  C   UNL     1      28.321  40.592  50.876  1.00  0.00     0.020 A 
HETATM    7  C   UNL     1      27.448  41.616  50.492  1.00  0.00     0.032 A 
HETATM    8  C   UNL     1      26.502  41.366  49.486  1.00  0.00     0.027 A 
HETATM    9  C   UNL     1      26.416  40.107  48.871  1.00  0.00    -0.023 A 
HETATM   10  C   UNL     1      25.411  39.877  47.777  1.00  0.00     0.056 C 
ENDROOT
BRANCH   1  11
HETATM   11  C   UNL     1      26.765  38.915  45.898  1.00  0.00     0.111 A 
HETATM   12  N   UNL     1      27.074  40.109  45.429  1.00  0.00    -0.233 NA
HETATM   13  C   UNL     1      28.095  39.904  44.533  1.00  0.00     0.085 A 
HETATM   14  C   UNL     1      28.814  40.823  43.759  1.00  0.00     0.035 A 
HETATM   15  C   UNL     1      28.406  38.557  44.437  1.00  0.00     0.063 A 
HETATM   16  C   UNL     1      29.832  40.344  42.916  1.00  0.00     0.016 A 
HETATM   17  C   UNL     1      30.150  38.972  42.826  1.00  0.00    -0.005 A 
HETATM   18  C   UNL     1      29.409  38.057  43.603  1.00  0.00     0.045 A 
HETATM   19  N   UNL     1      27.544  37.947  45.308  1.00  0.00    -0.342 N 
HETATM   20  H   UNL     1      27.501  36.956  45.503  1.00  0.00     0.167 HD
BRANCH  17  21
HETATM   21  C   UNL     1      31.229  38.479  41.942  1.00  0.00     0.071 A 
HETATM   22  C   UNL     1      31.642  37.162  41.927  1.00  0.00     0.052 A 
HETATM   23  C   UNL     1      32.651  36.855  41.045  1.00  0.00     0.122 A 
HETATM   24  N   UNL     1      33.225  37.757  40.232  1.00  0.00    -0.231 NA
HETATM   25  C   UNL     1      32.749  39.000  40.298  1.00  0.00     0.199 A 
HETATM   26  N   UNL     1      31.784  39.406  41.126  1.00  0.00    -0.218 NA
BRANCH  25  27
HETATM   27  N   UNL     1      33.331  39.952  39.486  1.00  0.00    -0.271 NA
HETATM   28  H   UNL     1      34.235  39.619  39.183  1.00  0.00     0.127 HD
HETATM   29  H   UNL     1      33.299  40.848  39.950  1.00  0.00     0.127 HD
ENDBRANCH  25  27
ENDBRANCH  17  21
ENDBRANCH   1  11
BRANCH   7  30
HETATM   30  C   UNL     1      27.500  42.988  51.078  1.00  0.00     0.251 C 
HETATM   31  O   UNL     1      27.467  43.967  50.338  1.00  0.00    -0.268 OA
HETATM   32  N   UNL     1      27.559  43.083  52.449  1.00  0.00    -0.353 N 
HETATM   33  H   UNL     1      27.532  42.260  53.030  1.00  0.00     0.163 HD
BRANCH  32  34
HETATM   34  C   UNL     1      27.654  44.358  53.125  1.00  0.00     0.161 C 
BRANCH  34  35
HETATM   35  C   UNL     1      28.741  44.322  54.166  1.00  0.00    -0.041 A 
HETATM   36  C   UNL     1      28.846  45.354  55.110  1.00  0.00     0.009 A 
HETATM   37  C   UNL     1      29.857  45.336  56.072  1.00  0.00     0.001 A 
HETATM   38  C   UNL     1      30.780  44.292  56.092  1.00  0.00     0.000 A 
HETATM   39  C   UNL     1      30.696  43.269  55.150  1.00  0.00     0.001 A 
HETATM   40  C   UNL     1      29.683  43.283  54.189  1.00  0.00     0.009 A 
ENDBRANCH  34  35
ENDBRANCH  32  34
ENDBRANCH   7  30
TORSDOF 6
ENDMDL
MODEL 5
REMARK VINA RESULT:      -9.6      6.781     12.000
REMARK  6 active torsions:
REMARK  status: ('A' for Active; 'I' for Inactive)
REMARK    1  A    between atoms: N_1  and  C_2 
REMARK    2  A    between atoms: C_6  and  C_8 
REMARK    3  A    between atoms: C_13  and  C_18 
REMARK    4  A    between atoms: C_24  and  C_28 
REMARK       I    between atoms: C_28  and  N_30 
REMARK    5  A    between atoms: N_30  and  C_31 
REMARK    6  A    between atoms: C_31  and  C_32 
ROOT
HETATM    1  C   UNL     1      22.803  41.115  46.271  1.00  0.00     0.084 C 
HETATM    2  C   UNL     1      22.264  42.498  46.632  1.00  0.00     0.188 C 
HETATM    3  O   UNL     1      22.237  42.760  48.044  1.00  0.00    -0.350 OA
HETATM    4  C   UNL     1      23.361  42.389  48.732  1.00  0.00     0.075 A 
HETATM    5  C   UNL     1      23.454  42.853  50.044  1.00  0.00     0.038 A 
HETATM    6  C   UNL     1      24.535  42.483  50.850  1.00  0.00     0.020 A 
HETATM    7  C   UNL     1      25.539  41.653  50.337  1.00  0.00     0.032 A 
HETATM    8  C   UNL     1      25.426  41.175  49.023  1.00  0.00     0.027 A 
HETATM    9  C   UNL     1      24.331  41.525  48.218  1.00  0.00    -0.023 A 
HETATM   10  C   UNL     1      24.223  40.976  46.822  1.00  0.00     0.056 C 
ENDROOT
BRANCH   1  11
HETATM   11  C   UNL     1      21.919  39.988  46.733  1.00  0.00     0.111 A 
HETATM   12  N   UNL     1      20.680  40.109  47.171  1.00  0.00    -0.233 NA
HETATM   13  C   UNL     1      20.244  38.829  47.413  1.00  0.00     0.085 A 
HETATM   14  C   UNL     1      19.004  38.370  47.871  1.00  0.00     0.035 A 
HETATM   15  C   UNL     1      21.241  37.906  47.136  1.00  0.00     0.063 A 
HETATM   16  C   UNL     1      18.812  36.985  48.026  1.00  0.00     0.016 A 
HETATM   17  C   UNL     1      19.827  36.049  47.737  1.00  0.00    -0.005 A 
HETATM   18  C   UNL     1      21.077  36.527  47.287  1.00  0.00     0.045 A 
HETATM   19  N   UNL     1      22.298  38.666  46.712  1.00  0.00    -0.342 N 
HETATM   20  H   UNL     1      23.198  38.315  46.412  1.00  0.00     0.167 HD
BRANCH  17  21
HETATM   21  C   UNL     1      19.613  34.594  47.895  1.00  0.00     0.071 A 
HETATM   22  C   UNL     1      20.460  33.786  48.627  1.00  0.00     0.052 A 
HETATM   23  C   UNL     1      20.125  32.456  48.689  1.00  0.00     0.122 A 
HETATM   24  N   UNL     1      19.044  31.935  48.084  1.00  0.00    -0.231 NA
HETATM   25  C   UNL     1      18.270  32.791  47.417  1.00  0.00     0.199 A 
HETATM   26  N   UNL     1      18.512  34.096  47.285  1.00  0.00    -0.218 NA
BRANCH  25  27
HETATM   27  N   UNL     1      17.161  32.281  46.773  1.00  0.00    -0.271 NA
HETATM   28  H   UNL     1      17.458  31.579  46.111  1.00  0.00     0.127 HD
HETATM   29  H   UNL     1      16.603  33.045  46.419  1.00  0.00     0.127 HD
ENDBRANCH  25  27
ENDBRANCH  17  21
ENDBRANCH   1  11
BRANCH   7  30
HETATM   30  C   UNL     1      26.717  41.212  51.143  1.00  0.00     0.251 C 
HETATM   31  O   UNL     1      27.447  40.324  50.717  1.00  0.00    -0.268 OA
HETATM   32  N   UNL     1      26.938  41.861  52.336  1.00  0.00    -0.353 N 
HETATM   33  H   UNL     1      26.349  42.623  52.632  1.00  0.00     0.163 HD
BRANCH  32  34
HETATM   34  C   UNL     1      28.023  41.494  53.218  1.00  0.00     0.161 C 
BRANCH  34  35
HETATM   35  C   UNL     1      28.512  42.696  53.981  1.00  0.00    -0.041 A 
HETATM   36  C   UNL     1      29.808  42.710  54.517  1.00  0.00     0.009 A 
HETATM   37  C   UNL     1      30.267  43.815  55.235  1.00  0.00     0.001 A 
HETATM   38  C   UNL     1      29.431  44.912  55.433  1.00  0.00     0.000 A 
HETATM   39  C   UNL     1      28.136  44.905  54.918  1.00  0.00     0.001 A 
HETATM   40  C   UNL     1      27.676  43.801  54.197  1.00  0.00     0.009 A 
ENDBRANCH  34  35
ENDBRANCH  32  34
ENDBRANCH   7  30
TORSDOF 6
ENDMDL
MODEL 6
REMARK VINA RESULT:      -9.5      4.024      9.985
REMARK  6 active torsions:
REMARK  status: ('A' for Active; 'I' for Inactive)
REMARK    1  A    between atoms: N_1  and  C_2 
REMARK    2  A    between atoms: C_6  and  C_8 
REMARK    3  A    between atoms: C_13  and  C_18 
REMARK    4  A    between atoms: C_24  and  C_28 
REMARK       I    between atoms: C_28  and  N_30 
REMARK    5  A    between atoms: N_30  and  C_31 
REMARK    6  A    between atoms: C_31  and  C_32 
ROOT
HETATM    1  C   UNL     1      24.975  44.701  49.161  1.00  0.00     0.084 C 
HETATM    2  C   UNL     1      23.612  44.475  49.814  1.00  0.00     0.188 C 
HETATM    3  O   UNL     1      23.688  44.025  51.175  1.00  0.00    -0.350 OA
HETATM    4  C   UNL     1      24.595  44.683  51.962  1.00  0.00     0.075 A 
HETATM    5  C   UNL     1      24.511  44.432  53.331  1.00  0.00     0.038 A 
HETATM    6  C   UNL     1      25.428  45.010  54.214  1.00  0.00     0.020 A 
HETATM    7  C   UNL     1      26.429  45.859  53.728  1.00  0.00     0.032 A 
HETATM    8  C   UNL     1      26.518  46.089  52.346  1.00  0.00     0.027 A 
HETATM    9  C   UNL     1      25.614  45.492  51.454  1.00  0.00    -0.023 A 
HETATM   10  C   UNL     1      25.751  45.737  49.977  1.00  0.00     0.056 C 
ENDROOT
BRANCH   1  11
HETATM   11  C   UNL     1      25.769  43.436  48.978  1.00  0.00     0.111 A 
HETATM   12  N   UNL     1      26.835  43.086  49.673  1.00  0.00    -0.233 NA
HETATM   13  C   UNL     1      27.185  41.839  49.217  1.00  0.00     0.085 A 
HETATM   14  C   UNL     1      28.225  40.991  49.615  1.00  0.00     0.035 A 
HETATM   15  C   UNL     1      26.328  41.422  48.210  1.00  0.00     0.063 A 
HETATM   16  C   UNL     1      28.358  39.743  48.982  1.00  0.00     0.016 A 
HETATM   17  C   UNL     1      27.480  39.320  47.962  1.00  0.00    -0.005 A 
HETATM   18  C   UNL     1      26.443  40.190  47.563  1.00  0.00     0.045 A 
HETATM   19  N   UNL     1      25.442  42.456  48.071  1.00  0.00    -0.342 N 
HETATM   20  H   UNL     1      24.663  42.486  47.426  1.00  0.00     0.167 HD
BRANCH  17  21
HETATM   21  C   UNL     1      27.623  38.001  47.308  1.00  0.00     0.071 A 
HETATM   22  C   UNL     1      28.675  37.689  46.471  1.00  0.00     0.052 A 
HETATM   23  C   UNL     1      28.674  36.420  45.945  1.00  0.00     0.122 A 
HETATM   24  N   UNL     1      27.722  35.509  46.207  1.00  0.00    -0.231 NA
HETATM   25  C   UNL     1      26.755  35.889  47.043  1.00  0.00     0.199 A 
HETATM   26  N   UNL     1      26.656  37.099  47.597  1.00  0.00    -0.218 NA
BRANCH  25  27
HETATM   27  N   UNL     1      25.754  34.980  47.318  1.00  0.00    -0.271 NA
HETATM   28  H   UNL     1      24.941  35.475  47.655  1.00  0.00     0.127 HD
HETATM   29  H   UNL     1      26.125  34.245  47.903  1.00  0.00     0.127 HD
ENDBRANCH  25  27
ENDBRANCH  17  21
ENDBRANCH   1  11
BRANCH   7  30
HETATM   30  C   UNL     1      27.445  46.504  54.612  1.00  0.00     0.251 C 
HETATM   31  O   UNL     1      27.826  47.645  54.369  1.00  0.00    -0.268 OA
HETATM   32  N   UNL     1      27.889  45.776  55.691  1.00  0.00    -0.353 N 
HETATM   33  H   UNL     1      27.516  44.862  55.893  1.00  0.00     0.163 HD
BRANCH  32  34
HETATM   34  C   UNL     1      28.900  46.282  56.593  1.00  0.00     0.161 C 
BRANCH  34  35
HETATM   35  C   UNL     1      29.997  45.268  56.777  1.00  0.00    -0.041 A 
HETATM   36  C   UNL     1      30.263  44.329  55.769  1.00  0.00     0.009 A 
HETATM   37  C   UNL     1      31.270  43.378  55.934  1.00  0.00     0.001 A 
HETATM   38  C   UNL     1      32.014  43.348  57.112  1.00  0.00     0.000 A 
HETATM   39  C   UNL     1      31.749  44.266  58.127  1.00  0.00     0.001 A 
HETATM   40  C   UNL     1      30.744  45.221  57.962  1.00  0.00     0.009 A 
ENDBRANCH  34  35
ENDBRANCH  32  34
ENDBRANCH   7  30
TORSDOF 6
ENDMDL
MODEL 7
REMARK VINA RESULT:      -9.5      4.735     10.720
REMARK  6 active torsions:
REMARK  status: ('A' for Active; 'I' for Inactive)
REMARK    1  A    between atoms: N_1  and  C_2 
REMARK    2  A    between atoms: C_6  and  C_8 
REMARK    3  A    between atoms: C_13  and  C_18 
REMARK    4  A    between atoms: C_24  and  C_28 
REMARK       I    between atoms: C_28  and  N_30 
REMARK    5  A    between atoms: N_30  and  C_31 
REMARK    6  A    between atoms: C_31  and  C_32 
ROOT
HETATM    1  C   UNL     1      26.020  46.404  51.044  1.00  0.00     0.084 C 
HETATM    2  C   UNL     1      25.265  45.750  52.200  1.00  0.00     0.188 C 
HETATM    3  O   UNL     1      24.152  44.944  51.784  1.00  0.00    -0.350 OA
HETATM    4  C   UNL     1      24.390  44.118  50.719  1.00  0.00     0.075 A 
HETATM    5  C   UNL     1      23.410  43.160  50.460  1.00  0.00     0.038 A 
HETATM    6  C   UNL     1      23.532  42.304  49.360  1.00  0.00     0.020 A 
HETATM    7  C   UNL     1      24.647  42.397  48.520  1.00  0.00     0.032 A 
HETATM    8  C   UNL     1      25.617  43.378  48.778  1.00  0.00     0.027 A 
HETATM    9  C   UNL     1      25.488  44.253  49.867  1.00  0.00    -0.023 A 
HETATM   10  C   UNL     1      26.531  45.312  50.102  1.00  0.00     0.056 C 
ENDROOT
BRANCH   1  11
HETATM   11  C   UNL     1      25.209  47.434  50.304  1.00  0.00     0.111 A 
HETATM   12  N   UNL     1      25.680  48.312  49.439  1.00  0.00    -0.233 NA
HETATM   13  C   UNL     1      24.585  48.994  48.968  1.00  0.00     0.085 A 
HETATM   14  C   UNL     1      24.501  50.020  48.019  1.00  0.00     0.035 A 
HETATM   15  C   UNL     1      23.421  48.538  49.567  1.00  0.00     0.063 A 
HETATM   16  C   UNL     1      23.235  50.546  47.705  1.00  0.00     0.016 A 
HETATM   17  C   UNL     1      22.053  50.075  48.313  1.00  0.00    -0.005 A 
HETATM   18  C   UNL     1      22.154  49.048  49.276  1.00  0.00     0.045 A 
HETATM   19  N   UNL     1      23.844  47.552  50.418  1.00  0.00    -0.342 N 
HETATM   20  H   UNL     1      23.251  46.988  51.013  1.00  0.00     0.167 HD
BRANCH  17  21
HETATM   21  C   UNL     1      20.725  50.629  47.969  1.00  0.00     0.071 A 
HETATM   22  C   UNL     1      20.205  51.757  48.570  1.00  0.00     0.052 A 
HETATM   23  C   UNL     1      18.962  52.154  48.139  1.00  0.00     0.122 A 
HETATM   24  N   UNL     1      18.265  51.507  47.190  1.00  0.00    -0.231 NA
HETATM   25  C   UNL     1      18.853  50.440  46.649  1.00  0.00     0.199 A 
HETATM   26  N   UNL     1      20.048  49.964  47.004  1.00  0.00    -0.218 NA
BRANCH  25  27
HETATM   27  N   UNL     1      18.153  49.746  45.683  1.00  0.00    -0.271 NA
HETATM   28  H   UNL     1      18.755  49.589  44.887  1.00  0.00     0.127 HD
HETATM   29  H   UNL     1      17.273  50.210  45.514  1.00  0.00     0.127 HD
ENDBRANCH  25  27
ENDBRANCH  17  21
ENDBRANCH   1  11
BRANCH   7  30
HETATM   30  C   UNL     1      24.837  41.522  47.325  1.00  0.00     0.251 C 
HETATM   31  O   UNL     1      23.880  40.912  46.859  1.00  0.00    -0.268 OA
HETATM   32  N   UNL     1      26.101  41.465  46.784  1.00  0.00    -0.353 N 
HETATM   33  H   UNL     1      26.853  42.020  47.159  1.00  0.00     0.163 HD
BRANCH  32  34
HETATM   34  C   UNL     1      26.413  40.622  45.652  1.00  0.00     0.161 C 
BRANCH  34  35
HETATM   35  C   UNL     1      27.266  39.458  46.082  1.00  0.00    -0.041 A 
HETATM   36  C   UNL     1      27.722  39.372  47.406  1.00  0.00     0.009 A 
HETATM   37  C   UNL     1      28.523  38.304  47.811  1.00  0.00     0.001 A 
HETATM   38  C   UNL     1      28.884  37.316  46.895  1.00  0.00     0.000 A 
HETATM   39  C   UNL     1      28.449  37.399  45.574  1.00  0.00     0.001 A 
HETATM   40  C   UNL     1      27.645  38.466  45.167  1.00  0.00     0.009 A 
ENDBRANCH  34  35
ENDBRANCH  32  34
ENDBRANCH   7  30
TORSDOF 6
ENDMDL
MODEL 8
REMARK VINA RESULT:      -9.4     12.255     15.791
REMARK  6 active torsions:
REMARK  status: ('A' for Active; 'I' for Inactive)
REMARK    1  A    between atoms: N_1  and  C_2 
REMARK    2  A    between atoms: C_6  and  C_8 
REMARK    3  A    between atoms: C_13  and  C_18 
REMARK    4  A    between atoms: C_24  and  C_28 
REMARK       I    between atoms: C_28  and  N_30 
REMARK    5  A    between atoms: N_30  and  C_31 
REMARK    6  A    between atoms: C_31  and  C_32 
ROOT
HETATM    1  C   UNL     1      30.144  51.963  39.627  1.00  0.00     0.084 C 
HETATM    2  C   UNL     1      29.489  52.694  40.797  1.00  0.00     0.188 C 
HETATM    3  O   UNL     1      29.938  52.247  42.086  1.00  0.00    -0.350 OA
HETATM    4  C   UNL     1      31.290  52.072  42.208  1.00  0.00     0.075 A 
HETATM    5  C   UNL     1      31.765  51.880  43.505  1.00  0.00     0.038 A 
HETATM    6  C   UNL     1      33.123  51.635  43.732  1.00  0.00     0.020 A 
HETATM    7  C   UNL     1      34.018  51.596  42.656  1.00  0.00     0.032 A 
HETATM    8  C   UNL     1      33.526  51.771  41.353  1.00  0.00     0.027 A 
HETATM    9  C   UNL     1      32.161  51.993  41.119  1.00  0.00    -0.023 A 
HETATM   10  C   UNL     1      31.660  52.151  39.709  1.00  0.00     0.056 C 
ENDROOT
BRANCH   1  11
HETATM   11  C   UNL     1      29.773  50.506  39.547  1.00  0.00     0.111 A 
HETATM   12  N   UNL     1      30.221  49.644  38.654  1.00  0.00    -0.233 NA
HETATM   13  C   UNL     1      29.677  48.432  39.002  1.00  0.00     0.085 A 
HETATM   14  C   UNL     1      29.830  47.171  38.413  1.00  0.00     0.035 A 
HETATM   15  C   UNL     1      28.865  48.556  40.119  1.00  0.00     0.063 A 
HETATM   16  C   UNL     1      29.158  46.074  38.981  1.00  0.00     0.016 A 
HETATM   17  C   UNL     1      28.338  46.204  40.122  1.00  0.00    -0.005 A 
HETATM   18  C   UNL     1      28.184  47.483  40.698  1.00  0.00     0.045 A 
HETATM   19  N   UNL     1      28.936  49.884  40.443  1.00  0.00    -0.342 N 
HETATM   20  H   UNL     1      28.471  50.330  41.223  1.00  0.00     0.167 HD
BRANCH  17  21
HETATM   21  C   UNL     1      27.643  45.042  40.718  1.00  0.00     0.071 A 
HETATM   22  C   UNL     1      26.452  45.154  41.406  1.00  0.00     0.052 A 
HETATM   23  C   UNL     1      25.924  43.983  41.895  1.00  0.00     0.122 A 
HETATM   24  N   UNL     1      26.505  42.782  41.732  1.00  0.00    -0.231 NA
HETATM   25  C   UNL     1      27.642  42.766  41.036  1.00  0.00     0.199 A 
HETATM   26  N   UNL     1      28.244  43.844  40.531  1.00  0.00    -0.218 NA
BRANCH  25  27
HETATM   27  N   UNL     1      28.270  41.549  40.868  1.00  0.00    -0.271 NA
HETATM   28  H   UNL     1      28.088  40.968  41.674  1.00  0.00     0.127 HD
HETATM   29  H   UNL     1      29.236  41.706  40.618  1.00  0.00     0.127 HD
ENDBRANCH  25  27
ENDBRANCH  17  21
ENDBRANCH   1  11
BRANCH   7  30
HETATM   30  C   UNL     1      35.477  51.333  42.824  1.00  0.00     0.251 C 
HETATM   31  O   UNL     1      36.037  50.520  42.095  1.00  0.00    -0.268 OA
HETATM   32  N   UNL     1      36.136  52.052  43.794  1.00  0.00    -0.353 N 
HETATM   33  H   UNL     1      35.658  52.751  44.340  1.00  0.00     0.163 HD
BRANCH  32  34
HETATM   34  C   UNL     1      37.541  51.853  44.074  1.00  0.00     0.161 C 
BRANCH  34  35
HETATM   35  C   UNL     1      38.010  52.820  45.129  1.00  0.00    -0.041 A 
HETATM   36  C   UNL     1      37.440  54.100  45.212  1.00  0.00     0.009 A 
HETATM   37  C   UNL     1      37.875  55.008  46.179  1.00  0.00     0.001 A 
HETATM   38  C   UNL     1      38.891  54.649  47.064  1.00  0.00     0.000 A 
HETATM   39  C   UNL     1      39.474  53.387  46.981  1.00  0.00     0.001 A 
HETATM   40  C   UNL     1      39.039  52.476  46.017  1.00  0.00     0.009 A 
ENDBRANCH  34  35
ENDBRANCH  32  34
ENDBRANCH   7  30
TORSDOF 6
ENDMDL
MODEL 9
REMARK VINA RESULT:      -9.4      4.108      7.345
REMARK  6 active torsions:
REMARK  status: ('A' for Active; 'I' for Inactive)
REMARK    1  A    between atoms: N_1  and  C_2 
REMARK    2  A    between atoms: C_6  and  C_8 
REMARK    3  A    between atoms: C_13  and  C_18 
REMARK    4  A    between atoms: C_24  and  C_28 
REMARK       I    between atoms: C_28  and  N_30 
REMARK    5  A    between atoms: N_30  and  C_31 
REMARK    6  A    between atoms: C_31  and  C_32 
ROOT
HETATM    1  C   UNL     1      25.010  44.313  51.455  1.00  0.00     0.084 C 
HETATM    2  C   UNL     1      26.349  44.824  51.989  1.00  0.00     0.188 C 
HETATM    3  O   UNL     1      27.039  45.697  51.083  1.00  0.00    -0.350 OA
HETATM    4  C   UNL     1      26.264  46.652  50.481  1.00  0.00     0.075 A 
HETATM    5  C   UNL     1      26.952  47.653  49.796  1.00  0.00     0.038 A 
HETATM    6  C   UNL     1      26.252  48.643  49.100  1.00  0.00     0.020 A 
HETATM    7  C   UNL     1      24.852  48.641  49.098  1.00  0.00     0.032 A 
HETATM    8  C   UNL     1      24.170  47.618  49.773  1.00  0.00     0.027 A 
HETATM    9  C   UNL     1      24.869  46.609  50.454  1.00  0.00    -0.023 A 
HETATM   10  C   UNL     1      24.110  45.510  51.146  1.00  0.00     0.056 C 
ENDROOT
BRANCH   1  11
HETATM   11  C   UNL     1      25.148  43.405  50.263  1.00  0.00     0.111 A 
HETATM   12  N   UNL     1      24.231  43.205  49.335  1.00  0.00    -0.233 NA
HETATM   13  C   UNL     1      24.809  42.363  48.417  1.00  0.00     0.085 A 
HETATM   14  C   UNL     1      24.296  41.841  47.224  1.00  0.00     0.035 A 
HETATM   15  C   UNL     1      26.099  42.025  48.797  1.00  0.00     0.063 A 
HETATM   16  C   UNL     1      25.113  40.996  46.450  1.00  0.00     0.016 A 
HETATM   17  C   UNL     1      26.427  40.660  46.838  1.00  0.00    -0.005 A 
HETATM   18  C   UNL     1      26.927  41.185  48.049  1.00  0.00     0.045 A 
HETATM   19  N   UNL     1      26.289  42.693  49.977  1.00  0.00    -0.342 N 
HETATM   20  H   UNL     1      27.134  42.685  50.533  1.00  0.00     0.167 HD
BRANCH  17  21
HETATM   21  C   UNL     1      27.281  39.778  46.013  1.00  0.00     0.071 A 
HETATM   22  C   UNL     1      27.741  40.135  44.762  1.00  0.00     0.052 A 
HETATM   23  C   UNL     1      28.532  39.212  44.121  1.00  0.00     0.122 A 
HETATM   24  N   UNL     1      28.859  38.021  44.651  1.00  0.00    -0.231 NA
HETATM   25  C   UNL     1      28.388  37.769  45.873  1.00  0.00     0.199 A 
HETATM   26  N   UNL     1      27.603  38.589  46.574  1.00  0.00    -0.218 NA
BRANCH  25  27
HETATM   27  N   UNL     1      28.694  36.546  46.435  1.00  0.00    -0.271 NA
HETATM   28  H   UNL     1      27.947  35.896  46.239  1.00  0.00     0.127 HD
HETATM   29  H   UNL     1      28.950  36.681  47.403  1.00  0.00     0.127 HD
ENDBRANCH  25  27
ENDBRANCH  17  21
ENDBRANCH   1  11
BRANCH   7  30
HETATM   30  C   UNL     1      24.041  49.662  48.371  1.00  0.00     0.251 C 
HETATM   31  O   UNL     1      24.354  49.988  47.230  1.00  0.00    -0.268 OA
HETATM   32  N   UNL     1      22.945  50.175  49.026  1.00  0.00    -0.353 N 
HETATM   33  H   UNL     1      22.685  49.847  49.942  1.00  0.00     0.163 HD
BRANCH  32  34
HETATM   34  C   UNL     1      22.110  51.197  48.436  1.00  0.00     0.161 C 
BRANCH  34  35
HETATM   35  C   UNL     1      20.712  51.119  48.991  1.00  0.00    -0.041 A 
HETATM   36  C   UNL     1      20.366  50.093  49.882  1.00  0.00     0.009 A 
HETATM   37  C   UNL     1      19.070  50.005  50.393  1.00  0.00     0.001 A 
HETATM   38  C   UNL     1      18.106  50.936  50.010  1.00  0.00     0.000 A 
HETATM   39  C   UNL     1      18.434  51.951  49.114  1.00  0.00     0.001 A 
HETATM   40  C   UNL     1      19.731  52.042  48.604  1.00  0.00     0.009 A 
ENDBRANCH  34  35
ENDBRANCH  32  34
ENDBRANCH   7  30
TORSDOF 6
ENDMDL
MODEL 10
REMARK VINA RESULT:      -9.4      9.238     12.005
REMARK  6 active torsions:
REMARK  status: ('A' for Active; 'I' for Inactive)
REMARK    1  A    between atoms: N_1  and  C_2 
REMARK    2  A    between atoms: C_6  and  C_8 
REMARK    3  A    between atoms: C_13  and  C_18 
REMARK    4  A    between atoms: C_24  and  C_28 
REMARK       I    between atoms: C_28  and  N_30 
REMARK    5  A    between atoms: N_30  and  C_31 
REMARK    6  A    between atoms: C_31  and  C_32 
ROOT
HETATM    1  C   UNL     1      27.457  43.654  39.242  1.00  0.00     0.084 C 
HETATM    2  C   UNL     1      26.265  44.588  39.451  1.00  0.00     0.188 C 
HETATM    3  O   UNL     1      26.485  45.594  40.451  1.00  0.00    -0.350 OA
HETATM    4  C   UNL     1      27.699  46.224  40.394  1.00  0.00     0.075 A 
HETATM    5  C   UNL     1      27.835  47.361  41.190  1.00  0.00     0.038 A 
HETATM    6  C   UNL     1      29.054  48.043  41.247  1.00  0.00     0.020 A 
HETATM    7  C   UNL     1      30.144  47.595  40.491  1.00  0.00     0.032 A 
HETATM    8  C   UNL     1      30.003  46.438  39.709  1.00  0.00     0.027 A 
HETATM    9  C   UNL     1      28.788  45.737  39.667  1.00  0.00    -0.023 A 
HETATM   10  C   UNL     1      28.675  44.486  38.840  1.00  0.00     0.056 C 
ENDROOT
BRANCH   1  11
HETATM   11  C   UNL     1      27.752  42.784  40.435  1.00  0.00     0.111 A 
HETATM   12  N   UNL     1      28.709  41.878  40.511  1.00  0.00    -0.233 NA
HETATM   13  C   UNL     1      28.653  41.384  41.791  1.00  0.00     0.085 A 
HETATM   14  C   UNL     1      29.445  40.417  42.421  1.00  0.00     0.035 A 
HETATM   15  C   UNL     1      27.630  41.985  42.509  1.00  0.00     0.063 A 
HETATM   16  C   UNL     1      29.178  40.096  43.764  1.00  0.00     0.016 A 
HETATM   17  C   UNL     1      28.141  40.715  44.493  1.00  0.00    -0.005 A 
HETATM   18  C   UNL     1      27.342  41.679  43.841  1.00  0.00     0.045 A 
HETATM   19  N   UNL     1      27.068  42.865  41.624  1.00  0.00    -0.342 N 
HETATM   20  H   UNL     1      26.295  43.488  41.818  1.00  0.00     0.167 HD
BRANCH  17  21
HETATM   21  C   UNL     1      27.874  40.377  45.908  1.00  0.00     0.071 A 
HETATM   22  C   UNL     1      27.874  39.080  46.382  1.00  0.00     0.052 A 
HETATM   23  C   UNL     1      27.617  38.927  47.723  1.00  0.00     0.122 A 
HETATM   24  N   UNL     1      27.374  39.954  48.554  1.00  0.00    -0.231 NA
HETATM   25  C   UNL     1      27.415  41.173  48.015  1.00  0.00     0.199 A 
HETATM   26  N   UNL     1      27.642  41.431  46.725  1.00  0.00    -0.218 NA
BRANCH  25  27
HETATM   27  N   UNL     1      27.152  42.247  48.841  1.00  0.00    -0.271 NA
HETATM   28  H   UNL     1      27.973  42.833  48.892  1.00  0.00     0.127 HD
HETATM   29  H   UNL     1      26.770  41.908  49.713  1.00  0.00     0.127 HD
ENDBRANCH  25  27
ENDBRANCH  17  21
ENDBRANCH   1  11
BRANCH   7  30
HETATM   30  C   UNL     1      31.475  48.270  40.509  1.00  0.00     0.251 C 
HETATM   31  O   UNL     1      32.496  47.599  40.621  1.00  0.00    -0.268 OA
HETATM   32  N   UNL     1      31.486  49.639  40.370  1.00  0.00    -0.353 N 
HETATM   33  H   UNL     1      30.632  50.155  40.227  1.00  0.00     0.163 HD
BRANCH  32  34
HETATM   34  C   UNL     1      32.712  50.404  40.413  1.00  0.00     0.161 C 
BRANCH  34  35
HETATM   35  C   UNL     1      32.936  50.964  41.792  1.00  0.00    -0.041 A 
HETATM   36  C   UNL     1      34.239  51.223  42.244  1.00  0.00     0.009 A 
HETATM   37  C   UNL     1      34.457  51.731  43.525  1.00  0.00     0.001 A 
HETATM   38  C   UNL     1      33.376  51.976  44.371  1.00  0.00     0.000 A 
HETATM   39  C   UNL     1      32.079  51.709  43.939  1.00  0.00     0.001 A 
HETATM   40  C   UNL     1      31.857  51.203  42.656  1.00  0.00     0.009 A 
ENDBRANCH  34  35
ENDBRANCH  32  34
ENDBRANCH   7  30
TORSDOF 6
ENDMDL
