MODEL 1
REMARK VINA RESULT:      -9.3      0.000      0.000
REMARK  4 active torsions:
REMARK  status: ('A' for Active; 'I' for Inactive)
REMARK    1  A    between atoms: C_5  and  C_6 
REMARK    2  A    between atoms: C_6  and  N_7 
REMARK    3  A    between atoms: N_10  and  C_12 
REMARK    4  A    between atoms: C_12  and  C_13 
ROOT
HETATM    1  N   UNL     1      26.037  45.942  50.302  1.00  0.00    -0.406 N 
HETATM    2  C   UNL     1      26.697  45.965  51.609  1.00  0.00     0.150 C 
HETATM    3  C   UNL     1      26.391  44.859  52.653  1.00  0.00     0.206 C 
HETATM    4  N   UNL     1      27.161  43.567  52.401  1.00  0.00    -0.061 N 
HETATM    5  H   UNL     1      26.890  42.964  53.187  1.00  0.00     0.280 HD
HETATM    6  C   UNL     1      26.754  42.828  51.157  1.00  0.00     0.242 C 
HETATM    7  C   UNL     1      25.510  43.422  50.504  1.00  0.00     0.029 C 
HETATM    8  C   UNL     1      25.868  44.651  49.646  1.00  0.00     0.123 C 
HETATM    9  C   UNL     1      24.904  44.497  52.739  1.00  0.00     0.035 C 
HETATM   10  C   UNL     1      24.412  43.689  51.536  1.00  0.00     0.010 C 
ENDROOT
BRANCH   4  11
HETATM   11  C   UNL     1      28.671  43.658  52.526  1.00  0.00     0.274 C 
BRANCH  11  12
HETATM   12  C   UNL     1      29.150  44.076  53.888  1.00  0.00    -0.032 A 
HETATM   13  C   UNL     1      30.168  43.347  54.534  1.00  0.00     0.022 A 
HETATM   14  C   UNL     1      30.611  43.746  55.810  1.00  0.00    -0.008 A 
HETATM   15  C   UNL     1      30.030  44.864  56.404  1.00  0.00     0.042 A 
HETATM   16  C   UNL     1      31.593  43.252  56.713  1.00  0.00     0.030 A 
HETATM   17  N   UNL     1      30.649  45.044  57.623  1.00  0.00    -0.365 N 
HETATM   18  C   UNL     1      29.021  45.608  55.788  1.00  0.00     0.031 A 
HETATM   19  H   UNL     1      30.441  45.792  58.272  1.00  0.00     0.165 HD
HETATM   20  C   UNL     1      31.592  44.071  57.818  1.00  0.00     0.089 A 
HETATM   21  C   UNL     1      28.592  45.194  54.522  1.00  0.00     0.011 A 
ENDBRANCH  11  12
ENDBRANCH   4  11
BRANCH   1  22
HETATM   22  C   UNL     1      24.862  46.821  50.162  1.00  0.00     0.157 C 
BRANCH  22  23
HETATM   23  C   UNL     1      25.089  48.038  49.303  1.00  0.00    -0.023 A 
HETATM   24  C   UNL     1      24.043  48.650  48.618  1.00  0.00     0.125 A 
HETATM   25  N   UNL     1      24.182  49.746  47.839  1.00  0.00    -0.273 NA
HETATM   26  C   UNL     1      25.418  50.285  47.761  1.00  0.00     0.116 A 
HETATM   27  C   UNL     1      26.521  49.770  48.421  1.00  0.00     0.020 A 
HETATM   28  C   UNL     1      26.351  48.631  49.202  1.00  0.00     0.011 A 
ENDBRANCH  22  23
ENDBRANCH   1  22
TORSDOF 4
ENDMDL
MODEL 2
REMARK VINA RESULT:      -9.0      1.279      2.139
REMARK  4 active torsions:
REMARK  status: ('A' for Active; 'I' for Inactive)
REMARK    1  A    between atoms: C_5  and  C_6 
REMARK    2  A    between atoms: C_6  and  N_7 
REMARK    3  A    between atoms: N_10  and  C_12 
REMARK    4  A    between atoms: C_12  and  C_13 
ROOT
HETATM    1  N   UNL     1      25.288  46.591  50.269  1.00  0.00    -0.406 N 
HETATM    2  C   UNL     1      25.059  46.399  51.702  1.00  0.00     0.150 C 
HETATM    3  C   UNL     1      25.254  44.997  52.338  1.00  0.00     0.206 C 
HETATM    4  N   UNL     1      26.715  44.669  52.631  1.00  0.00    -0.061 N 
HETATM    5  H   UNL     1      26.672  43.748  53.083  1.00  0.00     0.280 HD
HETATM    6  C   UNL     1      27.573  44.489  51.410  1.00  0.00     0.242 C 
HETATM    7  C   UNL     1      26.758  44.474  50.120  1.00  0.00     0.029 C 
HETATM    8  C   UNL     1      26.422  45.906  49.660  1.00  0.00     0.123 C 
HETATM    9  C   UNL     1      24.690  43.857  51.484  1.00  0.00     0.035 C 
HETATM   10  C   UNL     1      25.535  43.562  50.243  1.00  0.00     0.010 C 
ENDROOT
BRANCH   4  11
HETATM   11  C   UNL     1      27.397  45.543  53.667  1.00  0.00     0.274 C 
BRANCH  11  12
HETATM   12  C   UNL     1      28.506  44.858  54.415  1.00  0.00    -0.032 A 
HETATM   13  C   UNL     1      29.013  45.421  55.603  1.00  0.00     0.022 A 
HETATM   14  C   UNL     1      30.052  44.772  56.297  1.00  0.00    -0.008 A 
HETATM   15  C   UNL     1      30.554  43.575  55.789  1.00  0.00     0.042 A 
HETATM   16  C   UNL     1      30.770  45.056  57.491  1.00  0.00     0.030 A 
HETATM   17  N   UNL     1      31.537  43.147  56.656  1.00  0.00    -0.365 N 
HETATM   18  C   UNL     1      30.071  42.991  54.616  1.00  0.00     0.031 A 
HETATM   19  H   UNL     1      32.069  42.293  56.550  1.00  0.00     0.165 HD
HETATM   20  C   UNL     1      31.676  44.039  57.686  1.00  0.00     0.089 A 
HETATM   21  C   UNL     1      29.040  43.652  53.939  1.00  0.00     0.011 A 
ENDBRANCH  11  12
ENDBRANCH   4  11
BRANCH   1  22
HETATM   22  C   UNL     1      24.082  46.580  49.421  1.00  0.00     0.157 C 
BRANCH  22  23
HETATM   23  C   UNL     1      23.480  47.938  49.171  1.00  0.00    -0.023 A 
HETATM   24  C   UNL     1      24.260  49.092  49.173  1.00  0.00     0.125 A 
HETATM   25  N   UNL     1      23.780  50.336  48.950  1.00  0.00    -0.273 NA
HETATM   26  C   UNL     1      22.462  50.440  48.675  1.00  0.00     0.116 A 
HETATM   27  C   UNL     1      21.602  49.355  48.624  1.00  0.00     0.020 A 
HETATM   28  C   UNL     1      22.121  48.089  48.876  1.00  0.00     0.011 A 
ENDBRANCH  22  23
ENDBRANCH   1  22
TORSDOF 4
ENDMDL
MODEL 3
REMARK VINA RESULT:      -8.8      2.659      4.629
REMARK  4 active torsions:
REMARK  status: ('A' for Active; 'I' for Inactive)
REMARK    1  A    between atoms: C_5  and  C_6 
REMARK    2  A    between atoms: C_6  and  N_7 
REMARK    3  A    between atoms: N_10  and  C_12 
REMARK    4  A    between atoms: C_12  and  C_13 
ROOT
HETATM    1  N   UNL     1      25.483  42.829  49.898  1.00  0.00    -0.406 N 
HETATM    2  C   UNL     1      26.873  43.282  49.982  1.00  0.00     0.150 C 
HETATM    3  C   UNL     1      27.214  44.618  50.693  1.00  0.00     0.206 C 
HETATM    4  N   UNL     1      27.272  44.490  52.212  1.00  0.00    -0.061 N 
HETATM    5  H   UNL     1      27.548  45.428  52.525  1.00  0.00     0.280 HD
HETATM    6  C   UNL     1      25.948  44.211  52.868  1.00  0.00     0.242 C 
HETATM    7  C   UNL     1      24.780  44.311  51.892  1.00  0.00     0.029 C 
HETATM    8  C   UNL     1      24.633  43.018  51.068  1.00  0.00     0.123 C 
HETATM    9  C   UNL     1      26.235  45.750  50.365  1.00  0.00     0.035 C 
HETATM   10  C   UNL     1      24.872  45.580  51.039  1.00  0.00     0.010 C 
ENDROOT
BRANCH   4  11
HETATM   11  C   UNL     1      28.366  43.594  52.763  1.00  0.00     0.274 C 
BRANCH  11  12
HETATM   12  C   UNL     1      28.976  44.086  54.045  1.00  0.00    -0.032 A 
HETATM   13  C   UNL     1      29.951  43.314  54.707  1.00  0.00     0.022 A 
HETATM   14  C   UNL     1      30.518  43.783  55.908  1.00  0.00    -0.008 A 
HETATM   15  C   UNL     1      30.099  45.013  56.413  1.00  0.00     0.042 A 
HETATM   16  C   UNL     1      31.498  43.273  56.802  1.00  0.00     0.030 A 
HETATM   17  N   UNL     1      30.813  45.240  57.571  1.00  0.00    -0.365 N 
HETATM   18  C   UNL     1      29.137  45.802  55.779  1.00  0.00     0.031 A 
HETATM   19  H   UNL     1      30.730  46.067  58.148  1.00  0.00     0.165 HD
HETATM   20  C   UNL     1      31.658  44.191  57.815  1.00  0.00     0.089 A 
HETATM   21  C   UNL     1      28.583  45.317  54.588  1.00  0.00     0.011 A 
ENDBRANCH  11  12
ENDBRANCH   4  11
BRANCH   1  22
HETATM   22  C   UNL     1      24.792  43.115  48.628  1.00  0.00     0.157 C 
BRANCH  22  23
HETATM   23  C   UNL     1      24.243  41.899  47.927  1.00  0.00    -0.023 A 
HETATM   24  C   UNL     1      25.062  41.065  47.170  1.00  0.00     0.125 A 
HETATM   25  N   UNL     1      24.630  39.958  46.525  1.00  0.00    -0.273 NA
HETATM   26  C   UNL     1      23.325  39.641  46.665  1.00  0.00     0.116 A 
HETATM   27  C   UNL     1      22.431  40.387  47.414  1.00  0.00     0.020 A 
HETATM   28  C   UNL     1      22.900  41.532  48.053  1.00  0.00     0.011 A 
ENDBRANCH  22  23
ENDBRANCH   1  22
TORSDOF 4
ENDMDL
MODEL 4
REMARK VINA RESULT:      -8.8      2.603      5.448
REMARK  4 active torsions:
REMARK  status: ('A' for Active; 'I' for Inactive)
REMARK    1  A    between atoms: C_5  and  C_6 
REMARK    2  A    between atoms: C_6  and  N_7 
REMARK    3  A    between atoms: N_10  and  C_12 
REMARK    4  A    between atoms: C_12  and  C_13 
ROOT
HETATM    1  N   UNL     1      25.536  42.162  50.247  1.00  0.00    -0.406 N 
HETATM    2  C   UNL     1      26.577  42.607  51.176  1.00  0.00     0.150 C 
HETATM    3  C   UNL     1      26.912  44.116  51.302  1.00  0.00     0.206 C 
HETATM    4  N   UNL     1      25.934  44.876  52.193  1.00  0.00    -0.061 N 
HETATM    5  H   UNL     1      26.312  45.830  52.212  1.00  0.00     0.280 HD
HETATM    6  C   UNL     1      24.543  44.995  51.637  1.00  0.00     0.242 C 
HETATM    7  C   UNL     1      24.445  44.502  50.197  1.00  0.00     0.029 C 
HETATM    8  C   UNL     1      24.324  42.967  50.144  1.00  0.00     0.123 C 
HETATM    9  C   UNL     1      26.963  44.844  49.954  1.00  0.00     0.035 C 
HETATM   10  C   UNL     1      25.580  45.062  49.337  1.00  0.00     0.010 C 
ENDROOT
BRANCH   4  11
HETATM   11  C   UNL     1      25.917  44.471  53.656  1.00  0.00     0.274 C 
BRANCH  11  12
HETATM   12  C   UNL     1      27.197  44.762  54.389  1.00  0.00    -0.032 A 
HETATM   13  C   UNL     1      28.189  43.769  54.503  1.00  0.00     0.022 A 
HETATM   14  C   UNL     1      29.384  44.051  55.192  1.00  0.00    -0.008 A 
HETATM   15  C   UNL     1      29.559  45.318  55.745  1.00  0.00     0.042 A 
HETATM   16  C   UNL     1      30.558  43.302  55.480  1.00  0.00     0.030 A 
HETATM   17  N   UNL     1      30.803  45.334  56.338  1.00  0.00    -0.365 N 
HETATM   18  C   UNL     1      28.595  46.324  55.646  1.00  0.00     0.031 A 
HETATM   19  H   UNL     1      31.209  46.133  56.809  1.00  0.00     0.165 HD
HETATM   20  C   UNL     1      31.412  44.117  56.186  1.00  0.00     0.089 A 
HETATM   21  C   UNL     1      27.412  46.024  54.961  1.00  0.00     0.011 A 
ENDBRANCH  11  12
ENDBRANCH   4  11
BRANCH   1  22
HETATM   22  C   UNL     1      26.012  41.663  48.944  1.00  0.00     0.157 C 
BRANCH  22  23
HETATM   23  C   UNL     1      26.946  40.483  49.030  1.00  0.00    -0.023 A 
HETATM   24  C   UNL     1      26.510  39.242  49.487  1.00  0.00     0.125 A 
HETATM   25  N   UNL     1      27.297  38.146  49.580  1.00  0.00    -0.273 NA
HETATM   26  C   UNL     1      28.575  38.278  49.166  1.00  0.00     0.116 A 
HETATM   27  C   UNL     1      29.103  39.459  48.672  1.00  0.00     0.020 A 
HETATM   28  C   UNL     1      28.275  40.575  48.604  1.00  0.00     0.011 A 
ENDBRANCH  22  23
ENDBRANCH   1  22
TORSDOF 4
ENDMDL
MODEL 5
REMARK VINA RESULT:      -8.8      2.254      3.411
REMARK  4 active torsions:
REMARK  status: ('A' for Active; 'I' for Inactive)
REMARK    1  A    between atoms: C_5  and  C_6 
REMARK    2  A    between atoms: C_6  and  N_7 
REMARK    3  A    between atoms: N_10  and  C_12 
REMARK    4  A    between atoms: C_12  and  C_13 
ROOT
HETATM    1  N   UNL     1      24.601  43.957  49.943  1.00  0.00    -0.406 N 
HETATM    2  C   UNL     1      25.958  43.424  50.078  1.00  0.00     0.150 C 
HETATM    3  C   UNL     1      27.131  44.370  50.448  1.00  0.00     0.206 C 
HETATM    4  N   UNL     1      27.210  44.670  51.942  1.00  0.00    -0.061 N 
HETATM    5  H   UNL     1      28.047  45.257  52.029  1.00  0.00     0.280 HD
HETATM    6  C   UNL     1      26.072  45.494  52.477  1.00  0.00     0.242 C 
HETATM    7  C   UNL     1      25.170  46.032  51.371  1.00  0.00     0.029 C 
HETATM    8  C   UNL     1      24.164  44.962  50.905  1.00  0.00     0.123 C 
HETATM    9  C   UNL     1      27.086  45.714  49.714  1.00  0.00     0.035 C 
HETATM   10  C   UNL     1      25.989  46.646  50.232  1.00  0.00     0.010 C 
ENDROOT
BRANCH   4  11
HETATM   11  C   UNL     1      27.511  43.485  52.842  1.00  0.00     0.274 C 
BRANCH  11  12
HETATM   12  C   UNL     1      28.498  43.781  53.937  1.00  0.00    -0.032 A 
HETATM   13  C   UNL     1      28.239  44.811  54.864  1.00  0.00     0.022 A 
HETATM   14  C   UNL     1      29.169  45.081  55.886  1.00  0.00    -0.008 A 
HETATM   15  C   UNL     1      30.330  44.313  55.959  1.00  0.00     0.042 A 
HETATM   16  C   UNL     1      29.216  46.016  56.956  1.00  0.00     0.030 A 
HETATM   17  N   UNL     1      31.049  44.766  57.045  1.00  0.00    -0.365 N 
HETATM   18  C   UNL     1      30.613  43.284  55.057  1.00  0.00     0.031 A 
HETATM   19  H   UNL     1      31.933  44.383  57.353  1.00  0.00     0.165 HD
HETATM   20  C   UNL     1      30.384  45.798  57.650  1.00  0.00     0.089 A 
HETATM   21  C   UNL     1      29.678  43.033  54.046  1.00  0.00     0.011 A 
ENDBRANCH  11  12
ENDBRANCH   4  11
BRANCH   1  22
HETATM   22  C   UNL     1      24.159  44.243  48.566  1.00  0.00     0.157 C 
BRANCH  22  23
HETATM   23  C   UNL     1      22.828  44.941  48.468  1.00  0.00    -0.023 A 
HETATM   24  C   UNL     1      21.629  44.241  48.581  1.00  0.00     0.125 A 
HETATM   25  N   UNL     1      20.405  44.812  48.510  1.00  0.00    -0.273 NA
HETATM   26  C   UNL     1      20.367  46.153  48.351  1.00  0.00     0.116 A 
HETATM   27  C   UNL     1      21.498  46.946  48.253  1.00  0.00     0.020 A 
HETATM   28  C   UNL     1      22.744  46.329  48.313  1.00  0.00     0.011 A 
ENDBRANCH  22  23
ENDBRANCH   1  22
TORSDOF 4
ENDMDL
MODEL 6
REMARK VINA RESULT:      -8.7      3.326      5.343
REMARK  4 active torsions:
REMARK  status: ('A' for Active; 'I' for Inactive)
REMARK    1  A    between atoms: C_5  and  C_6 
REMARK    2  A    between atoms: C_6  and  N_7 
REMARK    3  A    between atoms: N_10  and  C_12 
REMARK    4  A    between atoms: C_12  and  C_13 
ROOT
HETATM    1  N   UNL     1      25.570  45.887  49.945  1.00  0.00    -0.406 N 
HETATM    2  C   UNL     1      26.834  45.174  49.754  1.00  0.00     0.150 C 
HETATM    3  C   UNL     1      27.306  44.134  50.804  1.00  0.00     0.206 C 
HETATM    4  N   UNL     1      26.633  42.774  50.645  1.00  0.00    -0.061 N 
HETATM    5  H   UNL     1      27.077  42.196  51.368  1.00  0.00     0.280 HD
HETATM    6  C   UNL     1      25.162  42.764  50.955  1.00  0.00     0.242 C 
HETATM    7  C   UNL     1      24.683  44.079  51.560  1.00  0.00     0.029 C 
HETATM    8  C   UNL     1      24.435  45.136  50.466  1.00  0.00     0.123 C 
HETATM    9  C   UNL     1      27.088  44.587  52.251  1.00  0.00     0.035 C 
HETATM   10  C   UNL     1      25.618  44.553  52.676  1.00  0.00     0.010 C 
ENDROOT
BRANCH   4  11
HETATM   11  C   UNL     1      26.936  42.029  49.358  1.00  0.00     0.274 C 
BRANCH  11  12
HETATM   12  C   UNL     1      27.314  40.588  49.557  1.00  0.00    -0.032 A 
HETATM   13  C   UNL     1      28.473  40.254  50.286  1.00  0.00     0.022 A 
HETATM   14  C   UNL     1      28.820  38.901  50.468  1.00  0.00    -0.008 A 
HETATM   15  C   UNL     1      27.998  37.918  49.921  1.00  0.00     0.042 A 
HETATM   16  C   UNL     1      29.885  38.236  51.133  1.00  0.00     0.030 A 
HETATM   17  N   UNL     1      28.547  36.698  50.255  1.00  0.00    -0.365 N 
HETATM   18  C   UNL     1      26.842  38.217  49.195  1.00  0.00     0.031 A 
HETATM   19  H   UNL     1      28.155  35.800  50.004  1.00  0.00     0.165 HD
HETATM   20  C   UNL     1      29.690  36.882  50.985  1.00  0.00     0.089 A 
HETATM   21  C   UNL     1      26.516  39.567  49.023  1.00  0.00     0.011 A 
ENDBRANCH  11  12
ENDBRANCH   4  11
BRANCH   1  22
HETATM   22  C   UNL     1      25.679  47.242  50.516  1.00  0.00     0.157 C 
BRANCH  22  23
HETATM   23  C   UNL     1      25.489  48.357  49.521  1.00  0.00    -0.023 A 
HETATM   24  C   UNL     1      26.574  48.986  48.916  1.00  0.00     0.125 A 
HETATM   25  N   UNL     1      26.467  49.986  48.013  1.00  0.00    -0.273 NA
HETATM   26  C   UNL     1      25.218  50.361  47.664  1.00  0.00     0.116 A 
HETATM   27  C   UNL     1      24.071  49.786  48.186  1.00  0.00     0.020 A 
HETATM   28  C   UNL     1      24.212  48.770  49.127  1.00  0.00     0.011 A 
ENDBRANCH  22  23
ENDBRANCH   1  22
TORSDOF 4
ENDMDL
MODEL 7
REMARK VINA RESULT:      -8.7      1.227      8.664
REMARK  4 active torsions:
REMARK  status: ('A' for Active; 'I' for Inactive)
REMARK    1  A    between atoms: C_5  and  C_6 
REMARK    2  A    between atoms: C_6  and  N_7 
REMARK    3  A    between atoms: N_10  and  C_12 
REMARK    4  A    between atoms: C_12  and  C_13 
ROOT
HETATM    1  N   UNL     1      28.278  44.849  53.566  1.00  0.00    -0.406 N 
HETATM    2  C   UNL     1      27.792  44.434  52.248  1.00  0.00     0.150 C 
HETATM    3  C   UNL     1      26.288  44.570  51.897  1.00  0.00     0.206 C 
HETATM    4  N   UNL     1      25.895  45.985  51.482  1.00  0.00    -0.061 N 
HETATM    5  H   UNL     1      24.900  45.901  51.241  1.00  0.00     0.280 HD
HETATM    6  C   UNL     1      25.967  47.003  52.585  1.00  0.00     0.242 C 
HETATM    7  C   UNL     1      26.228  46.371  53.948  1.00  0.00     0.029 C 
HETATM    8  C   UNL     1      27.726  46.069  54.142  1.00  0.00     0.123 C 
HETATM    9  C   UNL     1      25.354  44.152  53.038  1.00  0.00     0.035 C 
HETATM   10  C   UNL     1      25.319  45.162  54.186  1.00  0.00     0.010 C 
ENDROOT
BRANCH   4  11
HETATM   11  C   UNL     1      26.528  46.502  50.204  1.00  0.00     0.274 C 
BRANCH  11  12
HETATM   12  C   UNL     1      25.793  47.654  49.576  1.00  0.00    -0.032 A 
HETATM   13  C   UNL     1      24.385  47.649  49.521  1.00  0.00     0.022 A 
HETATM   14  C   UNL     1      23.705  48.732  48.931  1.00  0.00    -0.008 A 
HETATM   15  C   UNL     1      24.448  49.792  48.416  1.00  0.00     0.042 A 
HETATM   16  C   UNL     1      22.333  49.039  48.721  1.00  0.00     0.030 A 
HETATM   17  N   UNL     1      23.551  50.714  47.920  1.00  0.00    -0.365 N 
HETATM   18  C   UNL     1      25.844  49.827  48.458  1.00  0.00     0.031 A 
HETATM   19  H   UNL     1      23.804  51.597  47.496  1.00  0.00     0.165 HD
HETATM   20  C   UNL     1      22.270  50.264  48.097  1.00  0.00     0.089 A 
HETATM   21  C   UNL     1      26.502  48.740  49.046  1.00  0.00     0.011 A 
ENDBRANCH  11  12
ENDBRANCH   4  11
BRANCH   1  22
HETATM   22  C   UNL     1      28.453  43.769  54.554  1.00  0.00     0.157 C 
BRANCH  22  23
HETATM   23  C   UNL     1      29.562  44.002  55.546  1.00  0.00    -0.023 A 
HETATM   24  C   UNL     1      29.597  45.143  56.344  1.00  0.00     0.125 A 
HETATM   25  N   UNL     1      30.560  45.405  57.255  1.00  0.00    -0.273 NA
HETATM   26  C   UNL     1      31.523  44.471  57.410  1.00  0.00     0.116 A 
HETATM   27  C   UNL     1      31.569  43.292  56.686  1.00  0.00     0.020 A 
HETATM   28  C   UNL     1      30.574  43.057  55.742  1.00  0.00     0.011 A 
ENDBRANCH  22  23
ENDBRANCH   1  22
TORSDOF 4
ENDMDL
MODEL 8
REMARK VINA RESULT:      -8.6      6.369     10.245
REMARK  4 active torsions:
REMARK  status: ('A' for Active; 'I' for Inactive)
REMARK    1  A    between atoms: C_5  and  C_6 
REMARK    2  A    between atoms: C_6  and  N_7 
REMARK    3  A    between atoms: N_10  and  C_12 
REMARK    4  A    between atoms: C_12  and  C_13 
ROOT
HETATM    1  N   UNL     1      17.659  51.395  48.636  1.00  0.00    -0.406 N 
HETATM    2  C   UNL     1      18.932  51.341  49.357  1.00  0.00     0.150 C 
HETATM    3  C   UNL     1      19.593  49.972  49.666  1.00  0.00     0.206 C 
HETATM    4  N   UNL     1      20.358  49.394  48.479  1.00  0.00    -0.061 N 
HETATM    5  H   UNL     1      20.767  48.529  48.850  1.00  0.00     0.280 HD
HETATM    6  C   UNL     1      19.496  48.978  47.321  1.00  0.00     0.242 C 
HETATM    7  C   UNL     1      18.007  49.034  47.650  1.00  0.00     0.029 C 
HETATM    8  C   UNL     1      17.465  50.471  47.525  1.00  0.00     0.123 C 
HETATM    9  C   UNL     1      18.596  48.905  50.131  1.00  0.00     0.035 C 
HETATM   10  C   UNL     1      17.710  48.378  49.001  1.00  0.00     0.010 C 
ENDROOT
BRANCH   4  11
HETATM   11  C   UNL     1      21.566  50.189  48.017  1.00  0.00     0.274 C 
BRANCH  11  12
HETATM   12  C   UNL     1      22.884  49.617  48.459  1.00  0.00    -0.032 A 
HETATM   13  C   UNL     1      24.088  50.253  48.098  1.00  0.00     0.022 A 
HETATM   14  C   UNL     1      25.318  49.710  48.516  1.00  0.00    -0.008 A 
HETATM   15  C   UNL     1      25.313  48.550  49.289  1.00  0.00     0.042 A 
HETATM   16  C   UNL     1      26.677  50.089  48.337  1.00  0.00     0.030 A 
HETATM   17  N   UNL     1      26.627  48.246  49.574  1.00  0.00    -0.365 N 
HETATM   18  C   UNL     1      24.135  47.899  49.666  1.00  0.00     0.031 A 
HETATM   19  H   UNL     1      26.930  47.460  50.135  1.00  0.00     0.165 HD
HETATM   20  C   UNL     1      27.458  49.169  48.999  1.00  0.00     0.089 A 
HETATM   21  C   UNL     1      22.923  48.452  49.237  1.00  0.00     0.011 A 
ENDBRANCH  11  12
ENDBRANCH   4  11
BRANCH   1  22
HETATM   22  C   UNL     1      16.456  51.556  49.472  1.00  0.00     0.157 C 
BRANCH  22  23
HETATM   23  C   UNL     1      15.752  52.878  49.307  1.00  0.00    -0.023 A 
HETATM   24  C   UNL     1      14.938  53.136  48.206  1.00  0.00     0.125 A 
HETATM   25  N   UNL     1      14.276  54.298  48.006  1.00  0.00    -0.273 NA
HETATM   26  C   UNL     1      14.398  55.242  48.964  1.00  0.00     0.116 A 
HETATM   27  C   UNL     1      15.161  55.078  50.108  1.00  0.00     0.020 A 
HETATM   28  C   UNL     1      15.846  53.879  50.279  1.00  0.00     0.011 A 
ENDBRANCH  22  23
ENDBRANCH   1  22
TORSDOF 4
ENDMDL
MODEL 9
REMARK VINA RESULT:      -8.6      5.910     10.042
REMARK  4 active torsions:
REMARK  status: ('A' for Active; 'I' for Inactive)
REMARK    1  A    between atoms: C_5  and  C_6 
REMARK    2  A    between atoms: C_6  and  N_7 
REMARK    3  A    between atoms: N_10  and  C_12 
REMARK    4  A    between atoms: C_12  and  C_13 
ROOT
HETATM    1  N   UNL     1      17.585  50.128  47.605  1.00  0.00    -0.406 N 
HETATM    2  C   UNL     1      18.975  50.216  47.152  1.00  0.00     0.150 C 
HETATM    3  C   UNL     1      20.020  50.993  47.995  1.00  0.00     0.206 C 
HETATM    4  N   UNL     1      20.561  50.186  49.171  1.00  0.00    -0.061 N 
HETATM    5  H   UNL     1      21.261  50.808  49.592  1.00  0.00     0.280 HD
HETATM    6  C   UNL     1      19.556  49.904  50.253  1.00  0.00     0.242 C 
HETATM    7  C   UNL     1      18.246  50.657  50.044  1.00  0.00     0.029 C 
HETATM    8  C   UNL     1      17.344  49.931  49.029  1.00  0.00     0.123 C 
HETATM    9  C   UNL     1      19.489  52.317  48.554  1.00  0.00     0.035 C 
HETATM   10  C   UNL     1      18.497  52.129  49.704  1.00  0.00     0.010 C 
ENDROOT
BRANCH   4  11
HETATM   11  C   UNL     1      21.358  48.944  48.814  1.00  0.00     0.274 C 
BRANCH  11  12
HETATM   12  C   UNL     1      22.835  49.184  48.665  1.00  0.00    -0.032 A 
HETATM   13  C   UNL     1      23.756  48.391  49.377  1.00  0.00     0.022 A 
HETATM   14  C   UNL     1      25.137  48.622  49.232  1.00  0.00    -0.008 A 
HETATM   15  C   UNL     1      25.563  49.636  48.375  1.00  0.00     0.042 A 
HETATM   16  C   UNL     1      26.302  48.022  49.783  1.00  0.00     0.030 A 
HETATM   17  N   UNL     1      26.941  49.639  48.403  1.00  0.00    -0.365 N 
HETATM   18  C   UNL     1      24.674  50.437  47.654  1.00  0.00     0.031 A 
HETATM   19  H   UNL     1      27.528  50.263  47.864  1.00  0.00     0.165 HD
HETATM   20  C   UNL     1      27.396  48.669  49.254  1.00  0.00     0.089 A 
HETATM   21  C   UNL     1      23.305  50.194  47.815  1.00  0.00     0.011 A 
ENDBRANCH  11  12
ENDBRANCH   4  11
BRANCH   1  22
HETATM   22  C   UNL     1      16.649  51.084  46.985  1.00  0.00     0.157 C 
BRANCH  22  23
HETATM   23  C   UNL     1      16.751  51.176  45.485  1.00  0.00    -0.023 A 
HETATM   24  C   UNL     1      16.385  50.112  44.664  1.00  0.00     0.125 A 
HETATM   25  N   UNL     1      16.447  50.137  43.314  1.00  0.00    -0.273 NA
HETATM   26  C   UNL     1      16.861  51.289  42.744  1.00  0.00     0.116 A 
HETATM   27  C   UNL     1      17.224  52.414  43.466  1.00  0.00     0.020 A 
HETATM   28  C   UNL     1      17.167  52.354  44.855  1.00  0.00     0.011 A 
ENDBRANCH  22  23
ENDBRANCH   1  22
TORSDOF 4
ENDMDL
MODEL 10
REMARK VINA RESULT:      -8.4      1.929      8.988
REMARK  4 active torsions:
REMARK  status: ('A' for Active; 'I' for Inactive)
REMARK    1  A    between atoms: C_5  and  C_6 
REMARK    2  A    between atoms: C_6  and  N_7 
REMARK    3  A    between atoms: N_10  and  C_12 
REMARK    4  A    between atoms: C_12  and  C_13 
ROOT
HETATM    1  N   UNL     1      26.827  44.528  52.363  1.00  0.00    -0.406 N 
HETATM    2  C   UNL     1      26.998  45.450  51.238  1.00  0.00     0.150 C 
HETATM    3  C   UNL     1      26.286  45.170  49.888  1.00  0.00     0.206 C 
HETATM    4  N   UNL     1      24.821  45.597  49.883  1.00  0.00    -0.061 N 
HETATM    5  H   UNL     1      24.511  45.393  48.926  1.00  0.00     0.280 HD
HETATM    6  C   UNL     1      23.930  44.790  50.786  1.00  0.00     0.242 C 
HETATM    7  C   UNL     1      24.641  43.575  51.374  1.00  0.00     0.029 C 
HETATM    8  C   UNL     1      25.500  43.969  52.591  1.00  0.00     0.123 C 
HETATM    9  C   UNL     1      26.334  43.697  49.468  1.00  0.00     0.035 C 
HETATM   10  C   UNL     1      25.410  42.804  50.299  1.00  0.00     0.010 C 
ENDROOT
BRANCH   4  11
HETATM   11  C   UNL     1      24.563  47.085  50.031  1.00  0.00     0.274 C 
BRANCH  11  12
HETATM   12  C   UNL     1      23.389  47.587  49.239  1.00  0.00    -0.032 A 
HETATM   13  C   UNL     1      22.973  48.927  49.361  1.00  0.00     0.022 A 
HETATM   14  C   UNL     1      21.871  49.389  48.615  1.00  0.00    -0.008 A 
HETATM   15  C   UNL     1      21.218  48.501  47.762  1.00  0.00     0.042 A 
HETATM   16  C   UNL     1      21.212  50.643  48.501  1.00  0.00     0.030 A 
HETATM   17  N   UNL     1      20.202  49.202  47.148  1.00  0.00    -0.365 N 
HETATM   18  C   UNL     1      21.608  47.167  47.617  1.00  0.00     0.031 A 
HETATM   19  H   UNL     1      19.567  48.816  46.461  1.00  0.00     0.165 HD
HETATM   20  C   UNL     1      20.190  50.497  47.592  1.00  0.00     0.089 A 
HETATM   21  C   UNL     1      22.703  46.727  48.370  1.00  0.00     0.011 A 
ENDBRANCH  11  12
ENDBRANCH   4  11
BRANCH   1  22
HETATM   22  C   UNL     1      27.910  43.547  52.556  1.00  0.00     0.157 C 
BRANCH  22  23
HETATM   23  C   UNL     1      28.824  43.844  53.717  1.00  0.00    -0.023 A 
HETATM   24  C   UNL     1      28.604  44.935  54.554  1.00  0.00     0.125 A 
HETATM   25  N   UNL     1      29.383  45.250  55.614  1.00  0.00    -0.273 NA
HETATM   26  C   UNL     1      30.415  44.420  55.879  1.00  0.00     0.116 A 
HETATM   27  C   UNL     1      30.707  43.296  55.125  1.00  0.00     0.020 A 
HETATM   28  C   UNL     1      29.899  43.006  54.030  1.00  0.00     0.011 A 
ENDBRANCH  22  23
ENDBRANCH   1  22
TORSDOF 4
ENDMDL
