MODEL 1
REMARK VINA RESULT:      -8.8      0.000      0.000
REMARK  7 active torsions:
REMARK  status: ('A' for Active; 'I' for Inactive)
REMARK    1  A    between atoms: C_10  and  C_11 
REMARK       I    between atoms: C_11  and  N_12 
REMARK    2  A    between atoms: N_12  and  C_13 
REMARK    3  A    between atoms: C_13  and  C_14 
REMARK    4  A    between atoms: C_14  and  O_15 
REMARK    5  A    between atoms: C_14  and  C_16 
REMARK    6  A    between atoms: C_16  and  O_17 
REMARK    7  A    between atoms: O_17  and  C_18 
ROOT
HETATM    1  C   UNL     1      26.279  46.210  49.983  1.00  0.00     0.257 C 
HETATM    2  N   UNL     1      25.316  45.767  50.860  1.00  0.00    -0.354 N 
HETATM    3  O   UNL     1      27.255  45.542  49.661  1.00  0.00    -0.267 OA
HETATM    4  H   UNL     1      24.628  46.469  51.129  1.00  0.00     0.162 HD
ENDROOT
BRANCH   2   5
HETATM    5  C   UNL     1      25.464  44.616  51.746  1.00  0.00     0.156 C 
BRANCH   5   6
HETATM    6  C   UNL     1      25.269  44.883  53.251  1.00  0.00     0.160 C 
BRANCH   6   7
HETATM    7  O   UNL     1      25.042  43.638  53.931  1.00  0.00    -0.392 OA
HETATM    8  H   UNL     1      25.927  43.323  54.220  1.00  0.00     0.210 HD
ENDBRANCH   6   7
BRANCH   6   9
HETATM    9  C   UNL     1      26.531  45.516  53.858  1.00  0.00     0.209 C 
BRANCH   9  10
HETATM   10  O   UNL     1      27.674  44.767  53.423  1.00  0.00    -0.349 OA
BRANCH  10  11
HETATM   11  C   UNL     1      28.681  44.576  54.326  1.00  0.00     0.069 A 
HETATM   12  C   UNL     1      29.420  43.406  54.134  1.00  0.00     0.038 A 
HETATM   13  C   UNL     1      30.479  43.082  54.985  1.00  0.00     0.026 A 
HETATM   14  C   UNL     1      30.796  43.935  56.039  1.00  0.00     0.034 A 
HETATM   15 CL   UNL     1      32.099  43.546  57.094  1.00  0.00    -0.084 Cl
HETATM   16  C   UNL     1      30.063  45.102  56.244  1.00  0.00     0.026 A 
HETATM   17  C   UNL     1      29.002  45.423  55.388  1.00  0.00     0.038 A 
ENDBRANCH  10  11
ENDBRANCH   9  10
ENDBRANCH   6   9
ENDBRANCH   5   6
ENDBRANCH   2   5
BRANCH   1  18
HETATM   18  C   UNL     1      26.071  47.543  49.456  1.00  0.00     0.098 A 
HETATM   19  C   UNL     1      24.882  48.217  49.239  1.00  0.00     0.167 A 
HETATM   20  N   UNL     1      25.235  49.492  48.781  1.00  0.00    -0.226 N 
HETATM   21  N   UNL     1      23.572  47.849  49.426  1.00  0.00    -0.240 NA
HETATM   22  C   UNL     1      24.259  50.448  48.525  1.00  0.00     0.128 A 
HETATM   23  N   UNL     1      26.575  49.633  48.661  1.00  0.00    -0.178 NA
HETATM   24  C   UNL     1      22.960  50.166  48.711  1.00  0.00    -0.027 A 
HETATM   25  C   UNL     1      21.818  51.095  48.503  1.00  0.00     0.051 C 
HETATM   26  C   UNL     1      22.687  48.772  49.178  1.00  0.00     0.127 A 
HETATM   27  C   UNL     1      27.068  48.468  49.082  1.00  0.00     0.160 A 
ENDBRANCH   1  18
TORSDOF 7
ENDMDL
MODEL 2
REMARK VINA RESULT:      -8.4      1.746      2.433
REMARK  7 active torsions:
REMARK  status: ('A' for Active; 'I' for Inactive)
REMARK    1  A    between atoms: C_10  and  C_11 
REMARK       I    between atoms: C_11  and  N_12 
REMARK    2  A    between atoms: N_12  and  C_13 
REMARK    3  A    between atoms: C_13  and  C_14 
REMARK    4  A    between atoms: C_14  and  O_15 
REMARK    5  A    between atoms: C_14  and  C_16 
REMARK    6  A    between atoms: C_16  and  O_17 
REMARK    7  A    between atoms: O_17  and  C_18 
ROOT
HETATM    1  C   UNL     1      24.582  47.637  50.029  1.00  0.00     0.257 C 
HETATM    2  N   UNL     1      24.576  46.597  50.930  1.00  0.00    -0.354 N 
HETATM    3  O   UNL     1      25.566  48.338  49.816  1.00  0.00    -0.267 OA
HETATM    4  H   UNL     1      23.661  46.179  51.092  1.00  0.00     0.162 HD
ENDROOT
BRANCH   2   5
HETATM    5  C   UNL     1      25.593  46.377  51.954  1.00  0.00     0.156 C 
BRANCH   5   6
HETATM    6  C   UNL     1      25.367  45.177  52.894  1.00  0.00     0.160 C 
BRANCH   6   7
HETATM    7  O   UNL     1      24.610  44.168  52.207  1.00  0.00    -0.392 OA
HETATM    8  H   UNL     1      23.683  44.494  52.186  1.00  0.00     0.210 HD
ENDBRANCH   6   7
BRANCH   6   9
HETATM    9  C   UNL     1      26.709  44.548  53.303  1.00  0.00     0.209 C 
BRANCH   9  10
HETATM   10  O   UNL     1      27.509  45.551  53.942  1.00  0.00    -0.349 OA
BRANCH  10  11
HETATM   11  C   UNL     1      28.577  45.127  54.681  1.00  0.00     0.069 A 
HETATM   12  C   UNL     1      29.009  43.831  54.385  1.00  0.00     0.038 A 
HETATM   13  C   UNL     1      30.091  43.266  55.065  1.00  0.00     0.026 A 
HETATM   14  C   UNL     1      30.740  44.004  56.051  1.00  0.00     0.034 A 
HETATM   15 CL   UNL     1      32.074  43.319  56.896  1.00  0.00    -0.084 Cl
HETATM   16  C   UNL     1      30.315  45.295  56.358  1.00  0.00     0.026 A 
HETATM   17  C   UNL     1      29.230  45.857  55.674  1.00  0.00     0.038 A 
ENDBRANCH  10  11
ENDBRANCH   9  10
ENDBRANCH   6   9
ENDBRANCH   5   6
ENDBRANCH   2   5
BRANCH   1  18
HETATM   18  C   UNL     1      23.331  47.866  49.336  1.00  0.00     0.098 A 
HETATM   19  C   UNL     1      22.542  49.003  49.319  1.00  0.00     0.167 A 
HETATM   20  N   UNL     1      21.480  48.726  48.450  1.00  0.00    -0.226 N 
HETATM   21  N   UNL     1      22.674  50.220  49.940  1.00  0.00    -0.240 NA
HETATM   22  C   UNL     1      20.529  49.698  48.162  1.00  0.00     0.128 A 
HETATM   23  N   UNL     1      21.542  47.467  47.960  1.00  0.00    -0.178 NA
HETATM   24  C   UNL     1      20.610  50.919  48.714  1.00  0.00    -0.027 A 
HETATM   25  C   UNL     1      19.682  52.056  48.476  1.00  0.00     0.051 C 
HETATM   26  C   UNL     1      21.765  51.105  49.645  1.00  0.00     0.127 A 
HETATM   27  C   UNL     1      22.661  46.965  48.483  1.00  0.00     0.160 A 
ENDBRANCH   1  18
TORSDOF 7
ENDMDL
MODEL 3
REMARK VINA RESULT:      -8.3     12.334     14.393
REMARK  7 active torsions:
REMARK  status: ('A' for Active; 'I' for Inactive)
REMARK    1  A    between atoms: C_10  and  C_11 
REMARK       I    between atoms: C_11  and  N_12 
REMARK    2  A    between atoms: N_12  and  C_13 
REMARK    3  A    between atoms: C_13  and  C_14 
REMARK    4  A    between atoms: C_14  and  O_15 
REMARK    5  A    between atoms: C_14  and  C_16 
REMARK    6  A    between atoms: C_16  and  O_17 
REMARK    7  A    between atoms: O_17  and  C_18 
ROOT
HETATM    1  C   UNL     1      34.400  53.146  39.364  1.00  0.00     0.257 C 
HETATM    2  N   UNL     1      35.559  52.415  39.481  1.00  0.00    -0.354 N 
HETATM    3  O   UNL     1      34.377  54.371  39.331  1.00  0.00    -0.267 OA
HETATM    4  H   UNL     1      35.420  51.414  39.617  1.00  0.00     0.162 HD
ENDROOT
BRANCH   2   5
HETATM    5  C   UNL     1      36.851  52.962  39.885  1.00  0.00     0.156 C 
BRANCH   5   6
HETATM    6  C   UNL     1      37.207  52.841  41.379  1.00  0.00     0.160 C 
BRANCH   6   7
HETATM    7  O   UNL     1      36.763  54.019  42.072  1.00  0.00    -0.392 OA
HETATM    8  H   UNL     1      36.507  53.721  42.973  1.00  0.00     0.210 HD
ENDBRANCH   6   7
BRANCH   6   9
HETATM    9  C   UNL     1      36.492  51.637  42.013  1.00  0.00     0.209 C 
BRANCH   9  10
HETATM   10  O   UNL     1      35.406  52.120  42.815  1.00  0.00    -0.349 OA
BRANCH  10  11
HETATM   11  C   UNL     1      34.249  51.393  42.810  1.00  0.00     0.069 A 
HETATM   12  C   UNL     1      34.248  50.310  41.926  1.00  0.00     0.038 A 
HETATM   13  C   UNL     1      33.129  49.481  41.815  1.00  0.00     0.026 A 
HETATM   14  C   UNL     1      32.003  49.742  42.592  1.00  0.00     0.034 A 
HETATM   15 CL   UNL     1      30.619  48.727  42.462  1.00  0.00    -0.084 Cl
HETATM   16  C   UNL     1      31.992  50.821  43.472  1.00  0.00     0.026 A 
HETATM   17  C   UNL     1      33.114  51.650  43.580  1.00  0.00     0.038 A 
ENDBRANCH  10  11
ENDBRANCH   9  10
ENDBRANCH   6   9
ENDBRANCH   5   6
ENDBRANCH   2   5
BRANCH   1  18
HETATM   18  C   UNL     1      33.180  52.368  39.288  1.00  0.00     0.098 A 
HETATM   19  C   UNL     1      31.990  52.549  39.969  1.00  0.00     0.167 A 
HETATM   20  N   UNL     1      31.113  51.570  39.486  1.00  0.00    -0.226 N 
HETATM   21  N   UNL     1      31.603  53.470  40.910  1.00  0.00    -0.240 NA
HETATM   22  C   UNL     1      29.797  51.517  39.930  1.00  0.00     0.128 A 
HETATM   23  N   UNL     1      31.706  50.764  38.575  1.00  0.00    -0.178 NA
HETATM   24  C   UNL     1      29.343  52.403  40.831  1.00  0.00    -0.027 A 
HETATM   25  C   UNL     1      27.960  52.479  41.371  1.00  0.00     0.051 C 
HETATM   26  C   UNL     1      30.362  53.390  41.301  1.00  0.00     0.127 A 
HETATM   27  C   UNL     1      32.938  51.260  38.451  1.00  0.00     0.160 A 
ENDBRANCH   1  18
TORSDOF 7
ENDMDL
MODEL 4
REMARK VINA RESULT:      -8.2      3.990      8.580
REMARK  7 active torsions:
REMARK  status: ('A' for Active; 'I' for Inactive)
REMARK    1  A    between atoms: C_10  and  C_11 
REMARK       I    between atoms: C_11  and  N_12 
REMARK    2  A    between atoms: N_12  and  C_13 
REMARK    3  A    between atoms: C_13  and  C_14 
REMARK    4  A    between atoms: C_14  and  O_15 
REMARK    5  A    between atoms: C_14  and  C_16 
REMARK    6  A    between atoms: C_16  and  O_17 
REMARK    7  A    between atoms: O_17  and  C_18 
ROOT
HETATM    1  C   UNL     1      26.636  44.666  53.235  1.00  0.00     0.257 C 
HETATM    2  N   UNL     1      27.135  43.650  52.453  1.00  0.00    -0.354 N 
HETATM    3  O   UNL     1      25.511  45.133  53.095  1.00  0.00    -0.267 OA
HETATM    4  H   UNL     1      28.122  43.443  52.601  1.00  0.00     0.162 HD
ENDROOT
BRANCH   2   5
HETATM    5  C   UNL     1      26.550  43.208  51.191  1.00  0.00     0.156 C 
BRANCH   5   6
HETATM    6  C   UNL     1      26.927  44.026  49.940  1.00  0.00     0.160 C 
BRANCH   6   7
HETATM    7  O   UNL     1      27.058  43.145  48.814  1.00  0.00    -0.392 OA
HETATM    8  H   UNL     1      27.938  42.719  48.905  1.00  0.00     0.210 HD
ENDBRANCH   6   7
BRANCH   6   9
HETATM    9  C   UNL     1      25.823  45.043  49.604  1.00  0.00     0.209 C 
BRANCH   9  10
HETATM   10  O   UNL     1      26.308  46.359  49.900  1.00  0.00    -0.349 OA
BRANCH  10  11
HETATM   11  C   UNL     1      25.496  47.413  49.588  1.00  0.00     0.069 A 
HETATM   12  C   UNL     1      26.160  48.517  49.045  1.00  0.00     0.038 A 
HETATM   13  C   UNL     1      25.454  49.666  48.681  1.00  0.00     0.026 A 
HETATM   14  C   UNL     1      24.075  49.710  48.866  1.00  0.00     0.034 A 
HETATM   15 CL   UNL     1      23.195  51.121  48.423  1.00  0.00    -0.084 Cl
HETATM   16  C   UNL     1      23.403  48.617  49.411  1.00  0.00     0.026 A 
HETATM   17  C   UNL     1      24.114  47.468  49.775  1.00  0.00     0.038 A 
ENDBRANCH  10  11
ENDBRANCH   9  10
ENDBRANCH   6   9
ENDBRANCH   5   6
ENDBRANCH   2   5
BRANCH   1  18
HETATM   18  C   UNL     1      27.538  45.167  54.252  1.00  0.00     0.098 A 
HETATM   19  C   UNL     1      28.604  44.528  54.859  1.00  0.00     0.167 A 
HETATM   20  N   UNL     1      29.184  45.469  55.718  1.00  0.00    -0.226 N 
HETATM   21  N   UNL     1      29.117  43.262  54.715  1.00  0.00    -0.240 NA
HETATM   22  C   UNL     1      30.329  45.157  56.441  1.00  0.00     0.128 A 
HETATM   23  N   UNL     1      28.511  46.643  55.710  1.00  0.00    -0.178 NA
HETATM   24  C   UNL     1      30.899  43.947  56.330  1.00  0.00    -0.027 A 
HETATM   25  C   UNL     1      32.134  43.489  57.020  1.00  0.00     0.051 C 
HETATM   26  C   UNL     1      30.191  43.008  55.407  1.00  0.00     0.127 A 
HETATM   27  C   UNL     1      27.538  46.458  54.818  1.00  0.00     0.160 A 
ENDBRANCH   1  18
TORSDOF 7
ENDMDL
MODEL 5
REMARK VINA RESULT:      -8.1      2.154      2.959
REMARK  7 active torsions:
REMARK  status: ('A' for Active; 'I' for Inactive)
REMARK    1  A    between atoms: C_10  and  C_11 
REMARK       I    between atoms: C_11  and  N_12 
REMARK    2  A    between atoms: N_12  and  C_13 
REMARK    3  A    between atoms: C_13  and  C_14 
REMARK    4  A    between atoms: C_14  and  O_15 
REMARK    5  A    between atoms: C_14  and  C_16 
REMARK    6  A    between atoms: C_16  and  O_17 
REMARK    7  A    between atoms: O_17  and  C_18 
ROOT
HETATM    1  C   UNL     1      25.263  43.834  51.214  1.00  0.00     0.257 C 
HETATM    2  N   UNL     1      26.558  43.374  51.142  1.00  0.00    -0.354 N 
HETATM    3  O   UNL     1      24.303  43.109  51.450  1.00  0.00    -0.267 OA
HETATM    4  H   UNL     1      27.238  44.063  50.821  1.00  0.00     0.162 HD
ENDROOT
BRANCH   2   5
HETATM    5  C   UNL     1      26.937  41.970  51.024  1.00  0.00     0.156 C 
BRANCH   5   6
HETATM    6  C   UNL     1      27.802  41.398  52.163  1.00  0.00     0.160 C 
BRANCH   6   7
HETATM    7  O   UNL     1      29.177  41.365  51.749  1.00  0.00    -0.392 OA
HETATM    8  H   UNL     1      29.573  42.210  52.057  1.00  0.00     0.210 HD
ENDBRANCH   6   7
BRANCH   6   9
HETATM    9  C   UNL     1      27.719  42.293  53.411  1.00  0.00     0.209 C 
BRANCH   9  10
HETATM   10  O   UNL     1      28.589  43.418  53.225  1.00  0.00    -0.349 OA
BRANCH  10  11
HETATM   11  C   UNL     1      29.145  43.973  54.342  1.00  0.00     0.069 A 
HETATM   12  C   UNL     1      28.486  45.112  54.815  1.00  0.00     0.038 A 
HETATM   13  C   UNL     1      28.947  45.785  55.949  1.00  0.00     0.026 A 
HETATM   14  C   UNL     1      30.077  45.315  56.612  1.00  0.00     0.034 A 
HETATM   15 CL   UNL     1      30.654  46.136  58.010  1.00  0.00    -0.084 Cl
HETATM   16  C   UNL     1      30.745  44.184  56.147  1.00  0.00     0.026 A 
HETATM   17  C   UNL     1      30.281  43.513  55.010  1.00  0.00     0.038 A 
ENDBRANCH  10  11
ENDBRANCH   9  10
ENDBRANCH   6   9
ENDBRANCH   5   6
ENDBRANCH   2   5
BRANCH   1  18
HETATM   18  C   UNL     1      25.096  45.255  50.985  1.00  0.00     0.098 A 
HETATM   19  C   UNL     1      24.270  45.897  50.080  1.00  0.00     0.167 A 
HETATM   20  N   UNL     1      24.436  47.269  50.306  1.00  0.00    -0.226 N 
HETATM   21  N   UNL     1      23.395  45.418  49.135  1.00  0.00    -0.240 NA
HETATM   22  C   UNL     1      23.692  48.200  49.592  1.00  0.00     0.128 A 
HETATM   23  N   UNL     1      25.352  47.514  51.272  1.00  0.00    -0.178 NA
HETATM   24  C   UNL     1      22.800  47.802  48.671  1.00  0.00    -0.027 A 
HETATM   25  C   UNL     1      21.922  48.683  47.857  1.00  0.00     0.051 C 
HETATM   26  C   UNL     1      22.715  46.321  48.488  1.00  0.00     0.127 A 
HETATM   27  C   UNL     1      25.729  46.303  51.683  1.00  0.00     0.160 A 
ENDBRANCH   1  18
TORSDOF 7
ENDMDL
MODEL 6
REMARK VINA RESULT:      -8.1      4.209      6.086
REMARK  7 active torsions:
REMARK  status: ('A' for Active; 'I' for Inactive)
REMARK    1  A    between atoms: C_10  and  C_11 
REMARK       I    between atoms: C_11  and  N_12 
REMARK    2  A    between atoms: N_12  and  C_13 
REMARK    3  A    between atoms: C_13  and  C_14 
REMARK    4  A    between atoms: C_14  and  O_15 
REMARK    5  A    between atoms: C_14  and  C_16 
REMARK    6  A    between atoms: C_16  and  O_17 
REMARK    7  A    between atoms: O_17  and  C_18 
ROOT
HETATM    1  C   UNL     1      25.945  44.139  52.696  1.00  0.00     0.257 C 
HETATM    2  N   UNL     1      26.529  45.243  53.273  1.00  0.00    -0.354 N 
HETATM    3  O   UNL     1      24.733  44.015  52.556  1.00  0.00    -0.267 OA
HETATM    4  H   UNL     1      27.532  45.159  53.434  1.00  0.00     0.162 HD
ENDROOT
BRANCH   2   5
HETATM    5  C   UNL     1      25.817  46.247  54.057  1.00  0.00     0.156 C 
BRANCH   5   6
HETATM    6  C   UNL     1      26.450  47.651  54.106  1.00  0.00     0.160 C 
BRANCH   6   7
HETATM    7  O   UNL     1      25.607  48.530  54.867  1.00  0.00    -0.392 OA
HETATM    8  H   UNL     1      25.530  48.125  55.759  1.00  0.00     0.210 HD
ENDBRANCH   6   7
BRANCH   6   9
HETATM    9  C   UNL     1      27.819  47.606  54.805  1.00  0.00     0.209 C 
BRANCH   9  10
HETATM   10  O   UNL     1      27.688  46.850  56.017  1.00  0.00    -0.349 OA
BRANCH  10  11
HETATM   11  C   UNL     1      28.748  46.072  56.389  1.00  0.00     0.069 A 
HETATM   12  C   UNL     1      29.204  45.198  55.398  1.00  0.00     0.038 A 
HETATM   13  C   UNL     1      30.281  44.342  55.641  1.00  0.00     0.026 A 
HETATM   14  C   UNL     1      30.901  44.359  56.887  1.00  0.00     0.034 A 
HETATM   15 CL   UNL     1      32.228  43.308  57.198  1.00  0.00    -0.084 Cl
HETATM   16  C   UNL     1      30.452  45.222  57.884  1.00  0.00     0.026 A 
HETATM   17  C   UNL     1      29.373  46.079  57.637  1.00  0.00     0.038 A 
ENDBRANCH  10  11
ENDBRANCH   9  10
ENDBRANCH   6   9
ENDBRANCH   5   6
ENDBRANCH   2   5
BRANCH   1  18
HETATM   18  C   UNL     1      26.863  43.107  52.261  1.00  0.00     0.098 A 
HETATM   19  C   UNL     1      26.657  42.089  51.346  1.00  0.00     0.167 A 
HETATM   20  N   UNL     1      27.876  41.410  51.239  1.00  0.00    -0.226 N 
HETATM   21  N   UNL     1      25.558  41.733  50.603  1.00  0.00    -0.240 NA
HETATM   22  C   UNL     1      28.024  40.357  50.344  1.00  0.00     0.128 A 
HETATM   23  N   UNL     1      28.815  41.921  52.068  1.00  0.00    -0.178 NA
HETATM   24  C   UNL     1      26.999  39.971  49.567  1.00  0.00    -0.027 A 
HETATM   25  C   UNL     1      27.023  38.884  48.552  1.00  0.00     0.051 C 
HETATM   26  C   UNL     1      25.736  40.744  49.775  1.00  0.00     0.127 A 
HETATM   27  C   UNL     1      28.205  42.947  52.663  1.00  0.00     0.160 A 
ENDBRANCH   1  18
TORSDOF 7
ENDMDL
MODEL 7
REMARK VINA RESULT:      -8.1     11.678     13.671
REMARK  7 active torsions:
REMARK  status: ('A' for Active; 'I' for Inactive)
REMARK    1  A    between atoms: C_10  and  C_11 
REMARK       I    between atoms: C_11  and  N_12 
REMARK    2  A    between atoms: N_12  and  C_13 
REMARK    3  A    between atoms: C_13  and  C_14 
REMARK    4  A    between atoms: C_14  and  O_15 
REMARK    5  A    between atoms: C_14  and  C_16 
REMARK    6  A    between atoms: C_16  and  O_17 
REMARK    7  A    between atoms: O_17  and  C_18 
ROOT
HETATM    1  C   UNL     1      30.186  51.604  38.270  1.00  0.00     0.257 C 
HETATM    2  N   UNL     1      28.964  51.634  38.902  1.00  0.00    -0.354 N 
HETATM    3  O   UNL     1      30.314  51.632  37.051  1.00  0.00    -0.267 OA
HETATM    4  H   UNL     1      29.002  51.484  39.910  1.00  0.00     0.162 HD
ENDROOT
BRANCH   2   5
HETATM    5  C   UNL     1      27.682  51.394  38.247  1.00  0.00     0.156 C 
BRANCH   5   6
HETATM    6  C   UNL     1      26.739  50.390  38.938  1.00  0.00     0.160 C 
BRANCH   6   7
HETATM    7  O   UNL     1      25.450  50.432  38.305  1.00  0.00    -0.392 OA
HETATM    8  H   UNL     1      25.498  49.803  37.552  1.00  0.00     0.210 HD
ENDBRANCH   6   7
BRANCH   6   9
HETATM    9  C   UNL     1      27.275  48.956  38.797  1.00  0.00     0.209 C 
BRANCH   9  10
HETATM   10  O   UNL     1      27.528  48.432  40.107  1.00  0.00    -0.349 OA
BRANCH  10  11
HETATM   11  C   UNL     1      28.829  48.365  40.517  1.00  0.00     0.069 A 
HETATM   12  C   UNL     1      29.733  47.982  39.521  1.00  0.00     0.038 A 
HETATM   13  C   UNL     1      31.097  47.870  39.799  1.00  0.00     0.026 A 
HETATM   14  C   UNL     1      31.558  48.139  41.085  1.00  0.00     0.034 A 
HETATM   15 CL   UNL     1      33.236  48.003  41.440  1.00  0.00    -0.084 Cl
HETATM   16  C   UNL     1      30.666  48.516  42.087  1.00  0.00     0.026 A 
HETATM   17  C   UNL     1      29.300  48.627  41.804  1.00  0.00     0.038 A 
ENDBRANCH  10  11
ENDBRANCH   9  10
ENDBRANCH   6   9
ENDBRANCH   5   6
ENDBRANCH   2   5
BRANCH   1  18
HETATM   18  C   UNL     1      31.337  51.529  39.147  1.00  0.00     0.098 A 
HETATM   19  C   UNL     1      31.404  51.740  40.512  1.00  0.00     0.167 A 
HETATM   20  N   UNL     1      32.729  51.481  40.882  1.00  0.00    -0.226 N 
HETATM   21  N   UNL     1      30.448  52.092  41.434  1.00  0.00    -0.240 NA
HETATM   22  C   UNL     1      33.119  51.545  42.214  1.00  0.00     0.128 A 
HETATM   23  N   UNL     1      33.498  51.163  39.815  1.00  0.00    -0.178 NA
HETATM   24  C   UNL     1      32.232  51.858  43.171  1.00  0.00    -0.027 A 
HETATM   25  C   UNL     1      32.502  51.936  44.632  1.00  0.00     0.051 C 
HETATM   26  C   UNL     1      30.851  52.140  42.672  1.00  0.00     0.127 A 
HETATM   27  C   UNL     1      32.653  51.179  38.783  1.00  0.00     0.160 A 
ENDBRANCH   1  18
TORSDOF 7
ENDMDL
MODEL 8
REMARK VINA RESULT:      -8.1     11.728     14.119
REMARK  7 active torsions:
REMARK  status: ('A' for Active; 'I' for Inactive)
REMARK    1  A    between atoms: C_10  and  C_11 
REMARK       I    between atoms: C_11  and  N_12 
REMARK    2  A    between atoms: N_12  and  C_13 
REMARK    3  A    between atoms: C_13  and  C_14 
REMARK    4  A    between atoms: C_14  and  O_15 
REMARK    5  A    between atoms: C_14  and  C_16 
REMARK    6  A    between atoms: C_16  and  O_17 
REMARK    7  A    between atoms: O_17  and  C_18 
ROOT
HETATM    1  C   UNL     1      29.042  47.640  40.048  1.00  0.00     0.257 C 
HETATM    2  N   UNL     1      28.800  47.932  38.726  1.00  0.00    -0.354 N 
HETATM    3  O   UNL     1      28.500  46.715  40.644  1.00  0.00    -0.267 OA
HETATM    4  H   UNL     1      29.226  48.797  38.395  1.00  0.00     0.162 HD
ENDROOT
BRANCH   2   5
HETATM    5  C   UNL     1      27.678  47.410  37.951  1.00  0.00     0.156 C 
BRANCH   5   6
HETATM    6  C   UNL     1      26.332  48.139  38.122  1.00  0.00     0.160 C 
BRANCH   6   7
HETATM    7  O   UNL     1      25.741  47.764  39.376  1.00  0.00    -0.392 OA
HETATM    8  H   UNL     1      25.601  46.793  39.329  1.00  0.00     0.210 HD
ENDBRANCH   6   7
BRANCH   6   9
HETATM    9  C   UNL     1      26.539  49.663  38.148  1.00  0.00     0.209 C 
BRANCH   9  10
HETATM   10  O   UNL     1      26.524  50.103  39.512  1.00  0.00    -0.349 OA
BRANCH  10  11
HETATM   11  C   UNL     1      27.438  51.050  39.877  1.00  0.00     0.069 A 
HETATM   12  C   UNL     1      28.066  51.694  38.806  1.00  0.00     0.038 A 
HETATM   13  C   UNL     1      29.026  52.683  39.032  1.00  0.00     0.026 A 
HETATM   14  C   UNL     1      29.361  53.027  40.339  1.00  0.00     0.034 A 
HETATM   15 CL   UNL     1      30.543  54.244  40.629  1.00  0.00    -0.084 Cl
HETATM   16  C   UNL     1      28.746  52.389  41.413  1.00  0.00     0.026 A 
HETATM   17  C   UNL     1      27.785  51.397  41.183  1.00  0.00     0.038 A 
ENDBRANCH  10  11
ENDBRANCH   9  10
ENDBRANCH   6   9
ENDBRANCH   5   6
ENDBRANCH   2   5
BRANCH   1  18
HETATM   18  C   UNL     1      29.989  48.512  40.713  1.00  0.00     0.098 A 
HETATM   19  C   UNL     1      30.877  49.415  40.156  1.00  0.00     0.167 A 
HETATM   20  N   UNL     1      31.514  50.048  41.231  1.00  0.00    -0.226 N 
HETATM   21  N   UNL     1      31.150  49.748  38.852  1.00  0.00    -0.240 NA
HETATM   22  C   UNL     1      32.434  51.066  41.010  1.00  0.00     0.128 A 
HETATM   23  N   UNL     1      31.101  49.557  42.423  1.00  0.00    -0.178 NA
HETATM   24  C   UNL     1      32.729  51.460  39.762  1.00  0.00    -0.027 A 
HETATM   25  C   UNL     1      33.669  52.549  39.382  1.00  0.00     0.051 C 
HETATM   26  C   UNL     1      32.016  50.707  38.685  1.00  0.00     0.127 A 
HETATM   27  C   UNL     1      30.177  48.650  42.103  1.00  0.00     0.160 A 
ENDBRANCH   1  18
TORSDOF 7
ENDMDL
MODEL 9
REMARK VINA RESULT:      -7.8     11.732     13.791
REMARK  7 active torsions:
REMARK  status: ('A' for Active; 'I' for Inactive)
REMARK    1  A    between atoms: C_10  and  C_11 
REMARK       I    between atoms: C_11  and  N_12 
REMARK    2  A    between atoms: N_12  and  C_13 
REMARK    3  A    between atoms: C_13  and  C_14 
REMARK    4  A    between atoms: C_14  and  O_15 
REMARK    5  A    between atoms: C_14  and  C_16 
REMARK    6  A    between atoms: C_16  and  O_17 
REMARK    7  A    between atoms: O_17  and  C_18 
ROOT
HETATM    1  C   UNL     1      30.289  47.710  39.442  1.00  0.00     0.257 C 
HETATM    2  N   UNL     1      29.441  47.691  38.359  1.00  0.00    -0.354 N 
HETATM    3  O   UNL     1      30.503  46.731  40.147  1.00  0.00    -0.267 OA
HETATM    4  H   UNL     1      29.265  48.602  37.937  1.00  0.00     0.162 HD
ENDROOT
BRANCH   2   5
HETATM    5  C   UNL     1      28.467  46.639  38.084  1.00  0.00     0.156 C 
BRANCH   5   6
HETATM    6  C   UNL     1      27.119  46.745  38.823  1.00  0.00     0.160 C 
BRANCH   6   7
HETATM    7  O   UNL     1      27.304  46.401  40.205  1.00  0.00    -0.392 OA
HETATM    8  H   UNL     1      27.488  47.246  40.672  1.00  0.00     0.210 HD
ENDBRANCH   6   7
BRANCH   6   9
HETATM    9  C   UNL     1      26.585  48.186  38.774  1.00  0.00     0.209 C 
BRANCH   9  10
HETATM   10  O   UNL     1      26.706  48.763  40.082  1.00  0.00    -0.349 OA
BRANCH  10  11
HETATM   11  C   UNL     1      27.355  49.961  40.182  1.00  0.00     0.069 A 
HETATM   12  C   UNL     1      27.506  50.643  38.971  1.00  0.00     0.038 A 
HETATM   13  C   UNL     1      28.152  51.881  38.925  1.00  0.00     0.026 A 
HETATM   14  C   UNL     1      28.654  52.436  40.098  1.00  0.00     0.034 A 
HETATM   15 CL   UNL     1      29.453  53.959  40.053  1.00  0.00    -0.084 Cl
HETATM   16  C   UNL     1      28.514  51.763  41.310  1.00  0.00     0.026 A 
HETATM   17  C   UNL     1      27.866  50.523  41.353  1.00  0.00     0.038 A 
ENDBRANCH  10  11
ENDBRANCH   9  10
ENDBRANCH   6   9
ENDBRANCH   5   6
ENDBRANCH   2   5
BRANCH   1  18
HETATM   18  C   UNL     1      30.923  48.985  39.710  1.00  0.00     0.098 A 
HETATM   19  C   UNL     1      31.322  49.519  40.923  1.00  0.00     0.167 A 
HETATM   20  N   UNL     1      31.937  50.742  40.626  1.00  0.00    -0.226 N 
HETATM   21  N   UNL     1      31.234  49.043  42.208  1.00  0.00    -0.240 NA
HETATM   22  C   UNL     1      32.508  51.510  41.634  1.00  0.00     0.128 A 
HETATM   23  N   UNL     1      31.901  51.017  39.302  1.00  0.00    -0.178 NA
HETATM   24  C   UNL     1      32.481  51.093  42.909  1.00  0.00    -0.027 A 
HETATM   25  C   UNL     1      33.074  51.796  44.078  1.00  0.00     0.051 C 
HETATM   26  C   UNL     1      31.783  49.789  43.124  1.00  0.00     0.127 A 
HETATM   27  C   UNL     1      31.308  49.953  38.760  1.00  0.00     0.160 A 
ENDBRANCH   1  18
TORSDOF 7
ENDMDL
MODEL 10
REMARK VINA RESULT:      -7.8     11.500     13.231
REMARK  7 active torsions:
REMARK  status: ('A' for Active; 'I' for Inactive)
REMARK    1  A    between atoms: C_10  and  C_11 
REMARK       I    between atoms: C_11  and  N_12 
REMARK    2  A    between atoms: N_12  and  C_13 
REMARK    3  A    between atoms: C_13  and  C_14 
REMARK    4  A    between atoms: C_14  and  O_15 
REMARK    5  A    between atoms: C_14  and  C_16 
REMARK    6  A    between atoms: C_16  and  O_17 
REMARK    7  A    between atoms: O_17  and  C_18 
ROOT
HETATM    1  C   UNL     1      27.265  50.823  39.146  1.00  0.00     0.257 C 
HETATM    2  N   UNL     1      26.321  50.158  39.895  1.00  0.00    -0.354 N 
HETATM    3  O   UNL     1      27.223  50.899  37.923  1.00  0.00    -0.267 OA
HETATM    4  H   UNL     1      26.545  50.074  40.886  1.00  0.00     0.162 HD
ENDROOT
BRANCH   2   5
HETATM    5  C   UNL     1      25.346  49.216  39.357  1.00  0.00     0.156 C 
BRANCH   5   6
HETATM    6  C   UNL     1      25.505  47.746  39.791  1.00  0.00     0.160 C 
BRANCH   6   7
HETATM    7  O   UNL     1      24.815  46.896  38.861  1.00  0.00    -0.392 OA
HETATM    8  H   UNL     1      25.160  47.131  37.972  1.00  0.00     0.210 HD
ENDBRANCH   6   7
BRANCH   6   9
HETATM    9  C   UNL     1      26.986  47.333  39.781  1.00  0.00     0.209 C 
BRANCH   9  10
HETATM   10  O   UNL     1      27.582  47.739  41.020  1.00  0.00    -0.349 OA
BRANCH  10  11
HETATM   11  C   UNL     1      28.930  47.961  41.025  1.00  0.00     0.069 A 
HETATM   12  C   UNL     1      29.393  48.704  42.116  1.00  0.00     0.038 A 
HETATM   13  C   UNL     1      30.750  49.007  42.248  1.00  0.00     0.026 A 
HETATM   14  C   UNL     1      31.648  48.567  41.280  1.00  0.00     0.034 A 
HETATM   15 CL   UNL     1      33.322  48.935  41.433  1.00  0.00    -0.084 Cl
HETATM   16  C   UNL     1      31.198  47.830  40.187  1.00  0.00     0.026 A 
HETATM   17  C   UNL     1      29.837  47.528  40.057  1.00  0.00     0.038 A 
ENDBRANCH  10  11
ENDBRANCH   9  10
ENDBRANCH   6   9
ENDBRANCH   5   6
ENDBRANCH   2   5
BRANCH   1  18
HETATM   18  C   UNL     1      28.337  51.437  39.902  1.00  0.00     0.098 A 
HETATM   19  C   UNL     1      29.692  51.463  39.623  1.00  0.00     0.167 A 
HETATM   20  N   UNL     1      30.282  52.238  40.630  1.00  0.00    -0.226 N 
HETATM   21  N   UNL     1      30.428  50.924  38.596  1.00  0.00    -0.240 NA
HETATM   22  C   UNL     1      31.644  52.512  40.606  1.00  0.00     0.128 A 
HETATM   23  N   UNL     1      29.375  52.657  41.542  1.00  0.00    -0.178 NA
HETATM   24  C   UNL     1      32.420  52.038  39.618  1.00  0.00    -0.027 A 
HETATM   25  C   UNL     1      33.879  52.275  39.454  1.00  0.00     0.051 C 
HETATM   26  C   UNL     1      31.700  51.205  38.607  1.00  0.00     0.127 A 
HETATM   27  C   UNL     1      28.212  52.187  41.089  1.00  0.00     0.160 A 
ENDBRANCH   1  18
TORSDOF 7
ENDMDL
