MODEL 1
REMARK VINA RESULT:      -9.4      0.000      0.000
REMARK  8 active torsions:
REMARK  status: ('A' for Active; 'I' for Inactive)
REMARK    1  A    between atoms: O_2  and  C_3 
REMARK    2  A    between atoms: C_3  and  C_4 
REMARK    3  A    between atoms: C_4  and  C_5 
REMARK    4  A    between atoms: C_5  and  N_6 
REMARK    5  A    between atoms: N_6  and  C_8 
REMARK    6  A    between atoms: N_6  and  C_21 
REMARK    7  A    between atoms: C_8  and  C_9 
REMARK    8  A    between atoms: C_21  and  C_22 
ROOT
HETATM    1  N   UNL     1      26.582  44.621  50.581  1.00  0.00    -0.058 N 
HETATM    2  H   UNL     1      27.532  44.224  50.517  1.00  0.00     0.280 HD
ENDROOT
BRANCH   1   3
HETATM    3  C   UNL     1      26.493  45.833  49.679  1.00  0.00     0.238 C 
BRANCH   3   4
HETATM    4  C   UNL     1      26.064  47.079  50.447  1.00  0.00     0.054 C 
BRANCH   4   5
HETATM    5  C   UNL     1      25.885  48.258  49.495  1.00  0.00     0.168 C 
BRANCH   5   6
HETATM    6  O   UNL     1      27.062  48.342  48.696  1.00  0.00    -0.396 OA
HETATM    7  C   UNL     1      27.962  49.333  49.187  1.00  0.00     0.201 C 
ENDBRANCH   5   6
ENDBRANCH   4   5
ENDBRANCH   3   4
ENDBRANCH   1   3
BRANCH   1   8
HETATM    8  C   UNL     1      26.352  44.914  52.069  1.00  0.00     0.313 C 
BRANCH   8   9
HETATM    9  C   UNL     1      27.523  44.533  52.972  1.00  0.00     0.133 A 
HETATM   10  N   UNL     1      27.796  45.255  54.015  1.00  0.00    -0.233 NA
HETATM   11  C   UNL     1      28.876  44.853  54.829  1.00  0.00     0.076 A 
HETATM   12  C   UNL     1      29.666  43.735  54.532  1.00  0.00     0.061 A 
HETATM   13  C   UNL     1      29.173  45.591  55.976  1.00  0.00     0.056 A 
HETATM   14  C   UNL     1      29.323  42.968  53.324  1.00  0.00     0.259 A 
HETATM   15  C   UNL     1      30.734  43.354  55.348  1.00  0.00     0.021 A 
HETATM   16  O   UNL     1      29.947  41.979  52.967  1.00  0.00    -0.267 OA
HETATM   17  N   UNL     1      28.248  43.432  52.608  1.00  0.00    -0.309 N 
HETATM   18  H   UNL     1      28.032  42.866  51.795  1.00  0.00     0.170 HD
HETATM   19  C   UNL     1      31.023  44.105  56.486  1.00  0.00     0.025 A 
HETATM   20  C   UNL     1      30.242  45.219  56.795  1.00  0.00     0.036 A 
HETATM   21 CL   UNL     1      30.600  46.149  58.196  1.00  0.00    -0.084 Cl
ENDBRANCH   8   9
ENDBRANCH   1   8
BRANCH   1  22
HETATM   22  C   UNL     1      25.684  43.498  50.038  1.00  0.00     0.313 C 
BRANCH  22  23
HETATM   23  C   UNL     1      26.486  42.316  49.518  1.00  0.00     0.133 A 
HETATM   24  N   UNL     1      27.080  41.534  50.363  1.00  0.00    -0.233 NA
HETATM   25  C   UNL     1      27.813  40.447  49.841  1.00  0.00     0.076 A 
HETATM   26  C   UNL     1      27.867  40.166  48.470  1.00  0.00     0.061 A 
HETATM   27  C   UNL     1      28.506  39.614  50.721  1.00  0.00     0.056 A 
HETATM   28  C   UNL     1      27.119  41.054  47.567  1.00  0.00     0.259 A 
HETATM   29  C   UNL     1      28.590  39.078  47.973  1.00  0.00     0.021 A 
HETATM   30  O   UNL     1      27.030  40.855  46.364  1.00  0.00    -0.267 OA
HETATM   31  N   UNL     1      26.497  42.118  48.167  1.00  0.00    -0.309 N 
HETATM   32  H   UNL     1      25.939  42.684  47.537  1.00  0.00     0.170 HD
HETATM   33  C   UNL     1      29.278  38.254  48.863  1.00  0.00     0.025 A 
HETATM   34  C   UNL     1      29.232  38.526  50.232  1.00  0.00     0.036 A 
HETATM   35 CL   UNL     1      30.076  37.507  51.331  1.00  0.00    -0.084 Cl
ENDBRANCH  22  23
ENDBRANCH   1  22
TORSDOF 8
ENDMDL
MODEL 2
REMARK VINA RESULT:      -9.4      5.023      9.241
REMARK  8 active torsions:
REMARK  status: ('A' for Active; 'I' for Inactive)
REMARK    1  A    between atoms: O_2  and  C_3 
REMARK    2  A    between atoms: C_3  and  C_4 
REMARK    3  A    between atoms: C_4  and  C_5 
REMARK    4  A    between atoms: C_5  and  N_6 
REMARK    5  A    between atoms: N_6  and  C_8 
REMARK    6  A    between atoms: N_6  and  C_21 
REMARK    7  A    between atoms: C_8  and  C_9 
REMARK    8  A    between atoms: C_21  and  C_22 
ROOT
HETATM    1  N   UNL     1      24.626  46.535  50.256  1.00  0.00    -0.058 N 
HETATM    2  H   UNL     1      24.377  47.349  50.840  1.00  0.00     0.280 HD
ENDROOT
BRANCH   1   3
HETATM    3  C   UNL     1      26.015  46.743  49.690  1.00  0.00     0.238 C 
BRANCH   3   4
HETATM    4  C   UNL     1      26.580  48.109  50.065  1.00  0.00     0.054 C 
BRANCH   4   5
HETATM    5  C   UNL     1      27.565  48.589  49.003  1.00  0.00     0.168 C 
BRANCH   5   6
HETATM    6  O   UNL     1      27.222  49.933  48.679  1.00  0.00    -0.396 OA
HETATM    7  C   UNL     1      26.004  50.002  47.940  1.00  0.00     0.201 C 
ENDBRANCH   5   6
ENDBRANCH   4   5
ENDBRANCH   3   4
ENDBRANCH   1   3
BRANCH   1   8
HETATM    8  C   UNL     1      23.517  46.423  49.203  1.00  0.00     0.313 C 
BRANCH   8   9
HETATM    9  C   UNL     1      22.716  47.706  48.995  1.00  0.00     0.133 A 
HETATM   10  N   UNL     1      21.716  47.717  48.167  1.00  0.00    -0.233 NA
HETATM   11  C   UNL     1      20.996  48.922  48.022  1.00  0.00     0.076 A 
HETATM   12  C   UNL     1      21.341  50.092  48.710  1.00  0.00     0.061 A 
HETATM   13  C   UNL     1      19.896  48.955  47.163  1.00  0.00     0.056 A 
HETATM   14  C   UNL     1      22.497  50.025  49.618  1.00  0.00     0.259 A 
HETATM   15  C   UNL     1      20.617  51.277  48.551  1.00  0.00     0.021 A 
HETATM   16  O   UNL     1      22.890  50.985  50.264  1.00  0.00    -0.267 OA
HETATM   17  N   UNL     1      23.122  48.806  49.700  1.00  0.00    -0.309 N 
HETATM   18  H   UNL     1      23.900  48.795  50.348  1.00  0.00     0.170 HD
HETATM   19  C   UNL     1      19.526  51.297  47.685  1.00  0.00     0.025 A 
HETATM   20  C   UNL     1      19.170  50.136  46.995  1.00  0.00     0.036 A 
HETATM   21 CL   UNL     1      17.827  50.161  45.923  1.00  0.00    -0.084 Cl
ENDBRANCH   8   9
ENDBRANCH   1   8
BRANCH   1  22
HETATM   22  C   UNL     1      24.637  45.365  51.253  1.00  0.00     0.313 C 
BRANCH  22  23
HETATM   23  C   UNL     1      25.573  45.613  52.425  1.00  0.00     0.133 A 
HETATM   24  N   UNL     1      26.579  44.818  52.611  1.00  0.00    -0.233 NA
HETATM   25  C   UNL     1      27.425  45.084  53.708  1.00  0.00     0.076 A 
HETATM   26  C   UNL     1      27.243  46.190  54.549  1.00  0.00     0.061 A 
HETATM   27  C   UNL     1      28.490  44.219  53.966  1.00  0.00     0.056 A 
HETATM   28  C   UNL     1      26.119  47.090  54.247  1.00  0.00     0.259 A 
HETATM   29  C   UNL     1      28.098  46.442  55.625  1.00  0.00     0.021 A 
HETATM   30  O   UNL     1      25.915  48.127  54.862  1.00  0.00    -0.267 OA
HETATM   31  N   UNL     1      25.318  46.707  53.202  1.00  0.00    -0.309 N 
HETATM   32  H   UNL     1      24.586  47.370  52.973  1.00  0.00     0.170 HD
HETATM   33  C   UNL     1      29.157  45.569  55.871  1.00  0.00     0.025 A 
HETATM   34  C   UNL     1      29.348  44.463  55.041  1.00  0.00     0.036 A 
HETATM   35 CL   UNL     1      30.658  43.389  55.341  1.00  0.00    -0.084 Cl
ENDBRANCH  22  23
ENDBRANCH   1  22
TORSDOF 8
ENDMDL
MODEL 3
REMARK VINA RESULT:      -9.2      3.471      6.837
REMARK  8 active torsions:
REMARK  status: ('A' for Active; 'I' for Inactive)
REMARK    1  A    between atoms: O_2  and  C_3 
REMARK    2  A    between atoms: C_3  and  C_4 
REMARK    3  A    between atoms: C_4  and  C_5 
REMARK    4  A    between atoms: C_5  and  N_6 
REMARK    5  A    between atoms: N_6  and  C_8 
REMARK    6  A    between atoms: N_6  and  C_21 
REMARK    7  A    between atoms: C_8  and  C_9 
REMARK    8  A    between atoms: C_21  and  C_22 
ROOT
HETATM    1  N   UNL     1      25.640  45.127  51.156  1.00  0.00    -0.058 N 
HETATM    2  H   UNL     1      24.670  45.327  50.868  1.00  0.00     0.280 HD
ENDROOT
BRANCH   1   3
HETATM    3  C   UNL     1      26.336  44.367  50.048  1.00  0.00     0.238 C 
BRANCH   3   4
HETATM    4  C   UNL     1      25.355  43.526  49.237  1.00  0.00     0.054 C 
BRANCH   4   5
HETATM    5  C   UNL     1      24.246  44.405  48.665  1.00  0.00     0.168 C 
BRANCH   5   6
HETATM    6  O   UNL     1      23.174  44.403  49.603  1.00  0.00    -0.396 OA
HETATM    7  C   UNL     1      21.910  44.548  48.958  1.00  0.00     0.201 C 
ENDBRANCH   5   6
ENDBRANCH   4   5
ENDBRANCH   3   4
ENDBRANCH   1   3
BRANCH   1   8
HETATM    8  C   UNL     1      25.532  44.367  52.484  1.00  0.00     0.313 C 
BRANCH   8   9
HETATM    9  C   UNL     1      26.869  44.126  53.180  1.00  0.00     0.133 A 
HETATM   10  N   UNL     1      27.238  44.898  54.156  1.00  0.00    -0.233 NA
HETATM   11  C   UNL     1      28.474  44.625  54.780  1.00  0.00     0.076 A 
HETATM   12  C   UNL     1      29.312  43.583  54.364  1.00  0.00     0.061 A 
HETATM   13  C   UNL     1      28.882  45.419  55.853  1.00  0.00     0.056 A 
HETATM   14  C   UNL     1      28.852  42.755  53.238  1.00  0.00     0.259 A 
HETATM   15  C   UNL     1      30.534  43.330  54.992  1.00  0.00     0.021 A 
HETATM   16  O   UNL     1      29.504  41.823  52.790  1.00  0.00    -0.267 OA
HETATM   17  N   UNL     1      27.631  43.092  52.709  1.00  0.00    -0.309 N 
HETATM   18  H   UNL     1      27.341  42.488  51.950  1.00  0.00     0.170 HD
HETATM   19  C   UNL     1      30.932  44.135  56.058  1.00  0.00     0.025 A 
HETATM   20  C   UNL     1      30.104  45.175  56.484  1.00  0.00     0.036 A 
HETATM   21 CL   UNL     1      30.594  46.172  57.796  1.00  0.00    -0.084 Cl
ENDBRANCH   8   9
ENDBRANCH   1   8
BRANCH   1  22
HETATM   22  C   UNL     1      26.267  46.523  51.306  1.00  0.00     0.313 C 
BRANCH  22  23
HETATM   23  C   UNL     1      25.657  47.537  50.351  1.00  0.00     0.133 A 
HETATM   24  N   UNL     1      24.368  47.624  50.259  1.00  0.00    -0.233 NA
HETATM   25  C   UNL     1      23.841  48.578  49.364  1.00  0.00     0.076 A 
HETATM   26  C   UNL     1      24.655  49.451  48.631  1.00  0.00     0.061 A 
HETATM   27  C   UNL     1      22.457  48.664  49.204  1.00  0.00     0.056 A 
HETATM   28  C   UNL     1      26.109  49.345  48.827  1.00  0.00     0.259 A 
HETATM   29  C   UNL     1      24.114  50.397  47.756  1.00  0.00     0.021 A 
HETATM   30  O   UNL     1      26.907  50.109  48.302  1.00  0.00    -0.267 OA
HETATM   31  N   UNL     1      26.521  48.342  49.666  1.00  0.00    -0.309 N 
HETATM   32  H   UNL     1      27.521  48.324  49.834  1.00  0.00     0.170 HD
HETATM   33  C   UNL     1      22.730  50.471  47.606  1.00  0.00     0.025 A 
HETATM   34  C   UNL     1      21.909  49.605  48.330  1.00  0.00     0.036 A 
HETATM   35 CL   UNL     1      20.201  49.701  48.149  1.00  0.00    -0.084 Cl
ENDBRANCH  22  23
ENDBRANCH   1  22
TORSDOF 8
ENDMDL
MODEL 4
REMARK VINA RESULT:      -9.1      3.168      7.852
REMARK  8 active torsions:
REMARK  status: ('A' for Active; 'I' for Inactive)
REMARK    1  A    between atoms: O_2  and  C_3 
REMARK    2  A    between atoms: C_3  and  C_4 
REMARK    3  A    between atoms: C_4  and  C_5 
REMARK    4  A    between atoms: C_5  and  N_6 
REMARK    5  A    between atoms: N_6  and  C_8 
REMARK    6  A    between atoms: N_6  and  C_21 
REMARK    7  A    between atoms: C_8  and  C_9 
REMARK    8  A    between atoms: C_21  and  C_22 
ROOT
HETATM    1  N   UNL     1      28.320  41.165  51.024  1.00  0.00    -0.058 N 
HETATM    2  H   UNL     1      28.947  41.984  51.021  1.00  0.00     0.280 HD
ENDROOT
BRANCH   1   3
HETATM    3  C   UNL     1      29.134  39.921  50.735  1.00  0.00     0.238 C 
BRANCH   3   4
HETATM    4  C   UNL     1      28.350  38.917  49.896  1.00  0.00     0.054 C 
BRANCH   4   5
HETATM    5  C   UNL     1      29.243  37.745  49.496  1.00  0.00     0.168 C 
BRANCH   5   6
HETATM    6  O   UNL     1      30.199  37.564  50.537  1.00  0.00    -0.396 OA
HETATM    7  C   UNL     1      29.799  36.544  51.449  1.00  0.00     0.201 C 
ENDBRANCH   5   6
ENDBRANCH   4   5
ENDBRANCH   3   4
ENDBRANCH   1   3
BRANCH   1   8
HETATM    8  C   UNL     1      27.230  41.471  49.988  1.00  0.00     0.313 C 
BRANCH   8   9
HETATM    9  C   UNL     1      26.595  42.851  50.134  1.00  0.00     0.133 A 
HETATM   10  N   UNL     1      27.260  43.909  49.784  1.00  0.00    -0.233 NA
HETATM   11  C   UNL     1      26.623  45.161  49.921  1.00  0.00     0.076 A 
HETATM   12  C   UNL     1      25.331  45.294  50.442  1.00  0.00     0.061 A 
HETATM   13  C   UNL     1      27.302  46.314  49.522  1.00  0.00     0.056 A 
HETATM   14  C   UNL     1      24.634  44.062  50.844  1.00  0.00     0.259 A 
HETATM   15  C   UNL     1      24.718  46.544  50.573  1.00  0.00     0.021 A 
HETATM   16  O   UNL     1      23.506  44.061  51.314  1.00  0.00    -0.267 OA
HETATM   17  N   UNL     1      25.332  42.895  50.658  1.00  0.00    -0.309 N 
HETATM   18  H   UNL     1      24.812  42.068  50.928  1.00  0.00     0.170 HD
HETATM   19  C   UNL     1      25.410  47.686  50.177  1.00  0.00     0.025 A 
HETATM   20  C   UNL     1      26.698  47.567  49.654  1.00  0.00     0.036 A 
HETATM   21 CL   UNL     1      27.555  48.976  49.168  1.00  0.00    -0.084 Cl
ENDBRANCH   8   9
ENDBRANCH   1   8
BRANCH   1  22
HETATM   22  C   UNL     1      27.790  41.120  52.467  1.00  0.00     0.313 C 
BRANCH  22  23
HETATM   23  C   UNL     1      28.131  42.379  53.247  1.00  0.00     0.133 A 
HETATM   24  N   UNL     1      27.293  43.367  53.252  1.00  0.00    -0.233 NA
HETATM   25  C   UNL     1      27.646  44.516  53.990  1.00  0.00     0.076 A 
HETATM   26  C   UNL     1      28.824  44.594  54.745  1.00  0.00     0.061 A 
HETATM   27  C   UNL     1      26.789  45.618  53.977  1.00  0.00     0.056 A 
HETATM   28  C   UNL     1      29.703  43.415  54.749  1.00  0.00     0.259 A 
HETATM   29  C   UNL     1      29.150  45.738  55.478  1.00  0.00     0.021 A 
HETATM   30  O   UNL     1      30.712  43.341  55.436  1.00  0.00    -0.267 OA
HETATM   31  N   UNL     1      29.304  42.377  53.947  1.00  0.00    -0.309 N 
HETATM   32  H   UNL     1      29.891  41.553  54.009  1.00  0.00     0.170 HD
HETATM   33  C   UNL     1      28.285  46.831  55.455  1.00  0.00     0.025 A 
HETATM   34  C   UNL     1      27.109  46.766  54.706  1.00  0.00     0.036 A 
HETATM   35 CL   UNL     1      26.039  48.112  54.682  1.00  0.00    -0.084 Cl
ENDBRANCH  22  23
ENDBRANCH   1  22
TORSDOF 8
ENDMDL
MODEL 5
REMARK VINA RESULT:      -9.1      2.710      7.604
REMARK  8 active torsions:
REMARK  status: ('A' for Active; 'I' for Inactive)
REMARK    1  A    between atoms: O_2  and  C_3 
REMARK    2  A    between atoms: C_3  and  C_4 
REMARK    3  A    between atoms: C_4  and  C_5 
REMARK    4  A    between atoms: C_5  and  N_6 
REMARK    5  A    between atoms: N_6  and  C_8 
REMARK    6  A    between atoms: N_6  and  C_21 
REMARK    7  A    between atoms: C_8  and  C_9 
REMARK    8  A    between atoms: C_21  and  C_22 
ROOT
HETATM    1  N   UNL     1      28.229  41.179  50.862  1.00  0.00    -0.058 N 
HETATM    2  H   UNL     1      28.851  42.001  50.901  1.00  0.00     0.280 HD
ENDROOT
BRANCH   1   3
HETATM    3  C   UNL     1      29.067  39.937  50.645  1.00  0.00     0.238 C 
BRANCH   3   4
HETATM    4  C   UNL     1      28.296  38.860  49.888  1.00  0.00     0.054 C 
BRANCH   4   5
HETATM    5  C   UNL     1      29.229  37.724  49.479  1.00  0.00     0.168 C 
BRANCH   5   6
HETATM    6  O   UNL     1      30.193  37.569  50.517  1.00  0.00    -0.396 OA
HETATM    7  C   UNL     1      29.808  36.560  51.448  1.00  0.00     0.201 C 
ENDBRANCH   5   6
ENDBRANCH   4   5
ENDBRANCH   3   4
ENDBRANCH   1   3
BRANCH   1   8
HETATM    8  C   UNL     1      27.221  41.472  49.743  1.00  0.00     0.313 C 
BRANCH   8   9
HETATM    9  C   UNL     1      26.507  42.815  49.878  1.00  0.00     0.133 A 
HETATM   10  N   UNL     1      27.159  43.918  49.674  1.00  0.00    -0.233 NA
HETATM   11  C   UNL     1      26.451  45.133  49.794  1.00  0.00     0.076 A 
HETATM   12  C   UNL     1      25.097  45.182  50.149  1.00  0.00     0.061 A 
HETATM   13  C   UNL     1      27.119  46.334  49.549  1.00  0.00     0.056 A 
HETATM   14  C   UNL     1      24.415  43.901  50.390  1.00  0.00     0.259 A 
HETATM   15  C   UNL     1      24.413  46.396  50.265  1.00  0.00     0.021 A 
HETATM   16  O   UNL     1      23.238  43.826  50.709  1.00  0.00    -0.267 OA
HETATM   17  N   UNL     1      25.187  42.776  50.235  1.00  0.00    -0.309 N 
HETATM   18  H   UNL     1      24.677  41.914  50.391  1.00  0.00     0.170 HD
HETATM   19  C   UNL     1      25.095  47.587  50.024  1.00  0.00     0.025 A 
HETATM   20  C   UNL     1      26.444  47.551  49.667  1.00  0.00     0.036 A 
HETATM   21 CL   UNL     1      27.287  49.020  49.373  1.00  0.00    -0.084 Cl
ENDBRANCH   8   9
ENDBRANCH   1   8
BRANCH   1  22
HETATM   22  C   UNL     1      27.590  41.141  52.260  1.00  0.00     0.313 C 
BRANCH  22  23
HETATM   23  C   UNL     1      28.036  42.305  53.130  1.00  0.00     0.133 A 
HETATM   24  N   UNL     1      29.055  42.153  53.915  1.00  0.00    -0.233 NA
HETATM   25  C   UNL     1      29.440  43.257  54.705  1.00  0.00     0.076 A 
HETATM   26  C   UNL     1      28.798  44.500  54.623  1.00  0.00     0.061 A 
HETATM   27  C   UNL     1      30.502  43.113  55.598  1.00  0.00     0.056 A 
HETATM   28  C   UNL     1      27.687  44.626  53.667  1.00  0.00     0.259 A 
HETATM   29  C   UNL     1      29.200  45.585  55.407  1.00  0.00     0.021 A 
HETATM   30  O   UNL     1      27.111  45.684  53.454  1.00  0.00    -0.267 OA
HETATM   31  N   UNL     1      27.350  43.478  52.998  1.00  0.00    -0.309 N 
HETATM   32  H   UNL     1      26.623  43.600  52.301  1.00  0.00     0.170 HD
HETATM   33  C   UNL     1      30.263  45.427  56.295  1.00  0.00     0.025 A 
HETATM   34  C   UNL     1      30.909  44.193  56.386  1.00  0.00     0.036 A 
HETATM   35 CL   UNL     1      32.224  43.998  57.477  1.00  0.00    -0.084 Cl
ENDBRANCH  22  23
ENDBRANCH   1  22
TORSDOF 8
ENDMDL
MODEL 6
REMARK VINA RESULT:      -9.0      3.325      8.061
REMARK  8 active torsions:
REMARK  status: ('A' for Active; 'I' for Inactive)
REMARK    1  A    between atoms: O_2  and  C_3 
REMARK    2  A    between atoms: C_3  and  C_4 
REMARK    3  A    between atoms: C_4  and  C_5 
REMARK    4  A    between atoms: C_5  and  N_6 
REMARK    5  A    between atoms: N_6  and  C_8 
REMARK    6  A    between atoms: N_6  and  C_21 
REMARK    7  A    between atoms: C_8  and  C_9 
REMARK    8  A    between atoms: C_21  and  C_22 
ROOT
HETATM    1  N   UNL     1      26.390  44.116  50.894  1.00  0.00    -0.058 N 
HETATM    2  H   UNL     1      27.049  44.896  51.041  1.00  0.00     0.280 HD
ENDROOT
BRANCH   1   3
HETATM    3  C   UNL     1      26.799  43.351  49.653  1.00  0.00     0.238 C 
BRANCH   3   4
HETATM    4  C   UNL     1      25.811  42.236  49.326  1.00  0.00     0.054 C 
BRANCH   4   5
HETATM    5  C   UNL     1      26.317  41.404  48.151  1.00  0.00     0.168 C 
BRANCH   5   6
HETATM    6  O   UNL     1      27.732  41.563  48.094  1.00  0.00    -0.396 OA
HETATM    7  C   UNL     1      28.387  40.340  47.763  1.00  0.00     0.201 C 
ENDBRANCH   5   6
ENDBRANCH   4   5
ENDBRANCH   3   4
ENDBRANCH   1   3
BRANCH   1   8
HETATM    8  C   UNL     1      24.998  44.756  50.820  1.00  0.00     0.313 C 
BRANCH   8   9
HETATM    9  C   UNL     1      24.979  46.149  50.192  1.00  0.00     0.133 A 
HETATM   10  N   UNL     1      23.863  46.646  49.755  1.00  0.00    -0.233 NA
HETATM   11  C   UNL     1      23.894  47.942  49.199  1.00  0.00     0.076 A 
HETATM   12  C   UNL     1      25.077  48.682  49.081  1.00  0.00     0.061 A 
HETATM   13  C   UNL     1      22.703  48.516  48.750  1.00  0.00     0.056 A 
HETATM   14  C   UNL     1      26.315  48.058  49.574  1.00  0.00     0.259 A 
HETATM   15  C   UNL     1      25.088  49.964  48.526  1.00  0.00     0.021 A 
HETATM   16  O   UNL     1      27.404  48.610  49.517  1.00  0.00    -0.267 OA
HETATM   17  N   UNL     1      26.178  46.802  50.109  1.00  0.00    -0.309 N 
HETATM   18  H   UNL     1      27.049  46.414  50.454  1.00  0.00     0.170 HD
HETATM   19  C   UNL     1      23.893  50.521  48.075  1.00  0.00     0.025 A 
HETATM   20  C   UNL     1      22.706  49.795  48.189  1.00  0.00     0.036 A 
HETATM   21 CL   UNL     1      21.232  50.479  47.630  1.00  0.00    -0.084 Cl
ENDBRANCH   8   9
ENDBRANCH   1   8
BRANCH   1  22
HETATM   22  C   UNL     1      26.587  43.236  52.139  1.00  0.00     0.313 C 
BRANCH  22  23
HETATM   23  C   UNL     1      27.382  43.943  53.226  1.00  0.00     0.133 A 
HETATM   24  N   UNL     1      28.416  43.353  53.738  1.00  0.00    -0.233 NA
HETATM   25  C   UNL     1      29.129  44.042  54.741  1.00  0.00     0.076 A 
HETATM   26  C   UNL     1      28.790  45.340  55.148  1.00  0.00     0.061 A 
HETATM   27  C   UNL     1      30.218  43.416  55.349  1.00  0.00     0.056 A 
HETATM   28  C   UNL     1      27.644  45.979  54.483  1.00  0.00     0.259 A 
HETATM   29  C   UNL     1      29.515  46.011  56.137  1.00  0.00     0.021 A 
HETATM   30  O   UNL     1      27.312  47.136  54.700  1.00  0.00    -0.267 OA
HETATM   31  N   UNL     1      26.979  45.201  53.572  1.00  0.00    -0.309 N 
HETATM   32  H   UNL     1      26.231  45.679  53.083  1.00  0.00     0.170 HD
HETATM   33  C   UNL     1      30.600  45.372  56.736  1.00  0.00     0.025 A 
HETATM   34  C   UNL     1      30.946  44.079  56.339  1.00  0.00     0.036 A 
HETATM   35 CL   UNL     1      32.288  43.294  57.074  1.00  0.00    -0.084 Cl
ENDBRANCH  22  23
ENDBRANCH   1  22
TORSDOF 8
ENDMDL
MODEL 7
REMARK VINA RESULT:      -8.9      1.905      7.208
REMARK  8 active torsions:
REMARK  status: ('A' for Active; 'I' for Inactive)
REMARK    1  A    between atoms: O_2  and  C_3 
REMARK    2  A    between atoms: C_3  and  C_4 
REMARK    3  A    between atoms: C_4  and  C_5 
REMARK    4  A    between atoms: C_5  and  N_6 
REMARK    5  A    between atoms: N_6  and  C_8 
REMARK    6  A    between atoms: N_6  and  C_21 
REMARK    7  A    between atoms: C_8  and  C_9 
REMARK    8  A    between atoms: C_21  and  C_22 
ROOT
HETATM    1  N   UNL     1      25.797  43.914  51.181  1.00  0.00    -0.058 N 
HETATM    2  H   UNL     1      26.151  43.072  51.660  1.00  0.00     0.280 HD
ENDROOT
BRANCH   1   3
HETATM    3  C   UNL     1      24.283  43.892  51.200  1.00  0.00     0.238 C 
BRANCH   3   4
HETATM    4  C   UNL     1      23.694  44.559  49.960  1.00  0.00     0.054 C 
BRANCH   4   5
HETATM    5  C   UNL     1      22.453  43.806  49.489  1.00  0.00     0.168 C 
BRANCH   5   6
HETATM    6  O   UNL     1      22.708  42.415  49.661  1.00  0.00    -0.396 OA
HETATM    7  C   UNL     1      22.966  41.768  48.416  1.00  0.00     0.201 C 
ENDBRANCH   5   6
ENDBRANCH   4   5
ENDBRANCH   3   4
ENDBRANCH   1   3
BRANCH   1   8
HETATM    8  C   UNL     1      26.419  43.888  49.780  1.00  0.00     0.313 C 
BRANCH   8   9
HETATM    9  C   UNL     1      26.875  42.505  49.320  1.00  0.00     0.133 A 
HETATM   10  N   UNL     1      27.564  41.752  50.121  1.00  0.00    -0.233 NA
HETATM   11  C   UNL     1      27.947  40.476  49.656  1.00  0.00     0.076 A 
HETATM   12  C   UNL     1      27.636  40.020  48.369  1.00  0.00     0.061 A 
HETATM   13  C   UNL     1      28.662  39.631  50.507  1.00  0.00     0.056 A 
HETATM   14  C   UNL     1      26.872  40.926  47.498  1.00  0.00     0.259 A 
HETATM   15  C   UNL     1      28.026  38.753  47.926  1.00  0.00     0.021 A 
HETATM   16  O   UNL     1      26.549  40.633  46.356  1.00  0.00    -0.267 OA
HETATM   17  N   UNL     1      26.535  42.138  48.047  1.00  0.00    -0.309 N 
HETATM   18  H   UNL     1      25.994  42.725  47.423  1.00  0.00     0.170 HD
HETATM   19  C   UNL     1      28.745  37.923  48.784  1.00  0.00     0.025 A 
HETATM   20  C   UNL     1      29.060  38.366  50.070  1.00  0.00     0.036 A 
HETATM   21 CL   UNL     1      29.950  37.345  51.129  1.00  0.00    -0.084 Cl
ENDBRANCH   8   9
ENDBRANCH   1   8
BRANCH   1  22
HETATM   22  C   UNL     1      26.314  45.070  52.054  1.00  0.00     0.313 C 
BRANCH  22  23
HETATM   23  C   UNL     1      27.476  44.650  52.939  1.00  0.00     0.133 A 
HETATM   24  N   UNL     1      27.733  45.330  54.012  1.00  0.00    -0.233 NA
HETATM   25  C   UNL     1      28.818  44.907  54.808  1.00  0.00     0.076 A 
HETATM   26  C   UNL     1      29.572  43.766  54.506  1.00  0.00     0.061 A 
HETATM   27  C   UNL     1      29.152  45.646  55.943  1.00  0.00     0.056 A 
HETATM   28  C   UNL     1      29.191  43.000  53.308  1.00  0.00     0.259 A 
HETATM   29  C   UNL     1      30.638  43.356  55.312  1.00  0.00     0.021 A 
HETATM   30  O   UNL     1      29.726  41.946  52.996  1.00  0.00    -0.267 OA
HETATM   31  N   UNL     1      28.167  43.532  52.568  1.00  0.00    -0.309 N 
HETATM   32  H   UNL     1      27.881  42.960  51.781  1.00  0.00     0.170 HD
HETATM   33  C   UNL     1      30.961  44.105  56.444  1.00  0.00     0.025 A 
HETATM   34  C   UNL     1      30.217  45.244  56.754  1.00  0.00     0.036 A 
HETATM   35 CL   UNL     1      30.611  46.165  58.152  1.00  0.00    -0.084 Cl
ENDBRANCH  22  23
ENDBRANCH   1  22
TORSDOF 8
ENDMDL
MODEL 8
REMARK VINA RESULT:      -8.8      1.822      2.727
REMARK  8 active torsions:
REMARK  status: ('A' for Active; 'I' for Inactive)
REMARK    1  A    between atoms: O_2  and  C_3 
REMARK    2  A    between atoms: C_3  and  C_4 
REMARK    3  A    between atoms: C_4  and  C_5 
REMARK    4  A    between atoms: C_5  and  N_6 
REMARK    5  A    between atoms: N_6  and  C_8 
REMARK    6  A    between atoms: N_6  and  C_21 
REMARK    7  A    between atoms: C_8  and  C_9 
REMARK    8  A    between atoms: C_21  and  C_22 
ROOT
HETATM    1  N   UNL     1      26.709  44.685  50.499  1.00  0.00    -0.058 N 
HETATM    2  H   UNL     1      27.662  44.373  50.739  1.00  0.00     0.280 HD
ENDROOT
BRANCH   1   3
HETATM    3  C   UNL     1      26.793  45.995  49.744  1.00  0.00     0.238 C 
BRANCH   3   4
HETATM    4  C   UNL     1      25.728  46.983  50.209  1.00  0.00     0.054 C 
BRANCH   4   5
HETATM    5  C   UNL     1      25.819  48.279  49.408  1.00  0.00     0.168 C 
BRANCH   5   6
HETATM    6  O   UNL     1      27.136  48.356  48.869  1.00  0.00    -0.396 OA
HETATM    7  C   UNL     1      27.626  49.696  48.865  1.00  0.00     0.201 C 
ENDBRANCH   5   6
ENDBRANCH   4   5
ENDBRANCH   3   4
ENDBRANCH   1   3
BRANCH   1   8
HETATM    8  C   UNL     1      25.949  44.761  51.829  1.00  0.00     0.313 C 
BRANCH   8   9
HETATM    9  C   UNL     1      26.822  45.112  53.032  1.00  0.00     0.133 A 
HETATM   10  N   UNL     1      27.781  44.315  53.388  1.00  0.00    -0.233 NA
HETATM   11  C   UNL     1      28.571  44.691  54.496  1.00  0.00     0.076 A 
HETATM   12  C   UNL     1      28.334  45.863  55.225  1.00  0.00     0.061 A 
HETATM   13  C   UNL     1      29.631  43.870  54.883  1.00  0.00     0.056 A 
HETATM   14  C   UNL     1      27.218  46.717  54.787  1.00  0.00     0.259 A 
HETATM   15  C   UNL     1      29.126  46.218  56.320  1.00  0.00     0.021 A 
HETATM   16  O   UNL     1      26.919  47.759  55.352  1.00  0.00    -0.267 OA
HETATM   17  N   UNL     1      26.520  46.271  53.693  1.00  0.00    -0.309 N 
HETATM   18  H   UNL     1      25.772  46.895  53.412  1.00  0.00     0.170 HD
HETATM   19  C   UNL     1      30.176  45.385  56.700  1.00  0.00     0.025 A 
HETATM   20  C   UNL     1      30.424  44.215  55.980  1.00  0.00     0.036 A 
HETATM   21 CL   UNL     1      31.717  43.183  56.448  1.00  0.00    -0.084 Cl
ENDBRANCH   8   9
ENDBRANCH   1   8
BRANCH   1  22
HETATM   22  C   UNL     1      26.190  43.577  49.567  1.00  0.00     0.313 C 
BRANCH  22  23
HETATM   23  C   UNL     1      26.961  42.277  49.729  1.00  0.00     0.133 A 
HETATM   24  N   UNL     1      27.130  41.509  48.700  1.00  0.00    -0.233 NA
HETATM   25  C   UNL     1      27.853  40.313  48.891  1.00  0.00     0.076 A 
HETATM   26  C   UNL     1      28.428  39.970  50.123  1.00  0.00     0.061 A 
HETATM   27  C   UNL     1      28.012  39.438  47.816  1.00  0.00     0.056 A 
HETATM   28  C   UNL     1      28.254  40.915  51.237  1.00  0.00     0.259 A 
HETATM   29  C   UNL     1      29.150  38.785  50.290  1.00  0.00     0.021 A 
HETATM   30  O   UNL     1      28.780  40.757  52.329  1.00  0.00    -0.267 OA
HETATM   31  N   UNL     1      27.479  42.013  50.965  1.00  0.00    -0.309 N 
HETATM   32  H   UNL     1      27.420  42.680  51.726  1.00  0.00     0.170 HD
HETATM   33  C   UNL     1      29.299  37.921  49.207  1.00  0.00     0.025 A 
HETATM   34  C   UNL     1      28.730  38.251  47.975  1.00  0.00     0.036 A 
HETATM   35 CL   UNL     1      28.919  37.188  46.637  1.00  0.00    -0.084 Cl
ENDBRANCH  22  23
ENDBRANCH   1  22
TORSDOF 8
ENDMDL
MODEL 9
REMARK VINA RESULT:      -8.4      3.284      6.385
REMARK  8 active torsions:
REMARK  status: ('A' for Active; 'I' for Inactive)
REMARK    1  A    between atoms: O_2  and  C_3 
REMARK    2  A    between atoms: C_3  and  C_4 
REMARK    3  A    between atoms: C_4  and  C_5 
REMARK    4  A    between atoms: C_5  and  N_6 
REMARK    5  A    between atoms: N_6  and  C_8 
REMARK    6  A    between atoms: N_6  and  C_21 
REMARK    7  A    between atoms: C_8  and  C_9 
REMARK    8  A    between atoms: C_21  and  C_22 
ROOT
HETATM    1  N   UNL     1      26.540  42.594  50.810  1.00  0.00    -0.058 N 
HETATM    2  H   UNL     1      26.070  43.252  51.451  1.00  0.00     0.280 HD
ENDROOT
BRANCH   1   3
HETATM    3  C   UNL     1      25.628  41.412  50.560  1.00  0.00     0.238 C 
BRANCH   3   4
HETATM    4  C   UNL     1      25.598  41.024  49.085  1.00  0.00     0.054 C 
BRANCH   4   5
HETATM    5  C   UNL     1      26.319  39.697  48.869  1.00  0.00     0.168 C 
BRANCH   5   6
HETATM    6  O   UNL     1      27.686  39.892  49.219  1.00  0.00    -0.396 OA
HETATM    7  C   UNL     1      28.436  40.437  48.135  1.00  0.00     0.201 C 
ENDBRANCH   5   6
ENDBRANCH   4   5
ENDBRANCH   3   4
ENDBRANCH   1   3
BRANCH   1   8
HETATM    8  C   UNL     1      27.874  42.241  51.481  1.00  0.00     0.313 C 
BRANCH   8   9
HETATM    9  C   UNL     1      28.234  43.130  52.669  1.00  0.00     0.133 A 
HETATM   10  N   UNL     1      29.207  42.791  53.458  1.00  0.00    -0.233 NA
HETATM   11  C   UNL     1      29.513  43.653  54.532  1.00  0.00     0.076 A 
HETATM   12  C   UNL     1      28.792  44.827  54.783  1.00  0.00     0.061 A 
HETATM   13  C   UNL     1      30.575  43.330  55.379  1.00  0.00     0.056 A 
HETATM   14  C   UNL     1      27.685  45.148  53.868  1.00  0.00     0.259 A 
HETATM   15  C   UNL     1      29.109  45.667  55.854  1.00  0.00     0.021 A 
HETATM   16  O   UNL     1      26.987  46.144  53.995  1.00  0.00    -0.267 OA
HETATM   17  N   UNL     1      27.477  44.255  52.848  1.00  0.00    -0.309 N 
HETATM   18  H   UNL     1      26.719  44.520  52.229  1.00  0.00     0.170 HD
HETATM   19  C   UNL     1      30.167  45.329  56.695  1.00  0.00     0.025 A 
HETATM   20  C   UNL     1      30.895  44.163  56.454  1.00  0.00     0.036 A 
HETATM   21 CL   UNL     1      32.198  43.742  57.493  1.00  0.00    -0.084 Cl
ENDBRANCH   8   9
ENDBRANCH   1   8
BRANCH   1  22
HETATM   22  C   UNL     1      26.708  43.408  49.517  1.00  0.00     0.313 C 
BRANCH  22  23
HETATM   23  C   UNL     1      25.872  44.678  49.520  1.00  0.00     0.133 A 
HETATM   24  N   UNL     1      24.684  44.655  49.003  1.00  0.00    -0.233 NA
HETATM   25  C   UNL     1      23.939  45.852  49.028  1.00  0.00     0.076 A 
HETATM   26  C   UNL     1      24.417  47.023  49.633  1.00  0.00     0.061 A 
HETATM   27  C   UNL     1      22.676  45.876  48.436  1.00  0.00     0.056 A 
HETATM   28  C   UNL     1      25.747  46.966  50.259  1.00  0.00     0.259 A 
HETATM   29  C   UNL     1      23.659  48.197  49.657  1.00  0.00     0.021 A 
HETATM   30  O   UNL     1      26.226  47.901  50.885  1.00  0.00    -0.267 OA
HETATM   31  N   UNL     1      26.415  45.777  50.121  1.00  0.00    -0.309 N 
HETATM   32  H   UNL     1      27.303  45.740  50.609  1.00  0.00     0.170 HD
HETATM   33  C   UNL     1      22.399  48.206  49.060  1.00  0.00     0.025 A 
HETATM   34  C   UNL     1      21.914  47.046  48.453  1.00  0.00     0.036 A 
HETATM   35 CL   UNL     1      20.357  47.055  47.722  1.00  0.00    -0.084 Cl
ENDBRANCH  22  23
ENDBRANCH   1  22
TORSDOF 8
ENDMDL
MODEL 10
REMARK VINA RESULT:      -8.4      3.581      8.215
REMARK  8 active torsions:
REMARK  status: ('A' for Active; 'I' for Inactive)
REMARK    1  A    between atoms: O_2  and  C_3 
REMARK    2  A    between atoms: C_3  and  C_4 
REMARK    3  A    between atoms: C_4  and  C_5 
REMARK    4  A    between atoms: C_5  and  N_6 
REMARK    5  A    between atoms: N_6  and  C_8 
REMARK    6  A    between atoms: N_6  and  C_21 
REMARK    7  A    between atoms: C_8  and  C_9 
REMARK    8  A    between atoms: C_21  and  C_22 
ROOT
HETATM    1  N   UNL     1      25.747  43.004  50.454  1.00  0.00    -0.058 N 
HETATM    2  H   UNL     1      26.661  42.779  50.878  1.00  0.00     0.280 HD
ENDROOT
BRANCH   1   3
HETATM    3  C   UNL     1      25.139  41.737  49.893  1.00  0.00     0.238 C 
BRANCH   3   4
HETATM    4  C   UNL     1      26.139  40.585  49.887  1.00  0.00     0.054 C 
BRANCH   4   5
HETATM    5  C   UNL     1      27.483  41.043  50.445  1.00  0.00     0.168 C 
BRANCH   5   6
HETATM    6  O   UNL     1      27.428  40.900  51.861  1.00  0.00    -0.396 OA
HETATM    7  C   UNL     1      28.719  41.022  52.454  1.00  0.00     0.201 C 
ENDBRANCH   5   6
ENDBRANCH   4   5
ENDBRANCH   3   4
ENDBRANCH   1   3
BRANCH   1   8
HETATM    8  C   UNL     1      26.029  44.094  49.412  1.00  0.00     0.313 C 
BRANCH   8   9
HETATM    9  C   UNL     1      24.820  44.963  49.070  1.00  0.00     0.133 A 
HETATM   10  N   UNL     1      24.757  46.183  49.507  1.00  0.00    -0.233 NA
HETATM   11  C   UNL     1      23.629  46.951  49.150  1.00  0.00     0.076 A 
HETATM   12  C   UNL     1      22.581  46.435  48.376  1.00  0.00     0.061 A 
HETATM   13  C   UNL     1      23.548  48.277  49.579  1.00  0.00     0.056 A 
HETATM   14  C   UNL     1      22.698  45.039  47.928  1.00  0.00     0.259 A 
HETATM   15  C   UNL     1      21.471  47.211  48.034  1.00  0.00     0.021 A 
HETATM   16  O   UNL     1      21.843  44.485  47.252  1.00  0.00    -0.267 OA
HETATM   17  N   UNL     1      23.839  44.381  48.316  1.00  0.00    -0.309 N 
HETATM   18  H   UNL     1      23.891  43.429  47.972  1.00  0.00     0.170 HD
HETATM   19  C   UNL     1      21.401  48.531  48.475  1.00  0.00     0.025 A 
HETATM   20  C   UNL     1      22.439  49.058  49.245  1.00  0.00     0.036 A 
HETATM   21 CL   UNL     1      22.352  50.685  49.794  1.00  0.00    -0.084 Cl
ENDBRANCH   8   9
ENDBRANCH   1   8
BRANCH   1  22
HETATM   22  C   UNL     1      24.911  43.504  51.644  1.00  0.00     0.313 C 
BRANCH  22  23
HETATM   23  C   UNL     1      25.712  44.395  52.579  1.00  0.00     0.133 A 
HETATM   24  N   UNL     1      26.783  43.928  53.136  1.00  0.00    -0.233 NA
HETATM   25  C   UNL     1      27.500  44.786  53.995  1.00  0.00     0.076 A 
HETATM   26  C   UNL     1      27.122  46.118  54.213  1.00  0.00     0.061 A 
HETATM   27  C   UNL     1      28.631  44.299  54.650  1.00  0.00     0.056 A 
HETATM   28  C   UNL     1      25.931  46.608  53.502  1.00  0.00     0.259 A 
HETATM   29  C   UNL     1      27.851  46.957  55.061  1.00  0.00     0.021 A 
HETATM   30  O   UNL     1      25.560  47.772  53.554  1.00  0.00    -0.267 OA
HETATM   31  N   UNL     1      25.269  45.677  52.745  1.00  0.00    -0.309 N 
HETATM   32  H   UNL     1      24.487  46.048  52.218  1.00  0.00     0.170 HD
HETATM   33  C   UNL     1      28.979  46.456  55.709  1.00  0.00     0.025 A 
HETATM   34  C   UNL     1      29.364  45.131  55.500  1.00  0.00     0.036 A 
HETATM   35 CL   UNL     1      30.759  44.514  56.295  1.00  0.00    -0.084 Cl
ENDBRANCH  22  23
ENDBRANCH   1  22
TORSDOF 8
ENDMDL
