MODEL 1
REMARK VINA RESULT:      -9.3      0.000      0.000
REMARK  3 active torsions:
REMARK  status: ('A' for Active; 'I' for Inactive)
REMARK    1  A    between atoms: C_4  and  C_5 
REMARK    2  A    between atoms: C_11  and  N_12 
REMARK    3  A    between atoms: C_14  and  C_15 
ROOT
HETATM    1  C   UNL     1      27.103  44.184  51.367  1.00  0.00    -0.006 A 
HETATM    2  C   UNL     1      27.354  42.890  50.801  1.00  0.00     0.063 A 
HETATM    3  C   UNL     1      28.193  42.029  51.516  1.00  0.00     0.165 A 
HETATM    4  N   UNL     1      28.486  40.805  51.108  1.00  0.00    -0.222 NA
HETATM    5  C   UNL     1      27.956  40.392  49.960  1.00  0.00     0.237 A 
HETATM    6  N   UNL     1      27.160  41.106  49.169  1.00  0.00    -0.229 NA
HETATM    7  C   UNL     1      26.875  42.343  49.590  1.00  0.00     0.117 A 
HETATM    8  N   UNL     1      28.766  42.384  52.662  1.00  0.00    -0.228 NA
HETATM    9  C   UNL     1      28.563  43.609  53.190  1.00  0.00     0.070 A 
HETATM   10  C   UNL     1      27.728  44.522  52.574  1.00  0.00     0.046 A 
ENDROOT
BRANCH   9  11
HETATM   11  C   UNL     1      29.290  43.893  54.443  1.00  0.00    -0.004 A 
HETATM   12  C   UNL     1      28.964  44.999  55.254  1.00  0.00     0.053 A 
HETATM   13  C   UNL     1      29.697  45.223  56.402  1.00  0.00     0.106 A 
HETATM   14  C   UNL     1      30.731  44.401  56.780  1.00  0.00     0.105 A 
HETATM   15  O   UNL     1      29.507  46.252  57.273  1.00  0.00    -0.323 OA
HETATM   16  O   UNL     1      31.320  44.805  57.936  1.00  0.00    -0.323 OA
HETATM   17  C   UNL     1      31.091  43.310  56.027  1.00  0.00     0.040 A 
HETATM   18  C   UNL     1      30.553  45.989  58.233  1.00  0.00     0.352 A 
HETATM   19  C   UNL     1      30.368  43.063  54.853  1.00  0.00     0.017 A 
ENDBRANCH   9  11
BRANCH   1  20
HETATM   20  C   UNL     1      26.227  45.198  50.760  1.00  0.00    -0.025 A 
HETATM   21  C   UNL     1      24.829  45.101  50.864  1.00  0.00     0.012 A 
HETATM   22  C   UNL     1      24.002  46.076  50.301  1.00  0.00     0.001 A 
HETATM   23  C   UNL     1      24.559  47.168  49.641  1.00  0.00     0.000 A 
HETATM   24  C   UNL     1      25.943  47.287  49.539  1.00  0.00     0.001 A 
HETATM   25  C   UNL     1      26.771  46.309  50.095  1.00  0.00     0.012 A 
ENDBRANCH   1  20
BRANCH   7  26
HETATM   26  N   UNL     1      26.015  43.020  48.728  1.00  0.00    -0.286 NA
HETATM   27  H   UNL     1      25.253  43.403  49.280  1.00  0.00     0.125 HD
HETATM   28  H   UNL     1      25.683  42.443  47.963  1.00  0.00     0.125 HD
ENDBRANCH   7  26
TORSDOF 3
ENDMDL
MODEL 2
REMARK VINA RESULT:      -9.2      4.761      8.349
REMARK  3 active torsions:
REMARK  status: ('A' for Active; 'I' for Inactive)
REMARK    1  A    between atoms: C_4  and  C_5 
REMARK    2  A    between atoms: C_11  and  N_12 
REMARK    3  A    between atoms: C_14  and  C_15 
ROOT
HETATM    1  C   UNL     1      26.854  45.096  52.958  1.00  0.00    -0.006 A 
HETATM    2  C   UNL     1      26.828  46.162  53.919  1.00  0.00     0.063 A 
HETATM    3  C   UNL     1      25.971  47.236  53.662  1.00  0.00     0.165 A 
HETATM    4  N   UNL     1      25.845  48.269  54.480  1.00  0.00    -0.222 NA
HETATM    5  C   UNL     1      26.578  48.274  55.589  1.00  0.00     0.237 A 
HETATM    6  N   UNL     1      27.446  47.333  55.952  1.00  0.00    -0.229 NA
HETATM    7  C   UNL     1      27.568  46.296  55.115  1.00  0.00     0.117 A 
HETATM    8  N   UNL     1      25.222  47.302  52.567  1.00  0.00    -0.228 NA
HETATM    9  C   UNL     1      25.259  46.321  51.640  1.00  0.00     0.070 A 
HETATM   10  C   UNL     1      26.052  45.203  51.815  1.00  0.00     0.046 A 
ENDROOT
BRANCH   9  11
HETATM   11  C   UNL     1      24.412  46.535  50.449  1.00  0.00    -0.004 A 
HETATM   12  C   UNL     1      23.871  45.454  49.722  1.00  0.00     0.053 A 
HETATM   13  C   UNL     1      23.105  45.720  48.604  1.00  0.00     0.106 A 
HETATM   14  C   UNL     1      22.851  47.002  48.182  1.00  0.00     0.105 A 
HETATM   15  O   UNL     1      22.531  44.785  47.800  1.00  0.00    -0.323 OA
HETATM   16  O   UNL     1      22.082  47.038  47.062  1.00  0.00    -0.323 OA
HETATM   17  C   UNL     1      23.352  48.091  48.853  1.00  0.00     0.040 A 
HETATM   18  C   UNL     1      21.899  45.629  46.813  1.00  0.00     0.352 A 
HETATM   19  C   UNL     1      24.139  47.850  49.987  1.00  0.00     0.017 A 
ENDBRANCH   9  11
BRANCH   1  20
HETATM   20  C   UNL     1      27.677  43.884  53.089  1.00  0.00    -0.025 A 
HETATM   21  C   UNL     1      27.172  42.731  53.713  1.00  0.00     0.012 A 
HETATM   22  C   UNL     1      27.951  41.576  53.817  1.00  0.00     0.001 A 
HETATM   23  C   UNL     1      29.238  41.551  53.287  1.00  0.00     0.000 A 
HETATM   24  C   UNL     1      29.751  42.682  52.654  1.00  0.00     0.001 A 
HETATM   25  C   UNL     1      28.976  43.839  52.555  1.00  0.00     0.012 A 
ENDBRANCH   1  20
BRANCH   7  26
HETATM   26  N   UNL     1      28.469  45.339  55.573  1.00  0.00    -0.286 NA
HETATM   27  H   UNL     1      28.286  44.471  55.078  1.00  0.00     0.125 HD
HETATM   28  H   UNL     1      28.446  45.219  56.580  1.00  0.00     0.125 HD
ENDBRANCH   7  26
TORSDOF 3
ENDMDL
MODEL 3
REMARK VINA RESULT:      -9.1      3.628      7.008
REMARK  3 active torsions:
REMARK  status: ('A' for Active; 'I' for Inactive)
REMARK    1  A    between atoms: C_4  and  C_5 
REMARK    2  A    between atoms: C_11  and  N_12 
REMARK    3  A    between atoms: C_14  and  C_15 
ROOT
HETATM    1  C   UNL     1      27.348  43.783  51.709  1.00  0.00    -0.006 A 
HETATM    2  C   UNL     1      26.699  42.697  51.033  1.00  0.00     0.063 A 
HETATM    3  C   UNL     1      25.827  43.021  49.988  1.00  0.00     0.165 A 
HETATM    4  N   UNL     1      25.183  42.109  49.276  1.00  0.00    -0.222 NA
HETATM    5  C   UNL     1      25.380  40.831  49.586  1.00  0.00     0.237 A 
HETATM    6  N   UNL     1      26.162  40.378  50.562  1.00  0.00    -0.229 NA
HETATM    7  C   UNL     1      26.804  41.309  51.277  1.00  0.00     0.117 A 
HETATM    8  N   UNL     1      25.575  44.278  49.637  1.00  0.00    -0.228 NA
HETATM    9  C   UNL     1      26.155  45.309  50.284  1.00  0.00     0.070 A 
HETATM   10  C   UNL     1      27.054  45.093  51.312  1.00  0.00     0.046 A 
ENDROOT
BRANCH   9  11
HETATM   11  C   UNL     1      25.759  46.656  49.826  1.00  0.00    -0.004 A 
HETATM   12  C   UNL     1      24.404  47.020  49.679  1.00  0.00     0.053 A 
HETATM   13  C   UNL     1      24.099  48.287  49.225  1.00  0.00     0.106 A 
HETATM   14  C   UNL     1      25.073  49.205  48.917  1.00  0.00     0.105 A 
HETATM   15  O   UNL     1      22.845  48.774  49.023  1.00  0.00    -0.323 OA
HETATM   16  O   UNL     1      24.557  50.386  48.485  1.00  0.00    -0.323 OA
HETATM   17  C   UNL     1      26.408  48.905  49.042  1.00  0.00     0.040 A 
HETATM   18  C   UNL     1      23.144  50.100  48.536  1.00  0.00     0.352 A 
HETATM   19  C   UNL     1      26.746  47.622  49.494  1.00  0.00     0.017 A 
ENDBRANCH   9  11
BRANCH   1  20
HETATM   20  C   UNL     1      28.311  43.615  52.808  1.00  0.00    -0.025 A 
HETATM   21  C   UNL     1      29.592  43.088  52.573  1.00  0.00     0.012 A 
HETATM   22  C   UNL     1      30.510  42.949  53.617  1.00  0.00     0.001 A 
HETATM   23  C   UNL     1      30.167  43.348  54.906  1.00  0.00     0.000 A 
HETATM   24  C   UNL     1      28.906  43.885  55.155  1.00  0.00     0.001 A 
HETATM   25  C   UNL     1      27.985  44.018  54.114  1.00  0.00     0.012 A 
ENDBRANCH   1  20
BRANCH   7  26
HETATM   26  N   UNL     1      27.625  40.762  52.259  1.00  0.00    -0.286 NA
HETATM   27  H   UNL     1      27.348  39.794  52.399  1.00  0.00     0.125 HD
HETATM   28  H   UNL     1      27.619  41.292  53.123  1.00  0.00     0.125 HD
ENDBRANCH   7  26
TORSDOF 3
ENDMDL
MODEL 4
REMARK VINA RESULT:      -9.1      1.480      4.045
REMARK  3 active torsions:
REMARK  status: ('A' for Active; 'I' for Inactive)
REMARK    1  A    between atoms: C_4  and  C_5 
REMARK    2  A    between atoms: C_11  and  N_12 
REMARK    3  A    between atoms: C_14  and  C_15 
ROOT
HETATM    1  C   UNL     1      27.261  42.546  50.736  1.00  0.00    -0.006 A 
HETATM    2  C   UNL     1      26.417  43.649  50.377  1.00  0.00     0.063 A 
HETATM    3  C   UNL     1      26.485  44.795  51.176  1.00  0.00     0.165 A 
HETATM    4  N   UNL     1      25.772  45.884  50.938  1.00  0.00    -0.222 NA
HETATM    5  C   UNL     1      24.951  45.869  49.892  1.00  0.00     0.237 A 
HETATM    6  N   UNL     1      24.769  44.847  49.060  1.00  0.00    -0.229 NA
HETATM    7  C   UNL     1      25.493  43.751  49.313  1.00  0.00     0.117 A 
HETATM    8  N   UNL     1      27.274  44.872  52.244  1.00  0.00    -0.228 NA
HETATM    9  C   UNL     1      28.050  43.830  52.610  1.00  0.00     0.070 A 
HETATM   10  C   UNL     1      28.075  42.663  51.870  1.00  0.00     0.046 A 
ENDROOT
BRANCH   9  11
HETATM   11  C   UNL     1      28.845  44.027  53.838  1.00  0.00    -0.004 A 
HETATM   12  C   UNL     1      28.581  45.086  54.730  1.00  0.00     0.053 A 
HETATM   13  C   UNL     1      29.376  45.229  55.850  1.00  0.00     0.106 A 
HETATM   14  C   UNL     1      30.411  44.370  56.124  1.00  0.00     0.105 A 
HETATM   15  O   UNL     1      29.249  46.205  56.790  1.00  0.00    -0.323 OA
HETATM   16  O   UNL     1      31.066  44.693  57.270  1.00  0.00    -0.323 OA
HETATM   17  C   UNL     1      30.713  43.321  55.289  1.00  0.00     0.040 A 
HETATM   18  C   UNL     1      30.337  45.869  57.677  1.00  0.00     0.352 A 
HETATM   19  C   UNL     1      29.927  43.157  54.142  1.00  0.00     0.017 A 
ENDBRANCH   9  11
BRANCH   1  20
HETATM   20  C   UNL     1      27.331  41.280  49.989  1.00  0.00    -0.025 A 
HETATM   21  C   UNL     1      28.229  41.120  48.921  1.00  0.00     0.012 A 
HETATM   22  C   UNL     1      28.305  39.910  48.227  1.00  0.00     0.001 A 
HETATM   23  C   UNL     1      27.496  38.839  48.600  1.00  0.00     0.000 A 
HETATM   24  C   UNL     1      26.609  38.976  49.665  1.00  0.00     0.001 A 
HETATM   25  C   UNL     1      26.527  40.188  50.355  1.00  0.00     0.012 A 
ENDBRANCH   1  20
BRANCH   7  26
HETATM   26  N   UNL     1      25.274  42.735  48.386  1.00  0.00    -0.286 NA
HETATM   27  H   UNL     1      25.633  43.045  47.488  1.00  0.00     0.125 HD
HETATM   28  H   UNL     1      24.303  42.448  48.334  1.00  0.00     0.125 HD
ENDBRANCH   7  26
TORSDOF 3
ENDMDL
MODEL 5
REMARK VINA RESULT:      -9.0      2.752      4.054
REMARK  3 active torsions:
REMARK  status: ('A' for Active; 'I' for Inactive)
REMARK    1  A    between atoms: C_4  and  C_5 
REMARK    2  A    between atoms: C_11  and  N_12 
REMARK    3  A    between atoms: C_14  and  C_15 
ROOT
HETATM    1  C   UNL     1      24.626  46.979  50.427  1.00  0.00    -0.006 A 
HETATM    2  C   UNL     1      24.047  45.686  50.200  1.00  0.00     0.063 A 
HETATM    3  C   UNL     1      24.387  44.665  51.094  1.00  0.00     0.165 A 
HETATM    4  N   UNL     1      23.906  43.436  51.003  1.00  0.00    -0.222 NA
HETATM    5  C   UNL     1      23.066  43.173  50.005  1.00  0.00     0.237 A 
HETATM    6  N   UNL     1      22.670  44.036  49.074  1.00  0.00    -0.229 NA
HETATM    7  C   UNL     1      23.167  45.274  49.174  1.00  0.00     0.117 A 
HETATM    8  N   UNL     1      25.231  44.856  52.104  1.00  0.00    -0.228 NA
HETATM    9  C   UNL     1      25.805  46.059  52.310  1.00  0.00     0.070 A 
HETATM   10  C   UNL     1      25.512  47.140  51.499  1.00  0.00     0.046 A 
ENDROOT
BRANCH   9  11
HETATM   11  C   UNL     1      26.756  46.129  53.438  1.00  0.00    -0.004 A 
HETATM   12  C   UNL     1      27.697  45.106  53.678  1.00  0.00     0.053 A 
HETATM   13  C   UNL     1      28.543  45.220  54.763  1.00  0.00     0.106 A 
HETATM   14  C   UNL     1      28.500  46.299  55.612  1.00  0.00     0.105 A 
HETATM   15  O   UNL     1      29.489  44.312  55.125  1.00  0.00    -0.323 OA
HETATM   16  O   UNL     1      29.413  46.209  56.614  1.00  0.00    -0.323 OA
HETATM   17  C   UNL     1      27.603  47.323  55.425  1.00  0.00     0.040 A 
HETATM   18  C   UNL     1      30.024  44.938  56.312  1.00  0.00     0.352 A 
HETATM   19  C   UNL     1      26.728  47.230  54.335  1.00  0.00     0.017 A 
ENDBRANCH   9  11
BRANCH   1  20
HETATM   20  C   UNL     1      24.353  48.164  49.599  1.00  0.00    -0.025 A 
HETATM   21  C   UNL     1      23.076  48.748  49.571  1.00  0.00     0.012 A 
HETATM   22  C   UNL     1      22.827  49.884  48.798  1.00  0.00     0.001 A 
HETATM   23  C   UNL     1      23.853  50.462  48.055  1.00  0.00     0.000 A 
HETATM   24  C   UNL     1      25.129  49.904  48.081  1.00  0.00     0.001 A 
HETATM   25  C   UNL     1      25.377  48.764  48.847  1.00  0.00     0.012 A 
ENDBRANCH   1  20
BRANCH   7  26
HETATM   26  N   UNL     1      22.687  46.129  48.185  1.00  0.00    -0.286 NA
HETATM   27  H   UNL     1      22.111  45.584  47.550  1.00  0.00     0.125 HD
HETATM   28  H   UNL     1      23.423  46.631  47.702  1.00  0.00     0.125 HD
ENDBRANCH   7  26
TORSDOF 3
ENDMDL
MODEL 6
REMARK VINA RESULT:      -8.8      3.811      6.246
REMARK  3 active torsions:
REMARK  status: ('A' for Active; 'I' for Inactive)
REMARK    1  A    between atoms: C_4  and  C_5 
REMARK    2  A    between atoms: C_11  and  N_12 
REMARK    3  A    between atoms: C_14  and  C_15 
ROOT
HETATM    1  C   UNL     1      23.916  47.683  49.300  1.00  0.00    -0.006 A 
HETATM    2  C   UNL     1      24.944  48.607  48.916  1.00  0.00     0.063 A 
HETATM    3  C   UNL     1      26.210  48.430  49.483  1.00  0.00     0.165 A 
HETATM    4  N   UNL     1      27.244  49.204  49.196  1.00  0.00    -0.222 NA
HETATM    5  C   UNL     1      27.052  50.196  48.332  1.00  0.00     0.237 A 
HETATM    6  N   UNL     1      25.904  50.494  47.731  1.00  0.00    -0.229 NA
HETATM    7  C   UNL     1      24.865  49.707  48.033  1.00  0.00     0.117 A 
HETATM    8  N   UNL     1      26.466  47.467  50.364  1.00  0.00    -0.228 NA
HETATM    9  C   UNL     1      25.501  46.611  50.756  1.00  0.00     0.070 A 
HETATM   10  C   UNL     1      24.224  46.685  50.233  1.00  0.00     0.046 A 
ENDROOT
BRANCH   9  11
HETATM   11  C   UNL     1      25.903  45.616  51.771  1.00  0.00    -0.004 A 
HETATM   12  C   UNL     1      26.973  44.724  51.551  1.00  0.00     0.053 A 
HETATM   13  C   UNL     1      27.285  43.803  52.531  1.00  0.00     0.106 A 
HETATM   14  C   UNL     1      26.588  43.730  53.712  1.00  0.00     0.105 A 
HETATM   15  O   UNL     1      28.278  42.876  52.455  1.00  0.00    -0.323 OA
HETATM   16  O   UNL     1      27.055  42.751  54.532  1.00  0.00    -0.323 OA
HETATM   17  C   UNL     1      25.537  44.574  53.979  1.00  0.00     0.040 A 
HETATM   18  C   UNL     1      28.114  42.200  53.721  1.00  0.00     0.352 A 
HETATM   19  C   UNL     1      25.195  45.515  52.999  1.00  0.00     0.017 A 
ENDBRANCH   9  11
BRANCH   1  20
HETATM   20  C   UNL     1      22.541  47.712  48.778  1.00  0.00    -0.025 A 
HETATM   21  C   UNL     1      21.592  48.614  49.288  1.00  0.00     0.012 A 
HETATM   22  C   UNL     1      20.293  48.650  48.776  1.00  0.00     0.001 A 
HETATM   23  C   UNL     1      19.927  47.797  47.738  1.00  0.00     0.000 A 
HETATM   24  C   UNL     1      20.859  46.905  47.211  1.00  0.00     0.001 A 
HETATM   25  C   UNL     1      22.156  46.863  47.727  1.00  0.00     0.012 A 
ENDBRANCH   1  20
BRANCH   7  26
HETATM   26  N   UNL     1      23.705  50.059  47.347  1.00  0.00    -0.286 NA
HETATM   27  H   UNL     1      22.971  49.411  47.616  1.00  0.00     0.125 HD
HETATM   28  H   UNL     1      23.835  50.099  46.342  1.00  0.00     0.125 HD
ENDBRANCH   7  26
TORSDOF 3
ENDMDL
MODEL 7
REMARK VINA RESULT:      -8.7      3.005      4.866
REMARK  3 active torsions:
REMARK  status: ('A' for Active; 'I' for Inactive)
REMARK    1  A    between atoms: C_4  and  C_5 
REMARK    2  A    between atoms: C_11  and  N_12 
REMARK    3  A    between atoms: C_14  and  C_15 
ROOT
HETATM    1  C   UNL     1      23.829  47.308  49.628  1.00  0.00    -0.006 A 
HETATM    2  C   UNL     1      23.331  46.105  49.026  1.00  0.00     0.063 A 
HETATM    3  C   UNL     1      23.725  44.891  49.597  1.00  0.00     0.165 A 
HETATM    4  N   UNL     1      23.319  43.715  49.146  1.00  0.00    -0.222 NA
HETATM    5  C   UNL     1      22.504  43.704  48.095  1.00  0.00     0.237 A 
HETATM    6  N   UNL     1      22.063  44.775  47.442  1.00  0.00    -0.229 NA
HETATM    7  C   UNL     1      22.484  45.957  47.905  1.00  0.00     0.117 A 
HETATM    8  N   UNL     1      24.549  44.830  50.639  1.00  0.00    -0.228 NA
HETATM    9  C   UNL     1      25.050  45.953  51.195  1.00  0.00     0.070 A 
HETATM   10  C   UNL     1      24.698  47.203  50.722  1.00  0.00     0.046 A 
ENDROOT
BRANCH   9  11
HETATM   11  C   UNL     1      25.987  45.747  52.318  1.00  0.00    -0.004 A 
HETATM   12  C   UNL     1      26.116  46.691  53.358  1.00  0.00     0.053 A 
HETATM   13  C   UNL     1      27.026  46.451  54.367  1.00  0.00     0.106 A 
HETATM   14  C   UNL     1      27.806  45.321  54.393  1.00  0.00     0.105 A 
HETATM   15  O   UNL     1      27.268  47.272  55.424  1.00  0.00    -0.323 OA
HETATM   16  O   UNL     1      28.635  45.285  55.469  1.00  0.00    -0.323 OA
HETATM   17  C   UNL     1      27.721  44.368  53.406  1.00  0.00     0.040 A 
HETATM   18  C   UNL     1      28.304  46.534  56.109  1.00  0.00     0.352 A 
HETATM   19  C   UNL     1      26.810  44.590  52.365  1.00  0.00     0.017 A 
ENDBRANCH   9  11
BRANCH   1  20
HETATM   20  C   UNL     1      23.491  48.664  49.169  1.00  0.00    -0.025 A 
HETATM   21  C   UNL     1      22.323  49.306  49.609  1.00  0.00     0.012 A 
HETATM   22  C   UNL     1      22.016  50.601  49.185  1.00  0.00     0.001 A 
HETATM   23  C   UNL     1      22.879  51.278  48.327  1.00  0.00     0.000 A 
HETATM   24  C   UNL     1      24.049  50.662  47.890  1.00  0.00     0.001 A 
HETATM   25  C   UNL     1      24.353  49.364  48.308  1.00  0.00     0.012 A 
ENDBRANCH   1  20
BRANCH   7  26
HETATM   26  N   UNL     1      21.960  47.032  47.191  1.00  0.00    -0.286 NA
HETATM   27  H   UNL     1      21.193  46.688  46.620  1.00  0.00     0.125 HD
HETATM   28  H   UNL     1      22.657  47.524  46.643  1.00  0.00     0.125 HD
ENDBRANCH   7  26
TORSDOF 3
ENDMDL
MODEL 8
REMARK VINA RESULT:      -8.4      3.716      6.373
REMARK  3 active torsions:
REMARK  status: ('A' for Active; 'I' for Inactive)
REMARK    1  A    between atoms: C_4  and  C_5 
REMARK    2  A    between atoms: C_11  and  N_12 
REMARK    3  A    between atoms: C_14  and  C_15 
ROOT
HETATM    1  C   UNL     1      26.328  45.443  50.995  1.00  0.00    -0.006 A 
HETATM    2  C   UNL     1      26.599  45.362  52.402  1.00  0.00     0.063 A 
HETATM    3  C   UNL     1      27.173  44.180  52.879  1.00  0.00     0.165 A 
HETATM    4  N   UNL     1      27.486  43.991  54.151  1.00  0.00    -0.222 NA
HETATM    5  C   UNL     1      27.229  44.979  55.003  1.00  0.00     0.237 A 
HETATM    6  N   UNL     1      26.671  46.147  54.697  1.00  0.00    -0.229 NA
HETATM    7  C   UNL     1      26.355  46.323  53.409  1.00  0.00     0.117 A 
HETATM    8  N   UNL     1      27.442  43.149  52.083  1.00  0.00    -0.228 NA
HETATM    9  C   UNL     1      27.165  43.200  50.763  1.00  0.00     0.070 A 
HETATM   10  C   UNL     1      26.623  44.335  50.190  1.00  0.00     0.046 A 
ENDROOT
BRANCH   9  11
HETATM   11  C   UNL     1      27.471  41.974  49.998  1.00  0.00    -0.004 A 
HETATM   12  C   UNL     1      28.145  40.884  50.585  1.00  0.00     0.053 A 
HETATM   13  C   UNL     1      28.422  39.775  49.810  1.00  0.00     0.106 A 
HETATM   14  C   UNL     1      28.057  39.700  48.488  1.00  0.00     0.105 A 
HETATM   15  O   UNL     1      29.073  38.658  50.233  1.00  0.00    -0.323 OA
HETATM   16  O   UNL     1      28.429  38.527  47.911  1.00  0.00    -0.323 OA
HETATM   17  C   UNL     1      27.398  40.733  47.866  1.00  0.00     0.040 A 
HETATM   18  C   UNL     1      29.090  37.879  49.017  1.00  0.00     0.352 A 
HETATM   19  C   UNL     1      27.111  41.873  48.628  1.00  0.00     0.017 A 
ENDBRANCH   9  11
BRANCH   1  20
HETATM   20  C   UNL     1      25.753  46.621  50.329  1.00  0.00    -0.025 A 
HETATM   21  C   UNL     1      26.575  47.657  49.855  1.00  0.00     0.012 A 
HETATM   22  C   UNL     1      26.025  48.765  49.206  1.00  0.00     0.001 A 
HETATM   23  C   UNL     1      24.649  48.847  49.008  1.00  0.00     0.000 A 
HETATM   24  C   UNL     1      23.820  47.822  49.460  1.00  0.00     0.001 A 
HETATM   25  C   UNL     1      24.368  46.718  50.115  1.00  0.00     0.012 A 
ENDBRANCH   1  20
BRANCH   7  26
HETATM   26  N   UNL     1      25.803  47.577  53.157  1.00  0.00    -0.286 NA
HETATM   27  H   UNL     1      26.506  48.142  52.689  1.00  0.00     0.125 HD
HETATM   28  H   UNL     1      25.441  48.026  53.991  1.00  0.00     0.125 HD
ENDBRANCH   7  26
TORSDOF 3
ENDMDL
MODEL 9
REMARK VINA RESULT:      -8.2      3.812      7.614
REMARK  3 active torsions:
REMARK  status: ('A' for Active; 'I' for Inactive)
REMARK    1  A    between atoms: C_4  and  C_5 
REMARK    2  A    between atoms: C_11  and  N_12 
REMARK    3  A    between atoms: C_14  and  C_15 
ROOT
HETATM    1  C   UNL     1      25.702  44.086  51.154  1.00  0.00    -0.006 A 
HETATM    2  C   UNL     1      25.464  42.935  50.332  1.00  0.00     0.063 A 
HETATM    3  C   UNL     1      24.695  43.118  49.178  1.00  0.00     0.165 A 
HETATM    4  N   UNL     1      24.420  42.139  48.330  1.00  0.00    -0.222 NA
HETATM    5  C   UNL     1      24.900  40.930  48.607  1.00  0.00     0.237 A 
HETATM    6  N   UNL     1      25.626  40.605  49.672  1.00  0.00    -0.229 NA
HETATM    7  C   UNL     1      25.893  41.602  50.524  1.00  0.00     0.117 A 
HETATM    8  N   UNL     1      24.174  44.297  48.851  1.00  0.00    -0.228 NA
HETATM    9  C   UNL     1      24.366  45.381  49.631  1.00  0.00     0.070 A 
HETATM   10  C   UNL     1      25.134  45.310  50.777  1.00  0.00     0.046 A 
ENDROOT
BRANCH   9  11
HETATM   11  C   UNL     1      23.699  46.619  49.179  1.00  0.00    -0.004 A 
HETATM   12  C   UNL     1      24.175  47.894  49.548  1.00  0.00     0.053 A 
HETATM   13  C   UNL     1      23.494  49.012  49.111  1.00  0.00     0.106 A 
HETATM   14  C   UNL     1      22.370  48.922  48.327  1.00  0.00     0.105 A 
HETATM   15  O   UNL     1      23.826  50.301  49.395  1.00  0.00    -0.323 OA
HETATM   16  O   UNL     1      21.854  50.140  48.014  1.00  0.00    -0.323 OA
HETATM   17  C   UNL     1      21.863  47.706  47.938  1.00  0.00     0.040 A 
HETATM   18  C   UNL     1      22.770  51.010  48.711  1.00  0.00     0.352 A 
HETATM   19  C   UNL     1      22.531  46.554  48.373  1.00  0.00     0.017 A 
ENDBRANCH   9  11
BRANCH   1  20
HETATM   20  C   UNL     1      26.510  44.072  52.383  1.00  0.00    -0.025 A 
HETATM   21  C   UNL     1      27.913  44.114  52.328  1.00  0.00     0.012 A 
HETATM   22  C   UNL     1      28.674  44.120  53.498  1.00  0.00     0.001 A 
HETATM   23  C   UNL     1      28.046  44.099  54.741  1.00  0.00     0.000 A 
HETATM   24  C   UNL     1      26.655  44.070  54.815  1.00  0.00     0.001 A 
HETATM   25  C   UNL     1      25.893  44.057  53.645  1.00  0.00     0.012 A 
ENDBRANCH   1  20
BRANCH   7  26
HETATM   26  N   UNL     1      26.681  41.197  51.598  1.00  0.00    -0.286 NA
HETATM   27  H   UNL     1      27.231  41.994  51.904  1.00  0.00     0.125 HD
HETATM   28  H   UNL     1      27.258  40.390  51.385  1.00  0.00     0.125 HD
ENDBRANCH   7  26
TORSDOF 3
ENDMDL
MODEL 10
REMARK VINA RESULT:      -8.2     10.780     14.428
REMARK  3 active torsions:
REMARK  status: ('A' for Active; 'I' for Inactive)
REMARK    1  A    between atoms: C_4  and  C_5 
REMARK    2  A    between atoms: C_11  and  N_12 
REMARK    3  A    between atoms: C_14  and  C_15 
ROOT
HETATM    1  C   UNL     1      18.893  50.185  48.700  1.00  0.00    -0.006 A 
HETATM    2  C   UNL     1      18.344  48.867  48.566  1.00  0.00     0.063 A 
HETATM    3  C   UNL     1      16.953  48.758  48.474  1.00  0.00     0.165 A 
HETATM    4  N   UNL     1      16.327  47.601  48.329  1.00  0.00    -0.222 NA
HETATM    5  C   UNL     1      17.070  46.499  48.277  1.00  0.00     0.237 A 
HETATM    6  N   UNL     1      18.396  46.449  48.370  1.00  0.00    -0.229 NA
HETATM    7  C   UNL     1      19.016  47.625  48.521  1.00  0.00     0.117 A 
HETATM    8  N   UNL     1      16.151  49.817  48.533  1.00  0.00    -0.228 NA
HETATM    9  C   UNL     1      16.653  51.060  48.690  1.00  0.00     0.070 A 
HETATM   10  C   UNL     1      18.017  51.276  48.762  1.00  0.00     0.046 A 
ENDROOT
BRANCH   9  11
HETATM   11  C   UNL     1      15.656  52.145  48.784  1.00  0.00    -0.004 A 
HETATM   12  C   UNL     1      15.035  52.476  50.005  1.00  0.00     0.053 A 
HETATM   13  C   UNL     1      14.094  53.486  50.023  1.00  0.00     0.106 A 
HETATM   14  C   UNL     1      13.748  54.180  48.889  1.00  0.00     0.105 A 
HETATM   15  O   UNL     1      13.406  53.906  51.119  1.00  0.00    -0.323 OA
HETATM   16  O   UNL     1      12.802  55.127  49.127  1.00  0.00    -0.323 OA
HETATM   17  C   UNL     1      14.322  53.900  47.673  1.00  0.00     0.040 A 
HETATM   18  C   UNL     1      12.574  54.934  50.538  1.00  0.00     0.352 A 
HETATM   19  C   UNL     1      15.275  52.874  47.625  1.00  0.00     0.017 A 
ENDBRANCH   9  11
BRANCH   1  20
HETATM   20  C   UNL     1      20.333  50.477  48.783  1.00  0.00    -0.025 A 
HETATM   21  C   UNL     1      20.957  50.695  50.022  1.00  0.00     0.012 A 
HETATM   22  C   UNL     1      22.328  50.954  50.096  1.00  0.00     0.001 A 
HETATM   23  C   UNL     1      23.097  50.983  48.936  1.00  0.00     0.000 A 
HETATM   24  C   UNL     1      22.497  50.756  47.699  1.00  0.00     0.001 A 
HETATM   25  C   UNL     1      21.125  50.505  47.623  1.00  0.00     0.012 A 
ENDBRANCH   1  20
BRANCH   7  26
HETATM   26  N   UNL     1      20.402  47.499  48.582  1.00  0.00    -0.286 NA
HETATM   27  H   UNL     1      20.811  48.383  48.293  1.00  0.00     0.125 HD
HETATM   28  H   UNL     1      20.754  46.717  48.041  1.00  0.00     0.125 HD
ENDBRANCH   7  26
TORSDOF 3
ENDMDL
