MODEL 1
REMARK VINA RESULT:      -8.9      0.000      0.000
REMARK  6 active torsions:
REMARK  status: ('A' for Active; 'I' for Inactive)
REMARK    1  A    between atoms: C_2  and  C_3 
REMARK    2  A    between atoms: C_3  and  C_4 
REMARK    3  A    between atoms: C_4  and  N_5 
REMARK       I    between atoms: N_5  and  C_6 
REMARK       I    between atoms: C_6  and  N_7 
REMARK    4  A    between atoms: N_7  and  C_8 
REMARK    5  A    between atoms: N_11  and  C_12 
REMARK    6  A    between atoms: C_15  and  O_16 
ROOT
HETATM    1  C   UNL     1      24.914  46.691  51.312  1.00  0.00     0.123 C 
HETATM    2  C   UNL     1      25.769  46.516  52.514  1.00  0.00     0.009 A 
HETATM    3  C   UNL     1      26.478  45.368  52.823  1.00  0.00     0.047 A 
HETATM    4  N   UNL     1      27.282  45.685  53.916  1.00  0.00    -0.238 N 
HETATM    5  N   UNL     1      26.993  46.943  54.365  1.00  0.00    -0.179 NA
HETATM    6  C   UNL     1      26.102  47.434  53.512  1.00  0.00     0.150 A 
HETATM    7  C   UNL     1      26.395  44.089  52.057  1.00  0.00     0.069 C 
HETATM    8  C   UNL     1      25.617  44.234  50.706  1.00  0.00    -0.040 C 
HETATM    9  C   UNL     1      24.959  42.876  50.374  1.00  0.00     0.015 C 
HETATM   10  C   UNL     1      26.614  44.549  49.572  1.00  0.00     0.015 C 
HETATM   11  C   UNL     1      24.489  45.314  50.763  1.00  0.00     0.039 C 
ENDROOT
BRANCH   1  12
HETATM   12  N   UNL     1      25.703  47.471  50.375  1.00  0.00    -0.334 N 
HETATM   13  C   UNL     1      25.352  48.358  49.422  1.00  0.00     0.316 C 
HETATM   14  N   UNL     1      24.027  48.484  49.149  1.00  0.00    -0.343 N 
HETATM   15  O   UNL     1      26.233  48.990  48.849  1.00  0.00    -0.247 OA
HETATM   16  H   UNL     1      23.379  48.127  49.830  1.00  0.00     0.164 HD
HETATM   17  H   UNL     1      26.711  47.432  50.477  1.00  0.00     0.165 HD
BRANCH  14  18
HETATM   18  C   UNL     1      23.537  49.535  48.279  1.00  0.00     0.124 C 
BRANCH  18  19
HETATM   19  C   UNL     1      23.159  50.850  48.968  1.00  0.00     0.019 C 
BRANCH  19  20
HETATM   20  C   UNL     1      21.729  50.911  49.512  1.00  0.00    -0.003 C 
HETATM   21  C   UNL     1      20.695  51.353  48.490  1.00  0.00     0.005 C 
ENDBRANCH  19  20
ENDBRANCH  18  19
ENDBRANCH  14  18
ENDBRANCH   1  12
BRANCH   4  22
HETATM   22  C   UNL     1      28.348  44.968  54.545  1.00  0.00     0.058 A 
HETATM   23  C   UNL     1      29.074  45.610  55.564  1.00  0.00     0.034 A 
HETATM   24  C   UNL     1      30.193  45.004  56.141  1.00  0.00     0.039 A 
HETATM   25  C   UNL     1      30.609  43.744  55.719  1.00  0.00     0.068 A 
HETATM   26  C   UNL     1      29.862  43.073  54.753  1.00  0.00     0.039 A 
HETATM   27  C   UNL     1      28.735  43.678  54.171  1.00  0.00     0.034 A 
BRANCH  25  28
HETATM   28  O   UNL     1      31.736  43.274  56.331  1.00  0.00    -0.356 OA
HETATM   29  C   UNL     1      31.961  43.712  57.666  1.00  0.00     0.210 C 
ENDBRANCH  25  28
ENDBRANCH   4  22
TORSDOF 6
ENDMDL
MODEL 2
REMARK VINA RESULT:      -8.2      2.475      8.960
REMARK  6 active torsions:
REMARK  status: ('A' for Active; 'I' for Inactive)
REMARK    1  A    between atoms: C_2  and  C_3 
REMARK    2  A    between atoms: C_3  and  C_4 
REMARK    3  A    between atoms: C_4  and  N_5 
REMARK       I    between atoms: N_5  and  C_6 
REMARK       I    between atoms: C_6  and  N_7 
REMARK    4  A    between atoms: N_7  and  C_8 
REMARK    5  A    between atoms: N_11  and  C_12 
REMARK    6  A    between atoms: C_15  and  O_16 
ROOT
HETATM    1  C   UNL     1      25.668  44.515  50.774  1.00  0.00     0.123 C 
HETATM    2  C   UNL     1      25.205  45.871  50.382  1.00  0.00     0.009 A 
HETATM    3  C   UNL     1      24.207  46.132  49.458  1.00  0.00     0.047 A 
HETATM    4  N   UNL     1      23.959  47.502  49.524  1.00  0.00    -0.238 N 
HETATM    5  N   UNL     1      24.859  48.104  50.359  1.00  0.00    -0.179 NA
HETATM    6  C   UNL     1      25.585  47.120  50.876  1.00  0.00     0.150 A 
HETATM    7  C   UNL     1      23.528  45.094  48.627  1.00  0.00     0.069 C 
HETATM    8  C   UNL     1      23.870  43.633  49.074  1.00  0.00    -0.040 C 
HETATM    9  C   UNL     1      23.781  42.711  47.837  1.00  0.00     0.015 C 
HETATM   10  C   UNL     1      22.811  43.145  50.085  1.00  0.00     0.015 C 
HETATM   11  C   UNL     1      25.307  43.496  49.673  1.00  0.00     0.039 C 
ENDROOT
BRANCH   1  12
HETATM   12  N   UNL     1      25.039  44.235  52.052  1.00  0.00    -0.334 N 
HETATM   13  C   UNL     1      25.461  44.406  53.321  1.00  0.00     0.316 C 
HETATM   14  N   UNL     1      26.757  44.777  53.499  1.00  0.00    -0.343 N 
HETATM   15  O   UNL     1      24.672  44.211  54.238  1.00  0.00    -0.247 OA
HETATM   16  H   UNL     1      27.242  45.155  52.704  1.00  0.00     0.164 HD
HETATM   17  H   UNL     1      24.072  43.930  52.033  1.00  0.00     0.165 HD
BRANCH  14  18
HETATM   18  C   UNL     1      27.254  45.163  54.805  1.00  0.00     0.124 C 
BRANCH  18  19
HETATM   19  C   UNL     1      28.764  45.014  55.014  1.00  0.00     0.019 C 
BRANCH  19  20
HETATM   20  C   UNL     1      29.350  43.667  54.586  1.00  0.00    -0.003 C 
HETATM   21  C   UNL     1      30.649  43.303  55.287  1.00  0.00     0.005 C 
ENDBRANCH  19  20
ENDBRANCH  18  19
ENDBRANCH  14  18
ENDBRANCH   1  12
BRANCH   4  22
HETATM   22  C   UNL     1      22.924  48.305  48.950  1.00  0.00     0.058 A 
HETATM   23  C   UNL     1      23.256  49.591  48.489  1.00  0.00     0.034 A 
HETATM   24  C   UNL     1      22.269  50.461  48.018  1.00  0.00     0.039 A 
HETATM   25  C   UNL     1      20.935  50.068  47.991  1.00  0.00     0.068 A 
HETATM   26  C   UNL     1      20.603  48.774  48.388  1.00  0.00     0.039 A 
HETATM   27  C   UNL     1      21.591  47.894  48.861  1.00  0.00     0.034 A 
BRANCH  25  28
HETATM   28  O   UNL     1      20.061  51.019  47.546  1.00  0.00    -0.356 OA
HETATM   29  C   UNL     1      19.603  51.958  48.511  1.00  0.00     0.210 C 
ENDBRANCH  25  28
ENDBRANCH   4  22
TORSDOF 6
ENDMDL
MODEL 3
REMARK VINA RESULT:      -7.9      3.893      8.570
REMARK  6 active torsions:
REMARK  status: ('A' for Active; 'I' for Inactive)
REMARK    1  A    between atoms: C_2  and  C_3 
REMARK    2  A    between atoms: C_3  and  C_4 
REMARK    3  A    between atoms: C_4  and  N_5 
REMARK       I    between atoms: N_5  and  C_6 
REMARK       I    between atoms: C_6  and  N_7 
REMARK    4  A    between atoms: N_7  and  C_8 
REMARK    5  A    between atoms: N_11  and  C_12 
REMARK    6  A    between atoms: C_15  and  O_16 
ROOT
HETATM    1  C   UNL     1      27.456  41.008  51.999  1.00  0.00     0.123 C 
HETATM    2  C   UNL     1      26.640  42.075  51.365  1.00  0.00     0.009 A 
HETATM    3  C   UNL     1      26.756  43.428  51.633  1.00  0.00     0.047 A 
HETATM    4  N   UNL     1      25.951  44.084  50.704  1.00  0.00    -0.238 N 
HETATM    5  N   UNL     1      25.247  43.175  49.966  1.00  0.00    -0.179 NA
HETATM    6  C   UNL     1      25.678  41.982  50.357  1.00  0.00     0.150 A 
HETATM    7  C   UNL     1      27.637  44.010  52.689  1.00  0.00     0.069 C 
HETATM    8  C   UNL     1      28.622  42.963  53.309  1.00  0.00    -0.040 C 
HETATM    9  C   UNL     1      28.923  43.380  54.766  1.00  0.00     0.015 C 
HETATM   10  C   UNL     1      29.959  42.997  52.539  1.00  0.00     0.015 C 
HETATM   11  C   UNL     1      28.038  41.514  53.335  1.00  0.00     0.039 C 
ENDROOT
BRANCH   1  12
HETATM   12  N   UNL     1      28.469  40.652  51.022  1.00  0.00    -0.334 N 
HETATM   13  C   UNL     1      28.581  39.604  50.181  1.00  0.00     0.316 C 
HETATM   14  N   UNL     1      27.683  38.594  50.324  1.00  0.00    -0.343 N 
HETATM   15  O   UNL     1      29.481  39.607  49.349  1.00  0.00    -0.247 OA
HETATM   16  H   UNL     1      26.845  38.792  50.845  1.00  0.00     0.164 HD
HETATM   17  H   UNL     1      29.204  41.330  50.852  1.00  0.00     0.165 HD
BRANCH  14  18
HETATM   18  C   UNL     1      27.604  37.517  49.357  1.00  0.00     0.124 C 
BRANCH  18  19
HETATM   19  C   UNL     1      26.465  37.618  48.338  1.00  0.00     0.019 C 
BRANCH  19  20
HETATM   20  C   UNL     1      26.590  38.767  47.334  1.00  0.00    -0.003 C 
HETATM   21  C   UNL     1      27.763  38.630  46.378  1.00  0.00     0.005 C 
ENDBRANCH  19  20
ENDBRANCH  18  19
ENDBRANCH  14  18
ENDBRANCH   1  12
BRANCH   4  22
HETATM   22  C   UNL     1      25.820  45.471  50.377  1.00  0.00     0.058 A 
HETATM   23  C   UNL     1      24.547  46.060  50.470  1.00  0.00     0.034 A 
HETATM   24  C   UNL     1      24.335  47.380  50.061  1.00  0.00     0.039 A 
HETATM   25  C   UNL     1      25.387  48.140  49.558  1.00  0.00     0.068 A 
HETATM   26  C   UNL     1      26.664  47.586  49.519  1.00  0.00     0.039 A 
HETATM   27  C   UNL     1      26.882  46.260  49.930  1.00  0.00     0.034 A 
BRANCH  25  28
HETATM   28  O   UNL     1      25.046  49.401  49.157  1.00  0.00    -0.356 OA
HETATM   29  C   UNL     1      25.795  49.945  48.077  1.00  0.00     0.210 C 
ENDBRANCH  25  28
ENDBRANCH   4  22
TORSDOF 6
ENDMDL
MODEL 4
REMARK VINA RESULT:      -7.7      3.554      9.978
REMARK  6 active torsions:
REMARK  status: ('A' for Active; 'I' for Inactive)
REMARK    1  A    between atoms: C_2  and  C_3 
REMARK    2  A    between atoms: C_3  and  C_4 
REMARK    3  A    between atoms: C_4  and  N_5 
REMARK       I    between atoms: N_5  and  C_6 
REMARK       I    between atoms: C_6  and  N_7 
REMARK    4  A    between atoms: N_7  and  C_8 
REMARK    5  A    between atoms: N_11  and  C_12 
REMARK    6  A    between atoms: C_15  and  O_16 
ROOT
HETATM    1  C   UNL     1      23.287  46.105  48.462  1.00  0.00     0.123 C 
HETATM    2  C   UNL     1      22.909  47.513  48.745  1.00  0.00     0.009 A 
HETATM    3  C   UNL     1      21.687  48.084  48.432  1.00  0.00     0.047 A 
HETATM    4  N   UNL     1      21.678  49.344  49.027  1.00  0.00    -0.238 N 
HETATM    5  N   UNL     1      22.899  49.612  49.580  1.00  0.00    -0.179 NA
HETATM    6  C   UNL     1      23.618  48.508  49.420  1.00  0.00     0.150 A 
HETATM    7  C   UNL     1      20.609  47.406  47.653  1.00  0.00     0.069 C 
HETATM    8  C   UNL     1      20.881  45.880  47.432  1.00  0.00    -0.040 C 
HETATM    9  C   UNL     1      20.210  45.451  46.108  1.00  0.00     0.015 C 
HETATM   10  C   UNL     1      20.216  45.071  48.565  1.00  0.00     0.015 C 
HETATM   11  C   UNL     1      22.404  45.538  47.332  1.00  0.00     0.039 C 
ENDROOT
BRANCH   1  12
HETATM   12  N   UNL     1      23.145  45.395  49.721  1.00  0.00    -0.334 N 
HETATM   13  C   UNL     1      24.006  44.640  50.432  1.00  0.00     0.316 C 
HETATM   14  N   UNL     1      25.196  44.339  49.848  1.00  0.00    -0.343 N 
HETATM   15  O   UNL     1      23.675  44.258  51.549  1.00  0.00    -0.247 OA
HETATM   16  H   UNL     1      25.478  44.896  49.060  1.00  0.00     0.164 HD
HETATM   17  H   UNL     1      22.281  45.533  50.232  1.00  0.00     0.165 HD
BRANCH  14  18
HETATM   18  C   UNL     1      26.257  43.694  50.596  1.00  0.00     0.124 C 
BRANCH  18  19
HETATM   19  C   UNL     1      27.055  44.600  51.539  1.00  0.00     0.019 C 
BRANCH  19  20
HETATM   20  C   UNL     1      27.702  43.891  52.730  1.00  0.00    -0.003 C 
HETATM   21  C   UNL     1      28.050  44.812  53.888  1.00  0.00     0.005 C 
ENDBRANCH  19  20
ENDBRANCH  18  19
ENDBRANCH  14  18
ENDBRANCH   1  12
BRANCH   4  22
HETATM   22  C   UNL     1      20.629  50.300  49.203  1.00  0.00     0.058 A 
HETATM   23  C   UNL     1      19.609  50.008  50.126  1.00  0.00     0.034 A 
HETATM   24  C   UNL     1      18.502  50.850  50.262  1.00  0.00     0.039 A 
HETATM   25  C   UNL     1      18.391  52.002  49.487  1.00  0.00     0.068 A 
HETATM   26  C   UNL     1      19.425  52.332  48.614  1.00  0.00     0.039 A 
HETATM   27  C   UNL     1      20.541  51.489  48.474  1.00  0.00     0.034 A 
BRANCH  25  28
HETATM   28  O   UNL     1      17.247  52.722  49.685  1.00  0.00    -0.356 OA
HETATM   29  C   UNL     1      16.029  52.088  49.312  1.00  0.00     0.210 C 
ENDBRANCH  25  28
ENDBRANCH   4  22
TORSDOF 6
ENDMDL
MODEL 5
REMARK VINA RESULT:      -7.5      2.731      3.820
REMARK  6 active torsions:
REMARK  status: ('A' for Active; 'I' for Inactive)
REMARK    1  A    between atoms: C_2  and  C_3 
REMARK    2  A    between atoms: C_3  and  C_4 
REMARK    3  A    between atoms: C_4  and  N_5 
REMARK       I    between atoms: N_5  and  C_6 
REMARK       I    between atoms: C_6  and  N_7 
REMARK    4  A    between atoms: N_7  and  C_8 
REMARK    5  A    between atoms: N_11  and  C_12 
REMARK    6  A    between atoms: C_15  and  O_16 
ROOT
HETATM    1  C   UNL     1      25.633  43.460  49.796  1.00  0.00     0.123 C 
HETATM    2  C   UNL     1      26.642  43.102  50.825  1.00  0.00     0.009 A 
HETATM    3  C   UNL     1      27.326  44.010  51.615  1.00  0.00     0.047 A 
HETATM    4  N   UNL     1      28.025  43.261  52.560  1.00  0.00    -0.238 N 
HETATM    5  N   UNL     1      27.897  41.927  52.292  1.00  0.00    -0.179 NA
HETATM    6  C   UNL     1      27.058  41.844  51.267  1.00  0.00     0.150 A 
HETATM    7  C   UNL     1      27.241  45.493  51.469  1.00  0.00     0.069 C 
HETATM    8  C   UNL     1      26.102  45.948  50.495  1.00  0.00    -0.040 C 
HETATM    9  C   UNL     1      26.520  47.287  49.847  1.00  0.00     0.015 C 
HETATM   10  C   UNL     1      24.813  46.212  51.301  1.00  0.00     0.015 C 
HETATM   11  C   UNL     1      25.833  44.921  49.347  1.00  0.00     0.039 C 
ENDROOT
BRANCH   1  12
HETATM   12  N   UNL     1      24.339  43.213  50.408  1.00  0.00    -0.334 N 
HETATM   13  C   UNL     1      23.082  43.467  49.991  1.00  0.00     0.316 C 
HETATM   14  N   UNL     1      22.941  44.213  48.863  1.00  0.00    -0.343 N 
HETATM   15  O   UNL     1      22.142  43.031  50.646  1.00  0.00    -0.247 OA
HETATM   16  H   UNL     1      23.745  44.304  48.267  1.00  0.00     0.164 HD
HETATM   17  H   UNL     1      24.331  42.680  51.270  1.00  0.00     0.165 HD
BRANCH  14  18
HETATM   18  C   UNL     1      21.646  44.385  48.235  1.00  0.00     0.124 C 
BRANCH  18  19
HETATM   19  C   UNL     1      21.154  45.830  48.105  1.00  0.00     0.019 C 
BRANCH  19  20
HETATM   20  C   UNL     1      22.240  46.860  47.786  1.00  0.00    -0.003 C 
HETATM   21  C   UNL     1      22.465  47.886  48.884  1.00  0.00     0.005 C 
ENDBRANCH  19  20
ENDBRANCH  18  19
ENDBRANCH  14  18
ENDBRANCH   1  12
BRANCH   4  22
HETATM   22  C   UNL     1      28.744  43.652  53.734  1.00  0.00     0.058 A 
HETATM   23  C   UNL     1      28.279  44.762  54.460  1.00  0.00     0.034 A 
HETATM   24  C   UNL     1      28.998  45.258  55.551  1.00  0.00     0.039 A 
HETATM   25  C   UNL     1      30.190  44.655  55.944  1.00  0.00     0.068 A 
HETATM   26  C   UNL     1      30.627  43.517  55.269  1.00  0.00     0.039 A 
HETATM   27  C   UNL     1      29.907  43.014  54.172  1.00  0.00     0.034 A 
BRANCH  25  28
HETATM   28  O   UNL     1      30.818  45.253  56.999  1.00  0.00    -0.356 OA
HETATM   29  C   UNL     1      29.982  45.903  57.949  1.00  0.00     0.210 C 
ENDBRANCH  25  28
ENDBRANCH   4  22
TORSDOF 6
ENDMDL
MODEL 6
REMARK VINA RESULT:      -7.4      3.337      6.096
REMARK  6 active torsions:
REMARK  status: ('A' for Active; 'I' for Inactive)
REMARK    1  A    between atoms: C_2  and  C_3 
REMARK    2  A    between atoms: C_3  and  C_4 
REMARK    3  A    between atoms: C_4  and  N_5 
REMARK       I    between atoms: N_5  and  C_6 
REMARK       I    between atoms: C_6  and  N_7 
REMARK    4  A    between atoms: N_7  and  C_8 
REMARK    5  A    between atoms: N_11  and  C_12 
REMARK    6  A    between atoms: C_15  and  O_16 
ROOT
HETATM    1  C   UNL     1      20.736  47.628  48.220  1.00  0.00     0.123 C 
HETATM    2  C   UNL     1      21.742  46.600  48.588  1.00  0.00     0.009 A 
HETATM    3  C   UNL     1      23.060  46.862  48.919  1.00  0.00     0.047 A 
HETATM    4  N   UNL     1      23.599  45.659  49.372  1.00  0.00    -0.238 N 
HETATM    5  N   UNL     1      22.696  44.647  49.207  1.00  0.00    -0.179 NA
HETATM    6  C   UNL     1      21.588  45.222  48.754  1.00  0.00     0.150 A 
HETATM    7  C   UNL     1      23.703  48.208  48.838  1.00  0.00     0.069 C 
HETATM    8  C   UNL     1      22.676  49.362  48.583  1.00  0.00    -0.040 C 
HETATM    9  C   UNL     1      23.394  50.493  47.814  1.00  0.00     0.015 C 
HETATM   10  C   UNL     1      22.217  49.947  49.935  1.00  0.00     0.015 C 
HETATM   11  C   UNL     1      21.445  48.908  47.733  1.00  0.00     0.039 C 
ENDROOT
BRANCH   1  12
HETATM   12  N   UNL     1      19.923  47.831  49.407  1.00  0.00    -0.334 N 
HETATM   13  C   UNL     1      18.797  48.541  49.617  1.00  0.00     0.316 C 
HETATM   14  N   UNL     1      18.373  49.346  48.607  1.00  0.00    -0.343 N 
HETATM   15  O   UNL     1      18.225  48.437  50.696  1.00  0.00    -0.247 OA
HETATM   16  H   UNL     1      18.749  49.174  47.691  1.00  0.00     0.164 HD
HETATM   17  H   UNL     1      20.168  47.291  50.230  1.00  0.00     0.165 HD
BRANCH  14  18
HETATM   18  C   UNL     1      17.083  50.004  48.664  1.00  0.00     0.124 C 
BRANCH  18  19
HETATM   19  C   UNL     1      17.100  51.468  49.115  1.00  0.00     0.019 C 
BRANCH  19  20
HETATM   20  C   UNL     1      18.462  51.988  49.580  1.00  0.00    -0.003 C 
HETATM   21  C   UNL     1      19.396  52.383  48.449  1.00  0.00     0.005 C 
ENDBRANCH  19  20
ENDBRANCH  18  19
ENDBRANCH  14  18
ENDBRANCH   1  12
BRANCH   4  22
HETATM   22  C   UNL     1      24.842  45.362  50.014  1.00  0.00     0.058 A 
HETATM   23  C   UNL     1      25.712  44.449  49.392  1.00  0.00     0.034 A 
HETATM   24  C   UNL     1      26.890  44.037  50.022  1.00  0.00     0.039 A 
HETATM   25  C   UNL     1      27.227  44.529  51.280  1.00  0.00     0.068 A 
HETATM   26  C   UNL     1      26.403  45.480  51.878  1.00  0.00     0.039 A 
HETATM   27  C   UNL     1      25.219  45.899  51.248  1.00  0.00     0.034 A 
BRANCH  25  28
HETATM   28  O   UNL     1      28.382  44.022  51.806  1.00  0.00    -0.356 OA
HETATM   29  C   UNL     1      28.252  42.852  52.606  1.00  0.00     0.210 C 
ENDBRANCH  25  28
ENDBRANCH   4  22
TORSDOF 6
ENDMDL
MODEL 7
REMARK VINA RESULT:      -7.3      5.527     12.242
REMARK  6 active torsions:
REMARK  status: ('A' for Active; 'I' for Inactive)
REMARK    1  A    between atoms: C_2  and  C_3 
REMARK    2  A    between atoms: C_3  and  C_4 
REMARK    3  A    between atoms: C_4  and  N_5 
REMARK       I    between atoms: N_5  and  C_6 
REMARK       I    between atoms: C_6  and  N_7 
REMARK    4  A    between atoms: N_7  and  C_8 
REMARK    5  A    between atoms: N_11  and  C_12 
REMARK    6  A    between atoms: C_15  and  O_16 
ROOT
HETATM    1  C   UNL     1      20.223  49.563  49.811  1.00  0.00     0.123 C 
HETATM    2  C   UNL     1      19.257  48.658  49.137  1.00  0.00     0.009 A 
HETATM    3  C   UNL     1      18.078  49.063  48.535  1.00  0.00     0.047 A 
HETATM    4  N   UNL     1      17.572  47.947  47.872  1.00  0.00    -0.238 N 
HETATM    5  N   UNL     1      18.329  46.846  48.157  1.00  0.00    -0.179 NA
HETATM    6  C   UNL     1      19.340  47.285  48.898  1.00  0.00     0.150 A 
HETATM    7  C   UNL     1      17.540  50.455  48.576  1.00  0.00     0.069 C 
HETATM    8  C   UNL     1      18.564  51.490  49.155  1.00  0.00    -0.040 C 
HETATM    9  C   UNL     1      17.772  52.633  49.829  1.00  0.00     0.015 C 
HETATM   10  C   UNL     1      19.373  52.113  47.999  1.00  0.00     0.015 C 
HETATM   11  C   UNL     1      19.520  50.871  50.226  1.00  0.00     0.039 C 
ENDROOT
BRANCH   1  12
HETATM   12  N   UNL     1      21.307  49.761  48.864  1.00  0.00    -0.334 N 
HETATM   13  C   UNL     1      22.482  49.124  48.693  1.00  0.00     0.316 C 
HETATM   14  N   UNL     1      22.835  48.209  49.634  1.00  0.00    -0.343 N 
HETATM   15  O   UNL     1      23.171  49.404  47.719  1.00  0.00    -0.247 OA
HETATM   16  H   UNL     1      22.109  47.867  50.241  1.00  0.00     0.164 HD
HETATM   17  H   UNL     1      21.155  50.441  48.128  1.00  0.00     0.165 HD
BRANCH  14  18
HETATM   18  C   UNL     1      23.982  47.343  49.446  1.00  0.00     0.124 C 
BRANCH  18  19
HETATM   19  C   UNL     1      25.153  47.571  50.408  1.00  0.00     0.019 C 
BRANCH  19  20
HETATM   20  C   UNL     1      26.504  47.832  49.737  1.00  0.00    -0.003 C 
HETATM   21  C   UNL     1      26.544  49.095  48.893  1.00  0.00     0.005 C 
ENDBRANCH  19  20
ENDBRANCH  18  19
ENDBRANCH  14  18
ENDBRANCH   1  12
BRANCH   4  22
HETATM   22  C   UNL     1      16.497  47.808  46.938  1.00  0.00     0.058 A 
HETATM   23  C   UNL     1      16.717  47.050  45.775  1.00  0.00     0.034 A 
HETATM   24  C   UNL     1      15.744  46.968  44.776  1.00  0.00     0.039 A 
HETATM   25  C   UNL     1      14.530  47.634  44.917  1.00  0.00     0.068 A 
HETATM   26  C   UNL     1      14.277  48.339  46.093  1.00  0.00     0.039 A 
HETATM   27  C   UNL     1      15.253  48.423  47.101  1.00  0.00     0.034 A 
BRANCH  25  28
HETATM   28  O   UNL     1      13.676  47.508  43.858  1.00  0.00    -0.356 OA
HETATM   29  C   UNL     1      13.461  46.189  43.372  1.00  0.00     0.210 C 
ENDBRANCH  25  28
ENDBRANCH   4  22
TORSDOF 6
ENDMDL
MODEL 8
REMARK VINA RESULT:      -7.1     16.373     18.932
REMARK  6 active torsions:
REMARK  status: ('A' for Active; 'I' for Inactive)
REMARK    1  A    between atoms: C_2  and  C_3 
REMARK    2  A    between atoms: C_3  and  C_4 
REMARK    3  A    between atoms: C_4  and  N_5 
REMARK       I    between atoms: N_5  and  C_6 
REMARK       I    between atoms: C_6  and  N_7 
REMARK    4  A    between atoms: N_7  and  C_8 
REMARK    5  A    between atoms: N_11  and  C_12 
REMARK    6  A    between atoms: C_15  and  O_16 
ROOT
HETATM    1  C   UNL     1      39.042  44.080  63.042  1.00  0.00     0.123 C 
HETATM    2  C   UNL     1      39.320  42.622  63.091  1.00  0.00     0.009 A 
HETATM    3  C   UNL     1      40.161  42.005  64.001  1.00  0.00     0.047 A 
HETATM    4  N   UNL     1      39.996  40.633  63.822  1.00  0.00    -0.238 N 
HETATM    5  N   UNL     1      39.185  40.393  62.748  1.00  0.00    -0.179 NA
HETATM    6  C   UNL     1      38.776  41.585  62.331  1.00  0.00     0.150 A 
HETATM    7  C   UNL     1      41.009  42.727  64.996  1.00  0.00     0.069 C 
HETATM    8  C   UNL     1      40.673  44.253  65.092  1.00  0.00    -0.040 C 
HETATM    9  C   UNL     1      41.956  45.009  65.507  1.00  0.00     0.015 C 
HETATM   10  C   UNL     1      39.629  44.480  66.205  1.00  0.00     0.015 C 
HETATM   11  C   UNL     1      40.177  44.857  63.739  1.00  0.00     0.039 C 
ENDROOT
BRANCH   1  12
HETATM   12  N   UNL     1      37.745  44.257  63.671  1.00  0.00    -0.334 N 
HETATM   13  C   UNL     1      37.047  45.363  64.000  1.00  0.00     0.316 C 
HETATM   14  N   UNL     1      37.679  46.559  63.867  1.00  0.00    -0.343 N 
HETATM   15  O   UNL     1      35.897  45.237  64.407  1.00  0.00    -0.247 OA
HETATM   16  H   UNL     1      38.507  46.583  63.296  1.00  0.00     0.164 HD
HETATM   17  H   UNL     1      37.195  43.422  63.836  1.00  0.00     0.165 HD
BRANCH  14  18
HETATM   18  C   UNL     1      36.959  47.808  64.017  1.00  0.00     0.124 C 
BRANCH  18  19
HETATM   19  C   UNL     1      37.596  48.835  64.959  1.00  0.00     0.019 C 
BRANCH  19  20
HETATM   20  C   UNL     1      39.046  49.202  64.637  1.00  0.00    -0.003 C 
HETATM   21  C   UNL     1      40.073  48.498  65.510  1.00  0.00     0.005 C 
ENDBRANCH  19  20
ENDBRANCH  18  19
ENDBRANCH  14  18
ENDBRANCH   1  12
BRANCH   4  22
HETATM   22  C   UNL     1      40.454  39.517  64.590  1.00  0.00     0.058 A 
HETATM   23  C   UNL     1      41.794  39.117  64.451  1.00  0.00     0.034 A 
HETATM   24  C   UNL     1      42.271  37.969  65.091  1.00  0.00     0.039 A 
HETATM   25  C   UNL     1      41.426  37.202  65.886  1.00  0.00     0.068 A 
HETATM   26  C   UNL     1      40.111  37.623  66.080  1.00  0.00     0.039 A 
HETATM   27  C   UNL     1      39.628  38.776  65.439  1.00  0.00     0.034 A 
BRANCH  25  28
HETATM   28  O   UNL     1      41.998  36.085  66.427  1.00  0.00    -0.356 OA
HETATM   29  C   UNL     1      41.384  34.842  66.109  1.00  0.00     0.210 C 
ENDBRANCH  25  28
ENDBRANCH   4  22
TORSDOF 6
ENDMDL
MODEL 9
REMARK VINA RESULT:      -7.0      3.865      9.640
REMARK  6 active torsions:
REMARK  status: ('A' for Active; 'I' for Inactive)
REMARK    1  A    between atoms: C_2  and  C_3 
REMARK    2  A    between atoms: C_3  and  C_4 
REMARK    3  A    between atoms: C_4  and  N_5 
REMARK       I    between atoms: N_5  and  C_6 
REMARK       I    between atoms: C_6  and  N_7 
REMARK    4  A    between atoms: N_7  and  C_8 
REMARK    5  A    between atoms: N_11  and  C_12 
REMARK    6  A    between atoms: C_15  and  O_16 
ROOT
HETATM    1  C   UNL     1      25.161  43.603  51.457  1.00  0.00     0.123 C 
HETATM    2  C   UNL     1      24.039  43.655  50.485  1.00  0.00     0.009 A 
HETATM    3  C   UNL     1      23.770  44.717  49.639  1.00  0.00     0.047 A 
HETATM    4  N   UNL     1      22.763  44.288  48.777  1.00  0.00    -0.238 N 
HETATM    5  N   UNL     1      22.317  43.051  49.151  1.00  0.00    -0.179 NA
HETATM    6  C   UNL     1      23.096  42.678  50.160  1.00  0.00     0.150 A 
HETATM    7  C   UNL     1      24.497  46.021  49.660  1.00  0.00     0.069 C 
HETATM    8  C   UNL     1      25.774  45.996  50.565  1.00  0.00    -0.040 C 
HETATM    9  C   UNL     1      26.013  47.422  51.110  1.00  0.00     0.015 C 
HETATM   10  C   UNL     1      27.001  45.620  49.710  1.00  0.00     0.015 C 
HETATM   11  C   UNL     1      25.638  45.031  51.788  1.00  0.00     0.039 C 
ENDROOT
BRANCH   1  12
HETATM   12  N   UNL     1      26.183  42.778  50.837  1.00  0.00    -0.334 N 
HETATM   13  C   UNL     1      27.312  42.225  51.325  1.00  0.00     0.316 C 
HETATM   14  N   UNL     1      27.685  42.582  52.582  1.00  0.00    -0.343 N 
HETATM   15  O   UNL     1      27.943  41.449  50.617  1.00  0.00    -0.247 OA
HETATM   16  H   UNL     1      26.988  43.010  53.167  1.00  0.00     0.164 HD
HETATM   17  H   UNL     1      26.014  42.472  49.886  1.00  0.00     0.165 HD
BRANCH  14  18
HETATM   18  C   UNL     1      28.774  41.907  53.261  1.00  0.00     0.124 C 
BRANCH  18  19
HETATM   19  C   UNL     1      30.098  42.675  53.325  1.00  0.00     0.019 C 
BRANCH  19  20
HETATM   20  C   UNL     1      30.468  43.219  54.707  1.00  0.00    -0.003 C 
HETATM   21  C   UNL     1      29.583  44.358  55.183  1.00  0.00     0.005 C 
ENDBRANCH  19  20
ENDBRANCH  18  19
ENDBRANCH  14  18
ENDBRANCH   1  12
BRANCH   4  22
HETATM   22  C   UNL     1      22.218  44.876  47.592  1.00  0.00     0.058 A 
HETATM   23  C   UNL     1      21.122  45.747  47.724  1.00  0.00     0.034 A 
HETATM   24  C   UNL     1      20.479  46.266  46.597  1.00  0.00     0.039 A 
HETATM   25  C   UNL     1      20.917  45.934  45.318  1.00  0.00     0.068 A 
HETATM   26  C   UNL     1      22.039  45.121  45.177  1.00  0.00     0.039 A 
HETATM   27  C   UNL     1      22.690  44.597  46.308  1.00  0.00     0.034 A 
BRANCH  25  28
HETATM   28  O   UNL     1      20.184  46.474  44.299  1.00  0.00    -0.356 OA
HETATM   29  C   UNL     1      19.007  47.181  44.672  1.00  0.00     0.210 C 
ENDBRANCH  25  28
ENDBRANCH   4  22
TORSDOF 6
ENDMDL
MODEL 10
REMARK VINA RESULT:      -7.0      5.946      8.305
REMARK  6 active torsions:
REMARK  status: ('A' for Active; 'I' for Inactive)
REMARK    1  A    between atoms: C_2  and  C_3 
REMARK    2  A    between atoms: C_3  and  C_4 
REMARK    3  A    between atoms: C_4  and  N_5 
REMARK       I    between atoms: N_5  and  C_6 
REMARK       I    between atoms: C_6  and  N_7 
REMARK    4  A    between atoms: N_7  and  C_8 
REMARK    5  A    between atoms: N_11  and  C_12 
REMARK    6  A    between atoms: C_15  and  O_16 
ROOT
HETATM    1  C   UNL     1      18.426  46.952  47.641  1.00  0.00     0.123 C 
HETATM    2  C   UNL     1      19.533  47.650  48.343  1.00  0.00     0.009 A 
HETATM    3  C   UNL     1      20.880  47.405  48.141  1.00  0.00     0.047 A 
HETATM    4  N   UNL     1      21.570  48.389  48.847  1.00  0.00    -0.238 N 
HETATM    5  N   UNL     1      20.695  49.144  49.577  1.00  0.00    -0.179 NA
HETATM    6  C   UNL     1      19.484  48.705  49.256  1.00  0.00     0.150 A 
HETATM    7  C   UNL     1      21.423  46.317  47.274  1.00  0.00     0.069 C 
HETATM    8  C   UNL     1      20.323  45.623  46.402  1.00  0.00    -0.040 C 
HETATM    9  C   UNL     1      20.754  44.161  46.147  1.00  0.00     0.015 C 
HETATM   10  C   UNL     1      20.241  46.322  45.029  1.00  0.00     0.015 C 
HETATM   11  C   UNL     1      18.921  45.598  47.093  1.00  0.00     0.039 C 
ENDROOT
BRANCH   1  12
HETATM   12  N   UNL     1      17.973  47.866  46.608  1.00  0.00    -0.334 N 
HETATM   13  C   UNL     1      17.121  48.911  46.640  1.00  0.00     0.316 C 
HETATM   14  N   UNL     1      16.425  49.109  47.790  1.00  0.00    -0.343 N 
HETATM   15  O   UNL     1      17.010  49.613  45.642  1.00  0.00    -0.247 OA
HETATM   16  H   UNL     1      16.763  48.653  48.619  1.00  0.00     0.164 HD
HETATM   17  H   UNL     1      18.415  47.789  45.699  1.00  0.00     0.165 HD
BRANCH  14  18
HETATM   18  C   UNL     1      15.629  50.305  47.988  1.00  0.00     0.124 C 
BRANCH  18  19
HETATM   19  C   UNL     1      16.234  51.363  48.916  1.00  0.00     0.019 C 
BRANCH  19  20
HETATM   20  C   UNL     1      17.141  52.387  48.230  1.00  0.00    -0.003 C 
HETATM   21  C   UNL     1      18.611  52.254  48.590  1.00  0.00     0.005 C 
ENDBRANCH  19  20
ENDBRANCH  18  19
ENDBRANCH  14  18
ENDBRANCH   1  12
BRANCH   4  22
HETATM   22  C   UNL     1      22.953  48.751  48.858  1.00  0.00     0.058 A 
HETATM   23  C   UNL     1      23.362  49.846  48.077  1.00  0.00     0.034 A 
HETATM   24  C   UNL     1      24.714  50.181  47.961  1.00  0.00     0.039 A 
HETATM   25  C   UNL     1      25.685  49.437  48.626  1.00  0.00     0.068 A 
HETATM   26  C   UNL     1      25.285  48.388  49.452  1.00  0.00     0.039 A 
HETATM   27  C   UNL     1      23.927  48.048  49.572  1.00  0.00     0.034 A 
BRANCH  25  28
HETATM   28  O   UNL     1      26.972  49.839  48.405  1.00  0.00    -0.356 OA
HETATM   29  C   UNL     1      27.983  49.148  49.128  1.00  0.00     0.210 C 
ENDBRANCH  25  28
ENDBRANCH   4  22
TORSDOF 6
ENDMDL
