MODEL 1
REMARK VINA RESULT:      -8.2      0.000      0.000
REMARK  11 active torsions:
REMARK  status: ('A' for Active; 'I' for Inactive)
REMARK    1  A    between atoms: O_2  and  C_3 
REMARK    2  A    between atoms: C_6  and  C_7 
REMARK    3  A    between atoms: C_7  and  C_8 
REMARK       I    between atoms: C_8  and  N_9 
REMARK    4  A    between atoms: N_9  and  C_10 
REMARK    5  A    between atoms: C_10  and  N_11 
REMARK    6  A    between atoms: N_11  and  C_12 
REMARK    7  A    between atoms: C_13  and  C_14 
REMARK       I    between atoms: C_14  and  N_15 
REMARK    8  A    between atoms: N_15  and  C_16 
REMARK    9  A    between atoms: C_16  and  C_17 
REMARK   10  A    between atoms: C_17  and  C_18 
REMARK   11  A    between atoms: C_18  and  O_19 
ROOT
HETATM    1  N   UNL     1      26.015  43.447  50.756  1.00  0.00    -0.332 N 
HETATM    2  H   UNL     1      25.215  43.400  50.119  1.00  0.00     0.168 HD
ENDROOT
BRANCH   1   3
HETATM    3  C   UNL     1      26.642  42.219  50.873  1.00  0.00     0.178 C 
HETATM    4  S   UNL     1      26.101  40.705  50.424  1.00  0.00    -0.040 SA
BRANCH   3   5
HETATM    5  N   UNL     1      27.933  42.277  51.381  1.00  0.00    -0.303 N 
HETATM    6  C   UNL     1      28.378  41.843  52.623  1.00  0.00     0.228 C 
HETATM    7  O   UNL     1      27.719  41.094  53.345  1.00  0.00    -0.273 OA
HETATM    8  H   UNL     1      28.521  42.940  50.887  1.00  0.00     0.171 HD
BRANCH   6   9
HETATM    9  C   UNL     1      29.769  42.312  53.007  1.00  0.00     0.141 C 
BRANCH   9  10
HETATM   10  C   UNL     1      29.839  43.354  54.103  1.00  0.00    -0.049 A 
HETATM   11  C   UNL     1      28.924  44.412  54.207  1.00  0.00     0.010 A 
HETATM   12  C   UNL     1      29.016  45.343  55.250  1.00  0.00     0.037 A 
HETATM   13  C   UNL     1      30.002  45.211  56.226  1.00  0.00     0.068 A 
HETATM   14  C   UNL     1      30.888  44.136  56.153  1.00  0.00     0.037 A 
HETATM   15  C   UNL     1      30.810  43.216  55.105  1.00  0.00     0.010 A 
BRANCH  13  16
HETATM   16  O   UNL     1      30.195  46.040  57.295  1.00  0.00    -0.356 OA
HETATM   17  C   UNL     1      30.550  45.428  58.529  1.00  0.00     0.210 C 
ENDBRANCH  13  16
ENDBRANCH   9  10
ENDBRANCH   6   9
ENDBRANCH   3   5
ENDBRANCH   1   3
BRANCH   1  18
HETATM   18  C   UNL     1      25.911  44.470  51.733  1.00  0.00     0.050 A 
HETATM   19  C   UNL     1      26.237  45.828  51.569  1.00  0.00     0.058 A 
HETATM   20  C   UNL     1      26.164  46.695  52.676  1.00  0.00     0.019 A 
HETATM   21  C   UNL     1      25.719  46.242  53.917  1.00  0.00     0.001 A 
HETATM   22  C   UNL     1      25.321  44.919  54.061  1.00  0.00     0.002 A 
HETATM   23  C   UNL     1      25.408  44.045  52.976  1.00  0.00     0.030 A 
BRANCH  19  24
HETATM   24  C   UNL     1      26.503  46.501  50.268  1.00  0.00     0.253 C 
HETATM   25  N   UNL     1      26.137  47.829  50.184  1.00  0.00    -0.357 N 
HETATM   26  H   UNL     1      25.681  48.261  50.977  1.00  0.00     0.162 HD
HETATM   27  O   UNL     1      27.112  45.914  49.380  1.00  0.00    -0.268 OA
BRANCH  25  28
HETATM   28  C   UNL     1      26.416  48.624  49.007  1.00  0.00     0.125 C 
BRANCH  28  29
HETATM   29  C   UNL     1      25.324  49.644  48.699  1.00  0.00     0.046 C 
BRANCH  29  30
HETATM   30  C   UNL     1      23.922  49.047  48.656  1.00  0.00     0.165 C 
BRANCH  30  31
HETATM   31  O   UNL     1      23.455  48.850  49.989  1.00  0.00    -0.401 OA
HETATM   32  H   UNL     1      23.715  47.951  50.253  1.00  0.00     0.209 HD
ENDBRANCH  30  31
ENDBRANCH  29  30
ENDBRANCH  28  29
ENDBRANCH  25  28
ENDBRANCH  19  24
ENDBRANCH   1  18
TORSDOF 11
ENDMDL
MODEL 2
REMARK VINA RESULT:      -7.9      2.535      4.610
REMARK  11 active torsions:
REMARK  status: ('A' for Active; 'I' for Inactive)
REMARK    1  A    between atoms: O_2  and  C_3 
REMARK    2  A    between atoms: C_6  and  C_7 
REMARK    3  A    between atoms: C_7  and  C_8 
REMARK       I    between atoms: C_8  and  N_9 
REMARK    4  A    between atoms: N_9  and  C_10 
REMARK    5  A    between atoms: C_10  and  N_11 
REMARK    6  A    between atoms: N_11  and  C_12 
REMARK    7  A    between atoms: C_13  and  C_14 
REMARK       I    between atoms: C_14  and  N_15 
REMARK    8  A    between atoms: N_15  and  C_16 
REMARK    9  A    between atoms: C_16  and  C_17 
REMARK   10  A    between atoms: C_17  and  C_18 
REMARK   11  A    between atoms: C_18  and  O_19 
ROOT
HETATM    1  N   UNL     1      24.325  47.116  50.462  1.00  0.00    -0.332 N 
HETATM    2  H   UNL     1      23.997  47.431  51.379  1.00  0.00     0.168 HD
ENDROOT
BRANCH   1   3
HETATM    3  C   UNL     1      24.678  45.777  50.483  1.00  0.00     0.178 C 
HETATM    4  S   UNL     1      25.029  44.754  49.212  1.00  0.00    -0.040 SA
BRANCH   3   5
HETATM    5  N   UNL     1      24.818  45.238  51.755  1.00  0.00    -0.303 N 
HETATM    6  C   UNL     1      25.506  45.776  52.834  1.00  0.00     0.228 C 
HETATM    7  O   UNL     1      25.865  46.953  52.879  1.00  0.00    -0.273 OA
HETATM    8  H   UNL     1      24.619  44.244  51.785  1.00  0.00     0.171 HD
BRANCH   6   9
HETATM    9  C   UNL     1      25.736  44.820  53.990  1.00  0.00     0.141 C 
BRANCH   9  10
HETATM   10  C   UNL     1      27.177  44.611  54.404  1.00  0.00    -0.049 A 
HETATM   11  C   UNL     1      27.878  45.525  55.205  1.00  0.00     0.010 A 
HETATM   12  C   UNL     1      29.206  45.282  55.580  1.00  0.00     0.037 A 
HETATM   13  C   UNL     1      29.843  44.105  55.190  1.00  0.00     0.068 A 
HETATM   14  C   UNL     1      29.137  43.172  54.430  1.00  0.00     0.037 A 
HETATM   15  C   UNL     1      27.819  43.420  54.040  1.00  0.00     0.010 A 
BRANCH  13  16
HETATM   16  O   UNL     1      31.125  43.743  55.493  1.00  0.00    -0.356 OA
HETATM   17  C   UNL     1      31.392  43.390  56.845  1.00  0.00     0.210 C 
ENDBRANCH  13  16
ENDBRANCH   9  10
ENDBRANCH   6   9
ENDBRANCH   3   5
ENDBRANCH   1   3
BRANCH   1  18
HETATM   18  C   UNL     1      24.875  48.150  49.662  1.00  0.00     0.050 A 
HETATM   19  C   UNL     1      24.165  49.071  48.871  1.00  0.00     0.058 A 
HETATM   20  C   UNL     1      24.875  49.977  48.061  1.00  0.00     0.019 A 
HETATM   21  C   UNL     1      26.269  50.016  48.074  1.00  0.00     0.001 A 
HETATM   22  C   UNL     1      26.970  49.161  48.915  1.00  0.00     0.002 A 
HETATM   23  C   UNL     1      26.278  48.243  49.708  1.00  0.00     0.030 A 
BRANCH  19  24
HETATM   24  C   UNL     1      22.696  49.304  48.926  1.00  0.00     0.253 C 
HETATM   25  N   UNL     1      22.271  50.582  48.624  1.00  0.00    -0.357 N 
HETATM   26  H   UNL     1      22.963  51.292  48.422  1.00  0.00     0.162 HD
HETATM   27  O   UNL     1      21.928  48.369  49.123  1.00  0.00    -0.268 OA
BRANCH  25  28
HETATM   28  C   UNL     1      20.866  50.922  48.557  1.00  0.00     0.125 C 
BRANCH  28  29
HETATM   29  C   UNL     1      20.264  51.260  49.918  1.00  0.00     0.046 C 
BRANCH  29  30
HETATM   30  C   UNL     1      19.114  50.346  50.323  1.00  0.00     0.165 C 
BRANCH  30  31
HETATM   31  O   UNL     1      19.636  49.075  50.702  1.00  0.00    -0.401 OA
HETATM   32  H   UNL     1      20.338  48.852  50.068  1.00  0.00     0.209 HD
ENDBRANCH  30  31
ENDBRANCH  29  30
ENDBRANCH  28  29
ENDBRANCH  25  28
ENDBRANCH  19  24
ENDBRANCH   1  18
TORSDOF 11
ENDMDL
MODEL 3
REMARK VINA RESULT:      -7.8      1.903      2.130
REMARK  11 active torsions:
REMARK  status: ('A' for Active; 'I' for Inactive)
REMARK    1  A    between atoms: O_2  and  C_3 
REMARK    2  A    between atoms: C_6  and  C_7 
REMARK    3  A    between atoms: C_7  and  C_8 
REMARK       I    between atoms: C_8  and  N_9 
REMARK    4  A    between atoms: N_9  and  C_10 
REMARK    5  A    between atoms: C_10  and  N_11 
REMARK    6  A    between atoms: N_11  and  C_12 
REMARK    7  A    between atoms: C_13  and  C_14 
REMARK       I    between atoms: C_14  and  N_15 
REMARK    8  A    between atoms: N_15  and  C_16 
REMARK    9  A    between atoms: C_16  and  C_17 
REMARK   10  A    between atoms: C_17  and  C_18 
REMARK   11  A    between atoms: C_18  and  O_19 
ROOT
HETATM    1  N   UNL     1      25.433  42.992  52.141  1.00  0.00    -0.332 N 
HETATM    2  H   UNL     1      25.114  42.412  52.922  1.00  0.00     0.168 HD
ENDROOT
BRANCH   1   3
HETATM    3  C   UNL     1      26.278  42.288  51.301  1.00  0.00     0.178 C 
HETATM    4  S   UNL     1      25.923  41.438  49.909  1.00  0.00    -0.040 SA
BRANCH   3   5
HETATM    5  N   UNL     1      27.622  42.361  51.642  1.00  0.00    -0.303 N 
HETATM    6  C   UNL     1      28.234  41.878  52.791  1.00  0.00     0.228 C 
HETATM    7  O   UNL     1      27.693  41.072  53.548  1.00  0.00    -0.273 OA
HETATM    8  H   UNL     1      28.124  43.067  51.115  1.00  0.00     0.171 HD
BRANCH   6   9
HETATM    9  C   UNL     1      29.651  42.371  53.020  1.00  0.00     0.141 C 
BRANCH   9  10
HETATM   10  C   UNL     1      29.830  43.389  54.126  1.00  0.00    -0.049 A 
HETATM   11  C   UNL     1      29.014  44.523  54.254  1.00  0.00     0.010 A 
HETATM   12  C   UNL     1      29.203  45.430  55.305  1.00  0.00     0.037 A 
HETATM   13  C   UNL     1      30.187  45.199  56.265  1.00  0.00     0.068 A 
HETATM   14  C   UNL     1      30.972  44.050  56.168  1.00  0.00     0.037 A 
HETATM   15  C   UNL     1      30.798  43.153  55.111  1.00  0.00     0.010 A 
BRANCH  13  16
HETATM   16  O   UNL     1      30.468  45.995  57.340  1.00  0.00    -0.356 OA
HETATM   17  C   UNL     1      30.276  45.427  58.629  1.00  0.00     0.210 C 
ENDBRANCH  13  16
ENDBRANCH   9  10
ENDBRANCH   6   9
ENDBRANCH   3   5
ENDBRANCH   1   3
BRANCH   1  18
HETATM   18  C   UNL     1      25.443  44.382  52.424  1.00  0.00     0.050 A 
HETATM   19  C   UNL     1      25.280  45.431  51.502  1.00  0.00     0.058 A 
HETATM   20  C   UNL     1      25.413  46.762  51.939  1.00  0.00     0.019 A 
HETATM   21  C   UNL     1      25.647  47.059  53.281  1.00  0.00     0.001 A 
HETATM   22  C   UNL     1      25.730  46.027  54.207  1.00  0.00     0.002 A 
HETATM   23  C   UNL     1      25.620  44.702  53.783  1.00  0.00     0.030 A 
BRANCH  19  24
HETATM   24  C   UNL     1      24.803  45.280  50.100  1.00  0.00     0.253 C 
HETATM   25  N   UNL     1      23.437  45.349  49.911  1.00  0.00    -0.357 N 
HETATM   26  H   UNL     1      22.838  45.457  50.719  1.00  0.00     0.162 HD
HETATM   27  O   UNL     1      25.606  45.211  49.177  1.00  0.00    -0.268 OA
BRANCH  25  28
HETATM   28  C   UNL     1      22.846  45.304  48.591  1.00  0.00     0.125 C 
BRANCH  28  29
HETATM   29  C   UNL     1      21.783  46.377  48.372  1.00  0.00     0.046 C 
BRANCH  29  30
HETATM   30  C   UNL     1      20.356  45.860  48.500  1.00  0.00     0.165 C 
BRANCH  30  31
HETATM   31  O   UNL     1      20.285  44.944  49.591  1.00  0.00    -0.401 OA
HETATM   32  H   UNL     1      21.185  44.851  49.946  1.00  0.00     0.209 HD
ENDBRANCH  30  31
ENDBRANCH  29  30
ENDBRANCH  28  29
ENDBRANCH  25  28
ENDBRANCH  19  24
ENDBRANCH   1  18
TORSDOF 11
ENDMDL
MODEL 4
REMARK VINA RESULT:      -7.6      2.590      7.930
REMARK  11 active torsions:
REMARK  status: ('A' for Active; 'I' for Inactive)
REMARK    1  A    between atoms: O_2  and  C_3 
REMARK    2  A    between atoms: C_6  and  C_7 
REMARK    3  A    between atoms: C_7  and  C_8 
REMARK       I    between atoms: C_8  and  N_9 
REMARK    4  A    between atoms: N_9  and  C_10 
REMARK    5  A    between atoms: C_10  and  N_11 
REMARK    6  A    between atoms: N_11  and  C_12 
REMARK    7  A    between atoms: C_13  and  C_14 
REMARK       I    between atoms: C_14  and  N_15 
REMARK    8  A    between atoms: N_15  and  C_16 
REMARK    9  A    between atoms: C_16  and  C_17 
REMARK   10  A    between atoms: C_17  and  C_18 
REMARK   11  A    between atoms: C_18  and  O_19 
ROOT
HETATM    1  N   UNL     1      25.865  43.249  52.683  1.00  0.00    -0.332 N 
HETATM    2  H   UNL     1      25.265  42.563  53.149  1.00  0.00     0.168 HD
ENDROOT
BRANCH   1   3
HETATM    3  C   UNL     1      25.255  43.772  51.555  1.00  0.00     0.178 C 
HETATM    4  S   UNL     1      24.196  43.045  50.489  1.00  0.00    -0.040 SA
BRANCH   3   5
HETATM    5  N   UNL     1      25.521  45.115  51.326  1.00  0.00    -0.303 N 
HETATM    6  C   UNL     1      26.468  45.659  50.468  1.00  0.00     0.228 C 
HETATM    7  O   UNL     1      27.024  45.005  49.585  1.00  0.00    -0.273 OA
HETATM    8  H   UNL     1      25.164  45.718  52.060  1.00  0.00     0.171 HD
BRANCH   6   9
HETATM    9  C   UNL     1      26.730  47.141  50.657  1.00  0.00     0.141 C 
BRANCH   9  10
HETATM   10  C   UNL     1      25.953  48.074  49.752  1.00  0.00    -0.049 A 
HETATM   11  C   UNL     1      26.571  49.055  48.962  1.00  0.00     0.010 A 
HETATM   12  C   UNL     1      25.813  49.884  48.124  1.00  0.00     0.037 A 
HETATM   13  C   UNL     1      24.432  49.723  48.035  1.00  0.00     0.068 A 
HETATM   14  C   UNL     1      23.817  48.720  48.786  1.00  0.00     0.037 A 
HETATM   15  C   UNL     1      24.567  47.903  49.636  1.00  0.00     0.010 A 
BRANCH  13  16
HETATM   16  O   UNL     1      23.582  50.455  47.255  1.00  0.00    -0.356 OA
HETATM   17  C   UNL     1      22.206  50.442  47.613  1.00  0.00     0.210 C 
ENDBRANCH  13  16
ENDBRANCH   9  10
ENDBRANCH   6   9
ENDBRANCH   3   5
ENDBRANCH   1   3
BRANCH   1  18
HETATM   18  C   UNL     1      27.251  43.050  52.912  1.00  0.00     0.050 A 
HETATM   19  C   UNL     1      28.048  42.011  52.400  1.00  0.00     0.058 A 
HETATM   20  C   UNL     1      29.393  41.908  52.805  1.00  0.00     0.019 A 
HETATM   21  C   UNL     1      29.961  42.852  53.659  1.00  0.00     0.001 A 
HETATM   22  C   UNL     1      29.197  43.923  54.103  1.00  0.00     0.002 A 
HETATM   23  C   UNL     1      27.856  44.025  53.724  1.00  0.00     0.030 A 
BRANCH  19  24
HETATM   24  C   UNL     1      27.652  41.074  51.313  1.00  0.00     0.253 C 
HETATM   25  N   UNL     1      28.647  40.719  50.423  1.00  0.00    -0.357 N 
HETATM   26  H   UNL     1      29.564  41.133  50.527  1.00  0.00     0.162 HD
HETATM   27  O   UNL     1      26.531  40.579  51.300  1.00  0.00    -0.268 OA
BRANCH  25  28
HETATM   28  C   UNL     1      28.420  39.752  49.372  1.00  0.00     0.125 C 
BRANCH  28  29
HETATM   29  C   UNL     1      28.572  38.308  49.841  1.00  0.00     0.046 C 
BRANCH  29  30
HETATM   30  C   UNL     1      27.392  37.417  49.474  1.00  0.00     0.165 C 
BRANCH  30  31
HETATM   31  O   UNL     1      26.286  37.732  50.318  1.00  0.00    -0.401 OA
HETATM   32  H   UNL     1      26.408  38.647  50.620  1.00  0.00     0.209 HD
ENDBRANCH  30  31
ENDBRANCH  29  30
ENDBRANCH  28  29
ENDBRANCH  25  28
ENDBRANCH  19  24
ENDBRANCH   1  18
TORSDOF 11
ENDMDL
MODEL 5
REMARK VINA RESULT:      -7.3      2.617      4.445
REMARK  11 active torsions:
REMARK  status: ('A' for Active; 'I' for Inactive)
REMARK    1  A    between atoms: O_2  and  C_3 
REMARK    2  A    between atoms: C_6  and  C_7 
REMARK    3  A    between atoms: C_7  and  C_8 
REMARK       I    between atoms: C_8  and  N_9 
REMARK    4  A    between atoms: N_9  and  C_10 
REMARK    5  A    between atoms: C_10  and  N_11 
REMARK    6  A    between atoms: N_11  and  C_12 
REMARK    7  A    between atoms: C_13  and  C_14 
REMARK       I    between atoms: C_14  and  N_15 
REMARK    8  A    between atoms: N_15  and  C_16 
REMARK    9  A    between atoms: C_16  and  C_17 
REMARK   10  A    between atoms: C_17  and  C_18 
REMARK   11  A    between atoms: C_18  and  O_19 
ROOT
HETATM    1  N   UNL     1      25.190  46.714  50.246  1.00  0.00    -0.332 N 
HETATM    2  H   UNL     1      24.263  46.300  50.122  1.00  0.00     0.168 HD
ENDROOT
BRANCH   1   3
HETATM    3  C   UNL     1      25.763  46.322  51.443  1.00  0.00     0.178 C 
HETATM    4  S   UNL     1      25.761  47.095  52.923  1.00  0.00    -0.040 SA
BRANCH   3   5
HETATM    5  N   UNL     1      26.370  45.073  51.411  1.00  0.00    -0.303 N 
HETATM    6  C   UNL     1      25.850  43.865  51.856  1.00  0.00     0.228 C 
HETATM    7  O   UNL     1      24.655  43.700  52.099  1.00  0.00    -0.273 OA
HETATM    8  H   UNL     1      27.376  45.127  51.297  1.00  0.00     0.171 HD
BRANCH   6   9
HETATM    9  C   UNL     1      26.856  42.735  51.967  1.00  0.00     0.141 C 
BRANCH   9  10
HETATM   10  C   UNL     1      28.023  42.972  52.903  1.00  0.00    -0.049 A 
HETATM   11  C   UNL     1      29.332  42.569  52.603  1.00  0.00     0.010 A 
HETATM   12  C   UNL     1      30.385  42.827  53.491  1.00  0.00     0.037 A 
HETATM   13  C   UNL     1      30.153  43.524  54.675  1.00  0.00     0.068 A 
HETATM   14  C   UNL     1      28.860  43.967  54.958  1.00  0.00     0.037 A 
HETATM   15  C   UNL     1      27.805  43.695  54.083  1.00  0.00     0.010 A 
BRANCH  13  16
HETATM   16  O   UNL     1      31.087  43.847  55.618  1.00  0.00    -0.356 OA
HETATM   17  C   UNL     1      30.690  44.764  56.630  1.00  0.00     0.210 C 
ENDBRANCH  13  16
ENDBRANCH   9  10
ENDBRANCH   6   9
ENDBRANCH   3   5
ENDBRANCH   1   3
BRANCH   1  18
HETATM   18  C   UNL     1      25.370  47.937  49.552  1.00  0.00     0.050 A 
HETATM   19  C   UNL     1      24.364  48.745  48.992  1.00  0.00     0.058 A 
HETATM   20  C   UNL     1      24.726  49.885  48.251  1.00  0.00     0.019 A 
HETATM   21  C   UNL     1      26.062  50.260  48.112  1.00  0.00     0.001 A 
HETATM   22  C   UNL     1      27.052  49.508  48.730  1.00  0.00     0.002 A 
HETATM   23  C   UNL     1      26.708  48.363  49.451  1.00  0.00     0.030 A 
BRANCH  19  24
HETATM   24  C   UNL     1      22.904  48.605  49.247  1.00  0.00     0.253 C 
HETATM   25  N   UNL     1      22.241  49.754  49.627  1.00  0.00    -0.357 N 
HETATM   26  H   UNL     1      22.772  50.607  49.749  1.00  0.00     0.162 HD
HETATM   27  O   UNL     1      22.334  47.544  49.019  1.00  0.00    -0.268 OA
BRANCH  25  28
HETATM   28  C   UNL     1      20.807  49.778  49.824  1.00  0.00     0.125 C 
BRANCH  28  29
HETATM   29  C   UNL     1      20.222  51.187  49.809  1.00  0.00     0.046 C 
BRANCH  29  30
HETATM   30  C   UNL     1      20.157  51.809  48.420  1.00  0.00     0.165 C 
BRANCH  30  31
HETATM   31  O   UNL     1      20.217  50.775  47.439  1.00  0.00    -0.401 OA
HETATM   32  H   UNL     1      19.415  50.850  46.895  1.00  0.00     0.209 HD
ENDBRANCH  30  31
ENDBRANCH  29  30
ENDBRANCH  28  29
ENDBRANCH  25  28
ENDBRANCH  19  24
ENDBRANCH   1  18
TORSDOF 11
ENDMDL
MODEL 6
REMARK VINA RESULT:      -7.3      2.049      3.057
REMARK  11 active torsions:
REMARK  status: ('A' for Active; 'I' for Inactive)
REMARK    1  A    between atoms: O_2  and  C_3 
REMARK    2  A    between atoms: C_6  and  C_7 
REMARK    3  A    between atoms: C_7  and  C_8 
REMARK       I    between atoms: C_8  and  N_9 
REMARK    4  A    between atoms: N_9  and  C_10 
REMARK    5  A    between atoms: C_10  and  N_11 
REMARK    6  A    between atoms: N_11  and  C_12 
REMARK    7  A    between atoms: C_13  and  C_14 
REMARK       I    between atoms: C_14  and  N_15 
REMARK    8  A    between atoms: N_15  and  C_16 
REMARK    9  A    between atoms: C_16  and  C_17 
REMARK   10  A    between atoms: C_17  and  C_18 
REMARK   11  A    between atoms: C_18  and  O_19 
ROOT
HETATM    1  N   UNL     1      27.260  42.116  48.870  1.00  0.00    -0.332 N 
HETATM    2  H   UNL     1      27.701  42.610  48.089  1.00  0.00     0.168 HD
ENDROOT
BRANCH   1   3
HETATM    3  C   UNL     1      27.895  40.914  49.132  1.00  0.00     0.178 C 
HETATM    4  S   UNL     1      28.018  39.550  48.179  1.00  0.00    -0.040 SA
BRANCH   3   5
HETATM    5  N   UNL     1      28.579  40.875  50.340  1.00  0.00    -0.303 N 
HETATM    6  C   UNL     1      28.063  41.070  51.615  1.00  0.00     0.228 C 
HETATM    7  O   UNL     1      26.857  41.041  51.859  1.00  0.00    -0.273 OA
HETATM    8  H   UNL     1      29.582  40.978  50.228  1.00  0.00     0.171 HD
BRANCH   6   9
HETATM    9  C   UNL     1      29.100  41.266  52.704  1.00  0.00     0.141 C 
BRANCH   9  10
HETATM   10  C   UNL     1      29.037  42.580  53.454  1.00  0.00    -0.049 A 
HETATM   11  C   UNL     1      28.036  43.536  53.228  1.00  0.00     0.010 A 
HETATM   12  C   UNL     1      28.004  44.731  53.960  1.00  0.00     0.037 A 
HETATM   13  C   UNL     1      28.951  44.972  54.954  1.00  0.00     0.068 A 
HETATM   14  C   UNL     1      29.922  44.005  55.214  1.00  0.00     0.037 A 
HETATM   15  C   UNL     1      29.967  42.821  54.474  1.00  0.00     0.010 A 
BRANCH  13  16
HETATM   16  O   UNL     1      29.027  46.086  55.742  1.00  0.00    -0.356 OA
HETATM   17  C   UNL     1      29.725  45.956  56.974  1.00  0.00     0.210 C 
ENDBRANCH  13  16
ENDBRANCH   9  10
ENDBRANCH   6   9
ENDBRANCH   3   5
ENDBRANCH   1   3
BRANCH   1  18
HETATM   18  C   UNL     1      25.890  42.436  49.051  1.00  0.00     0.050 A 
HETATM   19  C   UNL     1      25.367  43.622  49.596  1.00  0.00     0.058 A 
HETATM   20  C   UNL     1      23.978  43.738  49.793  1.00  0.00     0.019 A 
HETATM   21  C   UNL     1      23.108  42.721  49.404  1.00  0.00     0.001 A 
HETATM   22  C   UNL     1      23.615  41.582  48.792  1.00  0.00     0.002 A 
HETATM   23  C   UNL     1      24.993  41.446  48.610  1.00  0.00     0.030 A 
BRANCH  19  24
HETATM   24  C   UNL     1      26.138  44.872  49.843  1.00  0.00     0.253 C 
HETATM   25  N   UNL     1      25.438  45.914  50.418  1.00  0.00    -0.357 N 
HETATM   26  H   UNL     1      24.451  45.795  50.603  1.00  0.00     0.162 HD
HETATM   27  O   UNL     1      27.346  44.904  49.639  1.00  0.00    -0.268 OA
BRANCH  25  28
HETATM   28  C   UNL     1      26.086  47.153  50.789  1.00  0.00     0.125 C 
BRANCH  28  29
HETATM   29  C   UNL     1      26.173  48.153  49.640  1.00  0.00     0.046 C 
BRANCH  29  30
HETATM   30  C   UNL     1      27.597  48.571  49.297  1.00  0.00     0.165 C 
BRANCH  30  31
HETATM   31  O   UNL     1      28.224  47.530  48.550  1.00  0.00    -0.401 OA
HETATM   32  H   UNL     1      29.182  47.613  48.691  1.00  0.00     0.209 HD
ENDBRANCH  30  31
ENDBRANCH  29  30
ENDBRANCH  28  29
ENDBRANCH  25  28
ENDBRANCH  19  24
ENDBRANCH   1  18
TORSDOF 11
ENDMDL
MODEL 7
REMARK VINA RESULT:      -7.2      2.146      8.333
REMARK  11 active torsions:
REMARK  status: ('A' for Active; 'I' for Inactive)
REMARK    1  A    between atoms: O_2  and  C_3 
REMARK    2  A    between atoms: C_6  and  C_7 
REMARK    3  A    between atoms: C_7  and  C_8 
REMARK       I    between atoms: C_8  and  N_9 
REMARK    4  A    between atoms: N_9  and  C_10 
REMARK    5  A    between atoms: C_10  and  N_11 
REMARK    6  A    between atoms: N_11  and  C_12 
REMARK    7  A    between atoms: C_13  and  C_14 
REMARK       I    between atoms: C_14  and  N_15 
REMARK    8  A    between atoms: N_15  and  C_16 
REMARK    9  A    between atoms: C_16  and  C_17 
REMARK   10  A    between atoms: C_17  and  C_18 
REMARK   11  A    between atoms: C_18  and  O_19 
ROOT
HETATM    1  N   UNL     1      26.390  44.348  52.835  1.00  0.00    -0.332 N 
HETATM    2  H   UNL     1      25.725  44.225  53.604  1.00  0.00     0.168 HD
ENDROOT
BRANCH   1   3
HETATM    3  C   UNL     1      25.738  44.535  51.628  1.00  0.00     0.178 C 
HETATM    4  S   UNL     1      24.458  43.689  50.972  1.00  0.00    -0.040 SA
BRANCH   3   5
HETATM    5  N   UNL     1      26.184  45.627  50.895  1.00  0.00    -0.303 N 
HETATM    6  C   UNL     1      26.013  46.974  51.189  1.00  0.00     0.228 C 
HETATM    7  O   UNL     1      25.666  47.377  52.299  1.00  0.00    -0.273 OA
HETATM    8  H   UNL     1      26.413  45.391  49.936  1.00  0.00     0.171 HD
BRANCH   6   9
HETATM    9  C   UNL     1      26.344  47.926  50.055  1.00  0.00     0.141 C 
BRANCH   9  10
HETATM   10  C   UNL     1      25.161  48.562  49.356  1.00  0.00    -0.049 A 
HETATM   11  C   UNL     1      25.273  49.726  48.581  1.00  0.00     0.010 A 
HETATM   12  C   UNL     1      24.155  50.271  47.936  1.00  0.00     0.037 A 
HETATM   13  C   UNL     1      22.915  49.641  48.024  1.00  0.00     0.068 A 
HETATM   14  C   UNL     1      22.807  48.458  48.757  1.00  0.00     0.037 A 
HETATM   15  C   UNL     1      23.916  47.922  49.416  1.00  0.00     0.010 A 
BRANCH  13  16
HETATM   16  O   UNL     1      21.753  50.059  47.439  1.00  0.00    -0.356 OA
HETATM   17  C   UNL     1      20.542  49.528  47.960  1.00  0.00     0.210 C 
ENDBRANCH  13  16
ENDBRANCH   9  10
ENDBRANCH   6   9
ENDBRANCH   3   5
ENDBRANCH   1   3
BRANCH   1  18
HETATM   18  C   UNL     1      27.649  43.735  53.061  1.00  0.00     0.050 A 
HETATM   19  C   UNL     1      28.663  44.187  53.925  1.00  0.00     0.058 A 
HETATM   20  C   UNL     1      29.895  43.507  53.959  1.00  0.00     0.019 A 
HETATM   21  C   UNL     1      30.106  42.361  53.194  1.00  0.00     0.001 A 
HETATM   22  C   UNL     1      29.079  41.868  52.400  1.00  0.00     0.002 A 
HETATM   23  C   UNL     1      27.859  42.545  52.342  1.00  0.00     0.030 A 
BRANCH  19  24
HETATM   24  C   UNL     1      28.506  45.245  54.961  1.00  0.00     0.253 C 
HETATM   25  N   UNL     1      29.270  45.097  56.101  1.00  0.00    -0.357 N 
HETATM   26  H   UNL     1      29.857  44.278  56.193  1.00  0.00     0.162 HD
HETATM   27  O   UNL     1      27.815  46.232  54.738  1.00  0.00    -0.268 OA
BRANCH  25  28
HETATM   28  C   UNL     1      29.279  46.096  57.148  1.00  0.00     0.125 C 
BRANCH  28  29
HETATM   29  C   UNL     1      30.552  46.074  57.989  1.00  0.00     0.046 C 
BRANCH  29  30
HETATM   30  C   UNL     1      31.019  44.671  58.357  1.00  0.00     0.165 C 
BRANCH  30  31
HETATM   31  O   UNL     1      31.680  44.088  57.236  1.00  0.00    -0.401 OA
HETATM   32  H   UNL     1      31.386  44.573  56.446  1.00  0.00     0.209 HD
ENDBRANCH  30  31
ENDBRANCH  29  30
ENDBRANCH  28  29
ENDBRANCH  25  28
ENDBRANCH  19  24
ENDBRANCH   1  18
TORSDOF 11
ENDMDL
MODEL 8
REMARK VINA RESULT:      -7.2      4.590     10.702
REMARK  11 active torsions:
REMARK  status: ('A' for Active; 'I' for Inactive)
REMARK    1  A    between atoms: O_2  and  C_3 
REMARK    2  A    between atoms: C_6  and  C_7 
REMARK    3  A    between atoms: C_7  and  C_8 
REMARK       I    between atoms: C_8  and  N_9 
REMARK    4  A    between atoms: N_9  and  C_10 
REMARK    5  A    between atoms: C_10  and  N_11 
REMARK    6  A    between atoms: N_11  and  C_12 
REMARK    7  A    between atoms: C_13  and  C_14 
REMARK       I    between atoms: C_14  and  N_15 
REMARK    8  A    between atoms: N_15  and  C_16 
REMARK    9  A    between atoms: C_16  and  C_17 
REMARK   10  A    between atoms: C_17  and  C_18 
REMARK   11  A    between atoms: C_18  and  O_19 
ROOT
HETATM    1  N   UNL     1      23.491  48.171  49.882  1.00  0.00    -0.332 N 
HETATM    2  H   UNL     1      23.349  47.484  50.627  1.00  0.00     0.168 HD
ENDROOT
BRANCH   1   3
HETATM    3  C   UNL     1      22.389  48.249  49.048  1.00  0.00     0.178 C 
HETATM    4  S   UNL     1      22.026  47.357  47.684  1.00  0.00    -0.040 SA
BRANCH   3   5
HETATM    5  N   UNL     1      21.422  49.160  49.453  1.00  0.00    -0.303 N 
HETATM    6  C   UNL     1      21.619  50.439  49.958  1.00  0.00     0.228 C 
HETATM    7  O   UNL     1      22.690  51.038  49.862  1.00  0.00    -0.273 OA
HETATM    8  H   UNL     1      20.524  48.726  49.635  1.00  0.00     0.171 HD
BRANCH   6   9
HETATM    9  C   UNL     1      20.396  51.074  50.592  1.00  0.00     0.141 C 
BRANCH   9  10
HETATM   10  C   UNL     1      19.257  51.406  49.651  1.00  0.00    -0.049 A 
HETATM   11  C   UNL     1      19.421  52.210  48.513  1.00  0.00     0.010 A 
HETATM   12  C   UNL     1      18.342  52.475  47.659  1.00  0.00     0.037 A 
HETATM   13  C   UNL     1      17.092  51.912  47.908  1.00  0.00     0.068 A 
HETATM   14  C   UNL     1      16.934  51.075  49.013  1.00  0.00     0.037 A 
HETATM   15  C   UNL     1      18.003  50.823  49.877  1.00  0.00     0.010 A 
BRANCH  13  16
HETATM   16  O   UNL     1      15.965  52.082  47.153  1.00  0.00    -0.356 OA
HETATM   17  C   UNL     1      15.398  50.915  46.571  1.00  0.00     0.210 C 
ENDBRANCH  13  16
ENDBRANCH   9  10
ENDBRANCH   6   9
ENDBRANCH   3   5
ENDBRANCH   1   3
BRANCH   1  18
HETATM   18  C   UNL     1      24.853  48.384  49.549  1.00  0.00     0.050 A 
HETATM   19  C   UNL     1      25.952  47.606  49.956  1.00  0.00     0.058 A 
HETATM   20  C   UNL     1      27.254  48.014  49.611  1.00  0.00     0.019 A 
HETATM   21  C   UNL     1      27.469  49.145  48.824  1.00  0.00     0.001 A 
HETATM   22  C   UNL     1      26.381  49.870  48.355  1.00  0.00     0.002 A 
HETATM   23  C   UNL     1      25.085  49.487  48.707  1.00  0.00     0.030 A 
BRANCH  19  24
HETATM   24  C   UNL     1      25.869  46.263  50.595  1.00  0.00     0.253 C 
HETATM   25  N   UNL     1      26.689  45.287  50.066  1.00  0.00    -0.357 N 
HETATM   26  H   UNL     1      27.263  45.513  49.265  1.00  0.00     0.162 HD
HETATM   27  O   UNL     1      25.186  46.097  51.599  1.00  0.00    -0.268 OA
BRANCH  25  28
HETATM   28  C   UNL     1      26.770  43.964  50.646  1.00  0.00     0.125 C 
BRANCH  28  29
HETATM   29  C   UNL     1      25.913  42.934  49.915  1.00  0.00     0.046 C 
BRANCH  29  30
HETATM   30  C   UNL     1      24.665  42.519  50.684  1.00  0.00     0.165 C 
BRANCH  30  31
HETATM   31  O   UNL     1      24.586  43.272  51.893  1.00  0.00    -0.401 OA
HETATM   32  H   UNL     1      23.726  43.725  51.892  1.00  0.00     0.209 HD
ENDBRANCH  30  31
ENDBRANCH  29  30
ENDBRANCH  28  29
ENDBRANCH  25  28
ENDBRANCH  19  24
ENDBRANCH   1  18
TORSDOF 11
ENDMDL
MODEL 9
REMARK VINA RESULT:      -7.2     12.515     15.062
REMARK  11 active torsions:
REMARK  status: ('A' for Active; 'I' for Inactive)
REMARK    1  A    between atoms: O_2  and  C_3 
REMARK    2  A    between atoms: C_6  and  C_7 
REMARK    3  A    between atoms: C_7  and  C_8 
REMARK       I    between atoms: C_8  and  N_9 
REMARK    4  A    between atoms: N_9  and  C_10 
REMARK    5  A    between atoms: C_10  and  N_11 
REMARK    6  A    between atoms: N_11  and  C_12 
REMARK    7  A    between atoms: C_13  and  C_14 
REMARK       I    between atoms: C_14  and  N_15 
REMARK    8  A    between atoms: N_15  and  C_16 
REMARK    9  A    between atoms: C_16  and  C_17 
REMARK   10  A    between atoms: C_17  and  C_18 
REMARK   11  A    between atoms: C_18  and  O_19 
ROOT
HETATM    1  N   UNL     1      35.484  50.235  41.676  1.00  0.00    -0.332 N 
HETATM    2  H   UNL     1      36.302  49.994  42.241  1.00  0.00     0.168 HD
ENDROOT
BRANCH   1   3
HETATM    3  C   UNL     1      35.853  50.712  40.429  1.00  0.00     0.178 C 
HETATM    4  S   UNL     1      37.378  50.975  39.804  1.00  0.00    -0.040 SA
BRANCH   3   5
HETATM    5  N   UNL     1      34.792  50.941  39.562  1.00  0.00    -0.303 N 
HETATM    6  C   UNL     1      34.145  52.143  39.310  1.00  0.00     0.228 C 
HETATM    7  O   UNL     1      34.613  53.234  39.635  1.00  0.00    -0.273 OA
HETATM    8  H   UNL     1      34.299  50.090  39.311  1.00  0.00     0.171 HD
BRANCH   6   9
HETATM    9  C   UNL     1      32.838  52.022  38.549  1.00  0.00     0.141 C 
BRANCH   9  10
HETATM   10  C   UNL     1      31.576  52.228  39.359  1.00  0.00    -0.049 A 
HETATM   11  C   UNL     1      31.506  53.112  40.446  1.00  0.00     0.010 A 
HETATM   12  C   UNL     1      30.311  53.286  41.156  1.00  0.00     0.037 A 
HETATM   13  C   UNL     1      29.157  52.608  40.768  1.00  0.00     0.068 A 
HETATM   14  C   UNL     1      29.208  51.761  39.660  1.00  0.00     0.037 A 
HETATM   15  C   UNL     1      30.403  51.572  38.961  1.00  0.00     0.010 A 
BRANCH  13  16
HETATM   16  O   UNL     1      27.931  52.694  41.365  1.00  0.00    -0.356 OA
HETATM   17  C   UNL     1      27.082  51.558  41.261  1.00  0.00     0.210 C 
ENDBRANCH  13  16
ENDBRANCH   9  10
ENDBRANCH   6   9
ENDBRANCH   3   5
ENDBRANCH   1   3
BRANCH   1  18
HETATM   18  C   UNL     1      34.340  50.583  42.439  1.00  0.00     0.050 A 
HETATM   19  C   UNL     1      33.044  50.054  42.303  1.00  0.00     0.058 A 
HETATM   20  C   UNL     1      31.997  50.582  43.082  1.00  0.00     0.019 A 
HETATM   21  C   UNL     1      32.235  51.579  44.027  1.00  0.00     0.001 A 
HETATM   22  C   UNL     1      33.529  52.046  44.219  1.00  0.00     0.002 A 
HETATM   23  C   UNL     1      34.572  51.545  43.438  1.00  0.00     0.030 A 
BRANCH  19  24
HETATM   24  C   UNL     1      32.684  48.844  41.513  1.00  0.00     0.253 C 
HETATM   25  N   UNL     1      31.414  48.828  40.970  1.00  0.00    -0.357 N 
HETATM   26  H   UNL     1      30.791  49.602  41.163  1.00  0.00     0.162 HD
HETATM   27  O   UNL     1      33.524  47.982  41.284  1.00  0.00    -0.268 OA
BRANCH  25  28
HETATM   28  C   UNL     1      30.966  47.754  40.111  1.00  0.00     0.125 C 
BRANCH  28  29
HETATM   29  C   UNL     1      29.565  47.256  40.453  1.00  0.00     0.046 C 
BRANCH  29  30
HETATM   30  C   UNL     1      28.663  48.329  41.051  1.00  0.00     0.165 C 
BRANCH  30  31
HETATM   31  O   UNL     1      28.853  48.369  42.463  1.00  0.00    -0.401 OA
HETATM   32  H   UNL     1      27.975  48.472  42.867  1.00  0.00     0.209 HD
ENDBRANCH  30  31
ENDBRANCH  29  30
ENDBRANCH  28  29
ENDBRANCH  25  28
ENDBRANCH  19  24
ENDBRANCH   1  18
TORSDOF 11
ENDMDL
MODEL 10
REMARK VINA RESULT:      -7.1      2.342      2.908
REMARK  11 active torsions:
REMARK  status: ('A' for Active; 'I' for Inactive)
REMARK    1  A    between atoms: O_2  and  C_3 
REMARK    2  A    between atoms: C_6  and  C_7 
REMARK    3  A    between atoms: C_7  and  C_8 
REMARK       I    between atoms: C_8  and  N_9 
REMARK    4  A    between atoms: N_9  and  C_10 
REMARK    5  A    between atoms: C_10  and  N_11 
REMARK    6  A    between atoms: N_11  and  C_12 
REMARK    7  A    between atoms: C_13  and  C_14 
REMARK       I    between atoms: C_14  and  N_15 
REMARK    8  A    between atoms: N_15  and  C_16 
REMARK    9  A    between atoms: C_16  and  C_17 
REMARK   10  A    between atoms: C_17  and  C_18 
REMARK   11  A    between atoms: C_18  and  O_19 
ROOT
HETATM    1  N   UNL     1      25.805  42.760  51.634  1.00  0.00    -0.332 N 
HETATM    2  H   UNL     1      25.612  42.282  52.518  1.00  0.00     0.168 HD
ENDROOT
BRANCH   1   3
HETATM    3  C   UNL     1      26.764  42.089  50.895  1.00  0.00     0.178 C 
HETATM    4  S   UNL     1      26.607  41.271  49.448  1.00  0.00    -0.040 SA
BRANCH   3   5
HETATM    5  N   UNL     1      28.051  42.172  51.410  1.00  0.00    -0.303 N 
HETATM    6  C   UNL     1      28.479  41.826  52.685  1.00  0.00     0.228 C 
HETATM    7  O   UNL     1      27.806  41.139  53.453  1.00  0.00    -0.273 OA
HETATM    8  H   UNL     1      28.650  42.792  50.875  1.00  0.00     0.171 HD
BRANCH   6   9
HETATM    9  C   UNL     1      29.871  42.309  53.047  1.00  0.00     0.141 C 
BRANCH   9  10
HETATM   10  C   UNL     1      29.958  43.270  54.214  1.00  0.00    -0.049 A 
HETATM   11  C   UNL     1      30.986  43.217  55.167  1.00  0.00     0.010 A 
HETATM   12  C   UNL     1      31.039  44.140  56.220  1.00  0.00     0.037 A 
HETATM   13  C   UNL     1      30.085  45.152  56.317  1.00  0.00     0.068 A 
HETATM   14  C   UNL     1      29.086  45.236  55.347  1.00  0.00     0.037 A 
HETATM   15  C   UNL     1      29.021  44.307  54.306  1.00  0.00     0.010 A 
BRANCH  13  16
HETATM   16  O   UNL     1      30.027  46.116  57.284  1.00  0.00    -0.356 OA
HETATM   17  C   UNL     1      30.689  45.837  58.511  1.00  0.00     0.210 C 
ENDBRANCH  13  16
ENDBRANCH   9  10
ENDBRANCH   6   9
ENDBRANCH   3   5
ENDBRANCH   1   3
BRANCH   1  18
HETATM   18  C   UNL     1      25.546  44.154  51.667  1.00  0.00     0.050 A 
HETATM   19  C   UNL     1      24.654  44.865  50.844  1.00  0.00     0.058 A 
HETATM   20  C   UNL     1      24.588  46.268  50.947  1.00  0.00     0.019 A 
HETATM   21  C   UNL     1      25.350  46.957  51.890  1.00  0.00     0.001 A 
HETATM   22  C   UNL     1      26.172  46.249  52.756  1.00  0.00     0.002 A 
HETATM   23  C   UNL     1      26.262  44.860  52.651  1.00  0.00     0.030 A 
BRANCH  19  24
HETATM   24  C   UNL     1      23.620  44.256  49.963  1.00  0.00     0.253 C 
HETATM   25  N   UNL     1      22.781  45.137  49.311  1.00  0.00    -0.357 N 
HETATM   26  H   UNL     1      22.880  46.128  49.489  1.00  0.00     0.162 HD
HETATM   27  O   UNL     1      23.612  43.046  49.764  1.00  0.00    -0.268 OA
BRANCH  25  28
HETATM   28  C   UNL     1      21.789  44.683  48.361  1.00  0.00     0.125 C 
BRANCH  28  29
HETATM   29  C   UNL     1      21.932  45.332  46.987  1.00  0.00     0.046 C 
BRANCH  29  30
HETATM   30  C   UNL     1      22.751  44.508  46.002  1.00  0.00     0.165 C 
BRANCH  30  31
HETATM   31  O   UNL     1      23.676  43.697  46.723  1.00  0.00    -0.401 OA
HETATM   32  H   UNL     1      24.374  44.286  47.057  1.00  0.00     0.209 HD
ENDBRANCH  30  31
ENDBRANCH  29  30
ENDBRANCH  28  29
ENDBRANCH  25  28
ENDBRANCH  19  24
ENDBRANCH   1  18
TORSDOF 11
ENDMDL
