MODEL 1
REMARK VINA RESULT:      -9.1      0.000      0.000
REMARK  8 active torsions:
REMARK  status: ('A' for Active; 'I' for Inactive)
REMARK    1  A    between atoms: C_2  and  C_3 
REMARK    2  A    between atoms: C_6  and  C_7 
REMARK    3  A    between atoms: C_11  and  C_12 
REMARK    4  A    between atoms: C_12  and  C_13 
REMARK    5  A    between atoms: C_13  and  C_14 
REMARK    6  A    between atoms: C_14  and  O_15 
REMARK    7  A    between atoms: C_20  and  C_21 
REMARK       I    between atoms: C_21  and  N_22 
REMARK    8  A    between atoms: N_22  and  C_23 
ROOT
HETATM    1  C   UNL     1      25.707  43.318  51.634  1.00  0.00     0.202 C 
HETATM    2  N   UNL     1      25.138  42.524  50.545  1.00  0.00    -0.083 N 
HETATM    3  C   UNL     1      25.796  41.495  49.933  1.00  0.00     0.726 A 
HETATM    4  N   UNL     1      25.022  40.970  49.017  1.00  0.00    -0.046 NA
HETATM    5  C   UNL     1      23.859  41.696  49.143  1.00  0.00     0.166 A 
HETATM    6  N   UNL     1      23.875  42.651  50.087  1.00  0.00    -0.140 NA
HETATM    7  N   UNL     1      27.025  41.154  50.363  1.00  0.00    -0.192 N 
HETATM    8  C   UNL     1      27.563  41.633  51.558  1.00  0.00     0.037 C 
HETATM    9  C   UNL     1      28.827  40.946  52.018  1.00  0.00     0.070 C 
HETATM   10  C   UNL     1      26.957  42.654  52.221  1.00  0.00     0.062 C 
HETATM   11  H   UNL     1      27.440  40.308  49.981  1.00  0.00     0.184 HD
ENDROOT
BRANCH  10  12
HETATM   12  C   UNL     1      27.402  43.035  53.602  1.00  0.00     0.256 C 
HETATM   13  N   UNL     1      28.475  43.896  53.661  1.00  0.00    -0.323 N 
HETATM   14  H   UNL     1      28.901  44.204  52.799  1.00  0.00     0.169 HD
HETATM   15  O   UNL     1      26.776  42.616  54.572  1.00  0.00    -0.267 OA
BRANCH  13  16
HETATM   16  C   UNL     1      29.100  44.416  54.815  1.00  0.00     0.035 A 
HETATM   17  C   UNL     1      30.272  43.900  55.372  1.00  0.00     0.031 A 
HETATM   18  C   UNL     1      30.838  44.494  56.506  1.00  0.00     0.026 A 
HETATM   19  C   UNL     1      30.224  45.595  57.096  1.00  0.00     0.034 A 
HETATM   20 CL   UNL     1      30.918  46.319  58.494  1.00  0.00    -0.084 Cl
HETATM   21  C   UNL     1      29.051  46.115  56.558  1.00  0.00     0.026 A 
HETATM   22  C   UNL     1      28.498  45.533  55.414  1.00  0.00     0.031 A 
ENDBRANCH  13  16
ENDBRANCH  10  12
BRANCH   1  23
HETATM   23  C   UNL     1      25.979  44.738  51.134  1.00  0.00    -0.028 A 
HETATM   24  C   UNL     1      26.913  44.953  50.106  1.00  0.00     0.010 A 
HETATM   25  C   UNL     1      27.051  46.217  49.527  1.00  0.00     0.007 A 
HETATM   26  C   UNL     1      26.277  47.293  49.974  1.00  0.00    -0.059 A 
HETATM   27  C   UNL     1      25.392  47.097  51.039  1.00  0.00     0.007 A 
HETATM   28  C   UNL     1      25.250  45.838  51.620  1.00  0.00     0.010 A 
BRANCH  26  29
HETATM   29  C   UNL     1      26.359  48.638  49.294  1.00  0.00     0.034 C 
HETATM   30  C   UNL     1      27.802  49.098  49.144  1.00  0.00     0.010 C 
ENDBRANCH  26  29
ENDBRANCH   1  23
BRANCH   5  31
HETATM   31  C   UNL     1      22.653  41.399  48.330  1.00  0.00     0.085 C 
BRANCH  31  32
HETATM   32  C   UNL     1      22.933  40.447  47.168  1.00  0.00     0.034 C 
BRANCH  32  33
HETATM   33  C   UNL     1      21.832  39.413  46.963  1.00  0.00     0.164 C 
BRANCH  33  34
HETATM   34  O   UNL     1      20.801  39.615  47.924  1.00  0.00    -0.401 OA
HETATM   35  H   UNL     1      19.962  39.708  47.441  1.00  0.00     0.209 HD
ENDBRANCH  33  34
ENDBRANCH  32  33
ENDBRANCH  31  32
ENDBRANCH   5  31
TORSDOF 8
ENDMDL
MODEL 2
REMARK VINA RESULT:      -8.5      0.871      1.540
REMARK  8 active torsions:
REMARK  status: ('A' for Active; 'I' for Inactive)
REMARK    1  A    between atoms: C_2  and  C_3 
REMARK    2  A    between atoms: C_6  and  C_7 
REMARK    3  A    between atoms: C_11  and  C_12 
REMARK    4  A    between atoms: C_12  and  C_13 
REMARK    5  A    between atoms: C_13  and  C_14 
REMARK    6  A    between atoms: C_14  and  O_15 
REMARK    7  A    between atoms: C_20  and  C_21 
REMARK       I    between atoms: C_21  and  N_22 
REMARK    8  A    between atoms: N_22  and  C_23 
ROOT
HETATM    1  C   UNL     1      25.434  43.432  51.257  1.00  0.00     0.202 C 
HETATM    2  N   UNL     1      24.996  42.508  50.211  1.00  0.00    -0.083 N 
HETATM    3  C   UNL     1      25.765  41.486  49.731  1.00  0.00     0.726 A 
HETATM    4  N   UNL     1      25.092  40.829  48.820  1.00  0.00    -0.046 NA
HETATM    5  C   UNL     1      23.874  41.470  48.813  1.00  0.00     0.166 A 
HETATM    6  N   UNL     1      23.759  42.499  49.670  1.00  0.00    -0.140 NA
HETATM    7  N   UNL     1      26.985  41.279  50.260  1.00  0.00    -0.192 N 
HETATM    8  C   UNL     1      27.408  41.896  51.438  1.00  0.00     0.037 C 
HETATM    9  C   UNL     1      28.685  41.350  52.030  1.00  0.00     0.070 C 
HETATM   10  C   UNL     1      26.687  42.918  51.972  1.00  0.00     0.062 C 
HETATM   11  H   UNL     1      27.485  40.439  49.979  1.00  0.00     0.184 HD
ENDROOT
BRANCH  10  12
HETATM   12  C   UNL     1      27.013  43.445  53.339  1.00  0.00     0.256 C 
HETATM   13  N   UNL     1      28.244  44.051  53.462  1.00  0.00    -0.323 N 
HETATM   14  H   UNL     1      28.848  44.093  52.654  1.00  0.00     0.169 HD
HETATM   15  O   UNL     1      26.174  43.360  54.231  1.00  0.00    -0.267 OA
BRANCH  13  16
HETATM   16  C   UNL     1      28.807  44.630  54.619  1.00  0.00     0.035 A 
HETATM   17  C   UNL     1      28.239  45.697  55.318  1.00  0.00     0.031 A 
HETATM   18  C   UNL     1      28.855  46.194  56.472  1.00  0.00     0.026 A 
HETATM   19  C   UNL     1      30.048  45.637  56.922  1.00  0.00     0.034 A 
HETATM   20 CL   UNL     1      30.805  46.253  58.338  1.00  0.00    -0.084 Cl
HETATM   21  C   UNL     1      30.630  44.578  56.231  1.00  0.00     0.026 A 
HETATM   22  C   UNL     1      30.004  44.070  55.090  1.00  0.00     0.031 A 
ENDBRANCH  13  16
ENDBRANCH  10  12
BRANCH   1  23
HETATM   23  C   UNL     1      25.634  44.823  50.652  1.00  0.00    -0.028 A 
HETATM   24  C   UNL     1      24.701  45.841  50.910  1.00  0.00     0.010 A 
HETATM   25  C   UNL     1      24.953  47.154  50.503  1.00  0.00     0.007 A 
HETATM   26  C   UNL     1      26.129  47.471  49.815  1.00  0.00    -0.059 A 
HETATM   27  C   UNL     1      27.031  46.448  49.500  1.00  0.00     0.007 A 
HETATM   28  C   UNL     1      26.782  45.138  49.905  1.00  0.00     0.010 A 
BRANCH  26  29
HETATM   29  C   UNL     1      26.448  48.900  49.451  1.00  0.00     0.034 C 
HETATM   30  C   UNL     1      27.925  49.074  49.121  1.00  0.00     0.010 C 
ENDBRANCH  26  29
ENDBRANCH   1  23
BRANCH   5  31
HETATM   31  C   UNL     1      22.748  41.015  47.960  1.00  0.00     0.085 C 
BRANCH  31  32
HETATM   32  C   UNL     1      22.693  41.729  46.610  1.00  0.00     0.034 C 
BRANCH  32  33
HETATM   33  C   UNL     1      21.693  42.879  46.583  1.00  0.00     0.164 C 
BRANCH  33  34
HETATM   34  O   UNL     1      20.382  42.369  46.366  1.00  0.00    -0.401 OA
HETATM   35  H   UNL     1      20.443  41.676  45.686  1.00  0.00     0.209 HD
ENDBRANCH  33  34
ENDBRANCH  32  33
ENDBRANCH  31  32
ENDBRANCH   5  31
TORSDOF 8
ENDMDL
MODEL 3
REMARK VINA RESULT:      -8.2      3.592      6.839
REMARK  8 active torsions:
REMARK  status: ('A' for Active; 'I' for Inactive)
REMARK    1  A    between atoms: C_2  and  C_3 
REMARK    2  A    between atoms: C_6  and  C_7 
REMARK    3  A    between atoms: C_11  and  C_12 
REMARK    4  A    between atoms: C_12  and  C_13 
REMARK    5  A    between atoms: C_13  and  C_14 
REMARK    6  A    between atoms: C_14  and  O_15 
REMARK    7  A    between atoms: C_20  and  C_21 
REMARK       I    between atoms: C_21  and  N_22 
REMARK    8  A    between atoms: N_22  and  C_23 
ROOT
HETATM    1  C   UNL     1      26.844  42.925  50.132  1.00  0.00     0.202 C 
HETATM    2  N   UNL     1      27.019  41.637  49.461  1.00  0.00    -0.083 N 
HETATM    3  C   UNL     1      26.002  40.754  49.237  1.00  0.00     0.726 A 
HETATM    4  N   UNL     1      26.468  39.708  48.602  1.00  0.00    -0.046 NA
HETATM    5  C   UNL     1      27.794  40.027  48.414  1.00  0.00     0.166 A 
HETATM    6  N   UNL     1      28.177  41.217  48.907  1.00  0.00    -0.140 NA
HETATM    7  N   UNL     1      24.753  41.082  49.616  1.00  0.00    -0.192 N 
HETATM    8  C   UNL     1      24.400  42.375  50.004  1.00  0.00     0.037 C 
HETATM    9  C   UNL     1      22.917  42.628  50.135  1.00  0.00     0.070 C 
HETATM   10  C   UNL     1      25.364  43.305  50.240  1.00  0.00     0.062 C 
HETATM   11  H   UNL     1      23.995  40.469  49.325  1.00  0.00     0.184 HD
ENDROOT
BRANCH  10  12
HETATM   12  C   UNL     1      24.997  44.745  50.450  1.00  0.00     0.256 C 
HETATM   13  N   UNL     1      24.803  45.480  49.301  1.00  0.00    -0.323 N 
HETATM   14  H   UNL     1      24.929  45.028  48.408  1.00  0.00     0.169 HD
HETATM   15  O   UNL     1      24.842  45.165  51.593  1.00  0.00    -0.267 OA
BRANCH  13  16
HETATM   16  C   UNL     1      24.454  46.844  49.200  1.00  0.00     0.035 A 
HETATM   17  C   UNL     1      25.372  47.894  49.266  1.00  0.00     0.031 A 
HETATM   18  C   UNL     1      24.942  49.219  49.131  1.00  0.00     0.026 A 
HETATM   19  C   UNL     1      23.591  49.498  48.947  1.00  0.00     0.034 A 
HETATM   20 CL   UNL     1      23.063  51.128  48.787  1.00  0.00    -0.084 Cl
HETATM   21  C   UNL     1      22.664  48.463  48.887  1.00  0.00     0.026 A 
HETATM   22  C   UNL     1      23.097  47.139  49.002  1.00  0.00     0.031 A 
ENDBRANCH  13  16
ENDBRANCH  10  12
BRANCH   1  23
HETATM   23  C   UNL     1      27.539  42.884  51.494  1.00  0.00    -0.028 A 
HETATM   24  C   UNL     1      27.645  41.668  52.191  1.00  0.00     0.010 A 
HETATM   25  C   UNL     1      28.417  41.581  53.352  1.00  0.00     0.007 A 
HETATM   26  C   UNL     1      29.080  42.708  53.851  1.00  0.00    -0.059 A 
HETATM   27  C   UNL     1      28.925  43.934  53.196  1.00  0.00     0.007 A 
HETATM   28  C   UNL     1      28.156  44.025  52.037  1.00  0.00     0.010 A 
BRANCH  26  29
HETATM   29  C   UNL     1      29.985  42.601  55.054  1.00  0.00     0.034 C 
HETATM   30  C   UNL     1      30.526  43.964  55.465  1.00  0.00     0.010 C 
ENDBRANCH  26  29
ENDBRANCH   1  23
BRANCH   5  31
HETATM   31  C   UNL     1      28.720  39.141  47.664  1.00  0.00     0.085 C 
BRANCH  31  32
HETATM   32  C   UNL     1      29.042  37.845  48.407  1.00  0.00     0.034 C 
BRANCH  32  33
HETATM   33  C   UNL     1      29.831  38.073  49.691  1.00  0.00     0.164 C 
BRANCH  33  34
HETATM   34  O   UNL     1      31.191  38.351  49.374  1.00  0.00    -0.401 OA
HETATM   35  H   UNL     1      31.207  38.819  48.522  1.00  0.00     0.209 HD
ENDBRANCH  33  34
ENDBRANCH  32  33
ENDBRANCH  31  32
ENDBRANCH   5  31
TORSDOF 8
ENDMDL
MODEL 4
REMARK VINA RESULT:      -8.0      4.816      8.698
REMARK  8 active torsions:
REMARK  status: ('A' for Active; 'I' for Inactive)
REMARK    1  A    between atoms: C_2  and  C_3 
REMARK    2  A    between atoms: C_6  and  C_7 
REMARK    3  A    between atoms: C_11  and  C_12 
REMARK    4  A    between atoms: C_12  and  C_13 
REMARK    5  A    between atoms: C_13  and  C_14 
REMARK    6  A    between atoms: C_14  and  O_15 
REMARK    7  A    between atoms: C_20  and  C_21 
REMARK       I    between atoms: C_21  and  N_22 
REMARK    8  A    between atoms: N_22  and  C_23 
ROOT
HETATM    1  C   UNL     1      23.942  45.478  50.477  1.00  0.00     0.202 C 
HETATM    2  N   UNL     1      24.932  45.219  51.522  1.00  0.00    -0.083 N 
HETATM    3  C   UNL     1      26.117  45.889  51.627  1.00  0.00     0.726 A 
HETATM    4  N   UNL     1      26.774  45.447  52.670  1.00  0.00    -0.046 NA
HETATM    5  C   UNL     1      25.909  44.522  53.210  1.00  0.00     0.166 A 
HETATM    6  N   UNL     1      24.751  44.362  52.550  1.00  0.00    -0.140 NA
HETATM    7  N   UNL     1      26.396  46.870  50.749  1.00  0.00    -0.192 N 
HETATM    8  C   UNL     1      25.435  47.405  49.891  1.00  0.00     0.037 C 
HETATM    9  C   UNL     1      25.844  48.669  49.172  1.00  0.00     0.070 C 
HETATM   10  C   UNL     1      24.232  46.790  49.742  1.00  0.00     0.062 C 
HETATM   11  H   UNL     1      27.221  47.439  50.924  1.00  0.00     0.184 HD
ENDROOT
BRANCH  10  12
HETATM   12  C   UNL     1      23.121  47.463  48.990  1.00  0.00     0.256 C 
HETATM   13  N   UNL     1      22.482  48.480  49.664  1.00  0.00    -0.323 N 
HETATM   14  H   UNL     1      22.776  48.702  50.604  1.00  0.00     0.169 HD
HETATM   15  O   UNL     1      22.882  47.119  47.836  1.00  0.00    -0.267 OA
BRANCH  13  16
HETATM   16  C   UNL     1      21.411  49.278  49.206  1.00  0.00     0.035 A 
HETATM   17  C   UNL     1      20.115  48.804  48.995  1.00  0.00     0.031 A 
HETATM   18  C   UNL     1      19.106  49.672  48.562  1.00  0.00     0.026 A 
HETATM   19  C   UNL     1      19.395  51.012  48.322  1.00  0.00     0.034 A 
HETATM   20 CL   UNL     1      18.155  52.076  47.784  1.00  0.00    -0.084 Cl
HETATM   21  C   UNL     1      20.684  51.497  48.520  1.00  0.00     0.026 A 
HETATM   22  C   UNL     1      21.686  50.634  48.971  1.00  0.00     0.031 A 
ENDBRANCH  13  16
ENDBRANCH  10  12
BRANCH   1  23
HETATM   23  C   UNL     1      23.881  44.277  49.531  1.00  0.00    -0.028 A 
HETATM   24  C   UNL     1      25.065  43.622  49.152  1.00  0.00     0.010 A 
HETATM   25  C   UNL     1      25.014  42.430  48.425  1.00  0.00     0.007 A 
HETATM   26  C   UNL     1      23.784  41.880  48.046  1.00  0.00    -0.059 A 
HETATM   27  C   UNL     1      22.606  42.563  48.366  1.00  0.00     0.007 A 
HETATM   28  C   UNL     1      22.653  43.753  49.092  1.00  0.00     0.010 A 
BRANCH  26  29
HETATM   29  C   UNL     1      23.719  40.549  47.338  1.00  0.00     0.034 C 
HETATM   30  C   UNL     1      25.072  39.850  47.342  1.00  0.00     0.010 C 
ENDBRANCH  26  29
ENDBRANCH   1  23
BRANCH   5  31
HETATM   31  C   UNL     1      26.215  43.799  54.470  1.00  0.00     0.085 C 
BRANCH  31  32
HETATM   32  C   UNL     1      27.541  43.041  54.418  1.00  0.00     0.034 C 
BRANCH  32  33
HETATM   33  C   UNL     1      27.678  42.160  53.181  1.00  0.00     0.164 C 
BRANCH  33  34
HETATM   34  O   UNL     1      27.374  40.811  53.518  1.00  0.00    -0.401 OA
HETATM   35  H   UNL     1      27.079  40.363  52.707  1.00  0.00     0.209 HD
ENDBRANCH  33  34
ENDBRANCH  32  33
ENDBRANCH  31  32
ENDBRANCH   5  31
TORSDOF 8
ENDMDL
MODEL 5
REMARK VINA RESULT:      -8.0     10.956     14.458
REMARK  8 active torsions:
REMARK  status: ('A' for Active; 'I' for Inactive)
REMARK    1  A    between atoms: C_2  and  C_3 
REMARK    2  A    between atoms: C_6  and  C_7 
REMARK    3  A    between atoms: C_11  and  C_12 
REMARK    4  A    between atoms: C_12  and  C_13 
REMARK    5  A    between atoms: C_13  and  C_14 
REMARK    6  A    between atoms: C_14  and  O_15 
REMARK    7  A    between atoms: C_20  and  C_21 
REMARK       I    between atoms: C_21  and  N_22 
REMARK    8  A    between atoms: N_22  and  C_23 
ROOT
HETATM    1  C   UNL     1      16.046  51.122  48.830  1.00  0.00     0.202 C 
HETATM    2  N   UNL     1      15.415  52.423  49.051  1.00  0.00    -0.083 N 
HETATM    3  C   UNL     1      14.920  53.206  48.048  1.00  0.00     0.726 A 
HETATM    4  N   UNL     1      14.404  54.294  48.562  1.00  0.00    -0.046 NA
HETATM    5  C   UNL     1      14.567  54.103  49.915  1.00  0.00     0.166 A 
HETATM    6  N   UNL     1      15.167  52.954  50.267  1.00  0.00    -0.140 NA
HETATM    7  N   UNL     1      14.975  52.759  46.779  1.00  0.00    -0.192 N 
HETATM    8  C   UNL     1      15.286  51.437  46.461  1.00  0.00     0.037 C 
HETATM    9  C   UNL     1      15.039  51.044  45.024  1.00  0.00     0.070 C 
HETATM   10  C   UNL     1      15.780  50.602  47.414  1.00  0.00     0.062 C 
HETATM   11  H   UNL     1      14.487  53.298  46.068  1.00  0.00     0.184 HD
ENDROOT
BRANCH  10  12
HETATM   12  C   UNL     1      15.920  49.133  47.141  1.00  0.00     0.256 C 
HETATM   13  N   UNL     1      17.165  48.726  46.715  1.00  0.00    -0.323 N 
HETATM   14  H   UNL     1      17.890  49.419  46.599  1.00  0.00     0.169 HD
HETATM   15  O   UNL     1      14.966  48.389  47.353  1.00  0.00    -0.267 OA
BRANCH  13  16
HETATM   16  C   UNL     1      17.577  47.417  46.386  1.00  0.00     0.035 A 
HETATM   17  C   UNL     1      17.707  46.380  47.312  1.00  0.00     0.031 A 
HETATM   18  C   UNL     1      18.100  45.104  46.894  1.00  0.00     0.026 A 
HETATM   19  C   UNL     1      18.379  44.864  45.552  1.00  0.00     0.034 A 
HETATM   20 CL   UNL     1      18.867  43.296  45.042  1.00  0.00    -0.084 Cl
HETATM   21  C   UNL     1      18.262  45.890  44.619  1.00  0.00     0.026 A 
HETATM   22  C   UNL     1      17.851  47.159  45.034  1.00  0.00     0.031 A 
ENDBRANCH  13  16
ENDBRANCH  10  12
BRANCH   1  23
HETATM   23  C   UNL     1      17.539  51.224  49.146  1.00  0.00    -0.028 A 
HETATM   24  C   UNL     1      18.119  50.356  50.087  1.00  0.00     0.010 A 
HETATM   25  C   UNL     1      19.504  50.326  50.265  1.00  0.00     0.007 A 
HETATM   26  C   UNL     1      20.335  51.173  49.523  1.00  0.00    -0.059 A 
HETATM   27  C   UNL     1      19.757  52.083  48.632  1.00  0.00     0.007 A 
HETATM   28  C   UNL     1      18.375  52.117  48.452  1.00  0.00     0.010 A 
BRANCH  26  29
HETATM   29  C   UNL     1      21.836  51.084  49.647  1.00  0.00     0.034 C 
HETATM   30  C   UNL     1      22.491  50.830  48.296  1.00  0.00     0.010 C 
ENDBRANCH  26  29
ENDBRANCH   1  23
BRANCH   5  31
HETATM   31  C   UNL     1      14.060  55.076  50.915  1.00  0.00     0.085 C 
BRANCH  31  32
HETATM   32  C   UNL     1      15.111  56.101  51.340  1.00  0.00     0.034 C 
BRANCH  32  33
HETATM   33  C   UNL     1      15.260  56.212  52.853  1.00  0.00     0.164 C 
BRANCH  33  34
HETATM   34  O   UNL     1      14.939  54.965  53.459  1.00  0.00    -0.401 OA
HETATM   35  H   UNL     1      14.422  55.150  54.262  1.00  0.00     0.209 HD
ENDBRANCH  33  34
ENDBRANCH  32  33
ENDBRANCH  31  32
ENDBRANCH   5  31
TORSDOF 8
ENDMDL
MODEL 6
REMARK VINA RESULT:      -7.9      6.630      9.624
REMARK  8 active torsions:
REMARK  status: ('A' for Active; 'I' for Inactive)
REMARK    1  A    between atoms: C_2  and  C_3 
REMARK    2  A    between atoms: C_6  and  C_7 
REMARK    3  A    between atoms: C_11  and  C_12 
REMARK    4  A    between atoms: C_12  and  C_13 
REMARK    5  A    between atoms: C_13  and  C_14 
REMARK    6  A    between atoms: C_14  and  O_15 
REMARK    7  A    between atoms: C_20  and  C_21 
REMARK       I    between atoms: C_21  and  N_22 
REMARK    8  A    between atoms: N_22  and  C_23 
ROOT
HETATM    1  C   UNL     1      20.945  48.396  48.836  1.00  0.00     0.202 C 
HETATM    2  N   UNL     1      20.024  49.514  48.629  1.00  0.00    -0.083 N 
HETATM    3  C   UNL     1      19.258  49.668  47.509  1.00  0.00     0.726 A 
HETATM    4  N   UNL     1      18.528  50.748  47.629  1.00  0.00    -0.046 NA
HETATM    5  C   UNL     1      18.854  51.204  48.886  1.00  0.00     0.166 A 
HETATM    6  N   UNL     1      19.757  50.463  49.551  1.00  0.00    -0.140 NA
HETATM    7  N   UNL     1      19.313  48.733  46.543  1.00  0.00    -0.192 N 
HETATM    8  C   UNL     1      19.922  47.492  46.731  1.00  0.00     0.037 C 
HETATM    9  C   UNL     1      19.658  46.472  45.650  1.00  0.00     0.070 C 
HETATM   10  C   UNL     1      20.696  47.270  47.827  1.00  0.00     0.062 C 
HETATM   11  H   UNL     1      18.641  48.801  45.781  1.00  0.00     0.184 HD
ENDROOT
BRANCH  10  12
HETATM   12  C   UNL     1      21.183  45.887  48.148  1.00  0.00     0.256 C 
HETATM   13  N   UNL     1      22.436  45.575  47.670  1.00  0.00    -0.323 N 
HETATM   14  H   UNL     1      22.939  46.267  47.133  1.00  0.00     0.169 HD
HETATM   15  O   UNL     1      20.485  45.150  48.839  1.00  0.00    -0.267 OA
BRANCH  13  16
HETATM   16  C   UNL     1      23.137  44.359  47.819  1.00  0.00     0.035 A 
HETATM   17  C   UNL     1      22.871  43.205  47.078  1.00  0.00     0.031 A 
HETATM   18  C   UNL     1      23.633  42.048  47.274  1.00  0.00     0.026 A 
HETATM   19  C   UNL     1      24.651  42.035  48.223  1.00  0.00     0.034 A 
HETATM   20 CL   UNL     1      25.582  40.609  48.466  1.00  0.00    -0.084 Cl
HETATM   21  C   UNL     1      24.922  43.175  48.974  1.00  0.00     0.026 A 
HETATM   22  C   UNL     1      24.173  44.336  48.763  1.00  0.00     0.031 A 
ENDBRANCH  13  16
ENDBRANCH  10  12
BRANCH   1  23
HETATM   23  C   UNL     1      22.384  48.913  48.794  1.00  0.00    -0.028 A 
HETATM   24  C   UNL     1      23.385  48.263  49.535  1.00  0.00     0.010 A 
HETATM   25  C   UNL     1      24.727  48.619  49.379  1.00  0.00     0.007 A 
HETATM   26  C   UNL     1      25.094  49.641  48.497  1.00  0.00    -0.059 A 
HETATM   27  C   UNL     1      24.095  50.334  47.805  1.00  0.00     0.007 A 
HETATM   28  C   UNL     1      22.754  49.982  47.958  1.00  0.00     0.010 A 
BRANCH  26  29
HETATM   29  C   UNL     1      26.547  49.971  48.259  1.00  0.00     0.034 C 
HETATM   30  C   UNL     1      27.463  49.068  49.074  1.00  0.00     0.010 C 
ENDBRANCH  26  29
ENDBRANCH   1  23
BRANCH   5  31
HETATM   31  C   UNL     1      18.205  52.397  49.486  1.00  0.00     0.085 C 
BRANCH  31  32
HETATM   32  C   UNL     1      16.761  52.141  49.914  1.00  0.00     0.034 C 
BRANCH  32  33
HETATM   33  C   UNL     1      15.739  52.811  49.003  1.00  0.00     0.164 C 
BRANCH  33  34
HETATM   34  O   UNL     1      16.245  52.862  47.673  1.00  0.00    -0.401 OA
HETATM   35  H   UNL     1      15.537  53.203  47.100  1.00  0.00     0.209 HD
ENDBRANCH  33  34
ENDBRANCH  32  33
ENDBRANCH  31  32
ENDBRANCH   5  31
TORSDOF 8
ENDMDL
MODEL 7
REMARK VINA RESULT:      -7.8      4.719      7.886
REMARK  8 active torsions:
REMARK  status: ('A' for Active; 'I' for Inactive)
REMARK    1  A    between atoms: C_2  and  C_3 
REMARK    2  A    between atoms: C_6  and  C_7 
REMARK    3  A    between atoms: C_11  and  C_12 
REMARK    4  A    between atoms: C_12  and  C_13 
REMARK    5  A    between atoms: C_13  and  C_14 
REMARK    6  A    between atoms: C_14  and  O_15 
REMARK    7  A    between atoms: C_20  and  C_21 
REMARK       I    between atoms: C_21  and  N_22 
REMARK    8  A    between atoms: N_22  and  C_23 
ROOT
HETATM    1  C   UNL     1      25.009  45.493  49.528  1.00  0.00     0.202 C 
HETATM    2  N   UNL     1      25.401  44.093  49.371  1.00  0.00    -0.083 N 
HETATM    3  C   UNL     1      24.512  43.073  49.185  1.00  0.00     0.726 A 
HETATM    4  N   UNL     1      25.166  41.946  49.059  1.00  0.00    -0.046 NA
HETATM    5  C   UNL     1      26.482  42.343  49.128  1.00  0.00     0.166 A 
HETATM    6  N   UNL     1      26.678  43.661  49.298  1.00  0.00    -0.140 NA
HETATM    7  N   UNL     1      23.198  43.354  49.104  1.00  0.00    -0.192 N 
HETATM    8  C   UNL     1      22.716  44.654  48.955  1.00  0.00     0.037 C 
HETATM    9  C   UNL     1      21.249  44.764  48.612  1.00  0.00     0.070 C 
HETATM   10  C   UNL     1      23.548  45.717  49.123  1.00  0.00     0.062 C 
HETATM   11  H   UNL     1      22.570  42.600  48.838  1.00  0.00     0.184 HD
ENDROOT
BRANCH  10  12
HETATM   12  C   UNL     1      23.098  47.101  48.762  1.00  0.00     0.256 C 
HETATM   13  N   UNL     1      21.795  47.405  49.091  1.00  0.00    -0.323 N 
HETATM   14  H   UNL     1      21.226  46.696  49.530  1.00  0.00     0.169 HD
HETATM   15  O   UNL     1      23.900  47.882  48.258  1.00  0.00    -0.267 OA
BRANCH  13  16
HETATM   16  C   UNL     1      21.111  48.620  48.870  1.00  0.00     0.035 A 
HETATM   17  C   UNL     1      19.977  48.746  48.066  1.00  0.00     0.031 A 
HETATM   18  C   UNL     1      19.346  49.987  47.922  1.00  0.00     0.026 A 
HETATM   19  C   UNL     1      19.858  51.108  48.568  1.00  0.00     0.034 A 
HETATM   20 CL   UNL     1      19.084  52.634  48.385  1.00  0.00    -0.084 Cl
HETATM   21  C   UNL     1      20.992  50.999  49.367  1.00  0.00     0.026 A 
HETATM   22  C   UNL     1      21.609  49.755  49.526  1.00  0.00     0.031 A 
ENDBRANCH  13  16
ENDBRANCH  10  12
BRANCH   1  23
HETATM   23  C   UNL     1      25.294  45.940  50.963  1.00  0.00    -0.028 A 
HETATM   24  C   UNL     1      24.952  45.103  52.039  1.00  0.00     0.010 A 
HETATM   25  C   UNL     1      25.353  45.420  53.339  1.00  0.00     0.007 A 
HETATM   26  C   UNL     1      26.084  46.585  53.594  1.00  0.00    -0.059 A 
HETATM   27  C   UNL     1      26.372  47.453  52.534  1.00  0.00     0.007 A 
HETATM   28  C   UNL     1      25.974  47.140  51.235  1.00  0.00     0.010 A 
BRANCH  26  29
HETATM   29  C   UNL     1      26.595  46.889  54.980  1.00  0.00     0.034 C 
HETATM   30  C   UNL     1      28.112  46.774  55.052  1.00  0.00     0.010 C 
ENDBRANCH  26  29
ENDBRANCH   1  23
BRANCH   5  31
HETATM   31  C   UNL     1      27.605  41.385  48.965  1.00  0.00     0.085 C 
BRANCH  31  32
HETATM   32  C   UNL     1      27.721  40.396  50.124  1.00  0.00     0.034 C 
BRANCH  32  33
HETATM   33  C   UNL     1      27.958  41.075  51.468  1.00  0.00     0.164 C 
BRANCH  33  34
HETATM   34  O   UNL     1      26.927  40.709  52.378  1.00  0.00    -0.401 OA
HETATM   35  H   UNL     1      26.590  41.525  52.787  1.00  0.00     0.209 HD
ENDBRANCH  33  34
ENDBRANCH  32  33
ENDBRANCH  31  32
ENDBRANCH   5  31
TORSDOF 8
ENDMDL
MODEL 8
REMARK VINA RESULT:      -7.7      8.649     12.471
REMARK  8 active torsions:
REMARK  status: ('A' for Active; 'I' for Inactive)
REMARK    1  A    between atoms: C_2  and  C_3 
REMARK    2  A    between atoms: C_6  and  C_7 
REMARK    3  A    between atoms: C_11  and  C_12 
REMARK    4  A    between atoms: C_12  and  C_13 
REMARK    5  A    between atoms: C_13  and  C_14 
REMARK    6  A    between atoms: C_14  and  O_15 
REMARK    7  A    between atoms: C_20  and  C_21 
REMARK       I    between atoms: C_21  and  N_22 
REMARK    8  A    between atoms: N_22  and  C_23 
ROOT
HETATM    1  C   UNL     1      20.632  49.211  47.428  1.00  0.00     0.202 C 
HETATM    2  N   UNL     1      21.953  49.138  48.052  1.00  0.00    -0.083 N 
HETATM    3  C   UNL     1      22.413  48.045  48.729  1.00  0.00     0.726 A 
HETATM    4  N   UNL     1      23.630  48.277  49.151  1.00  0.00    -0.046 NA
HETATM    5  C   UNL     1      23.895  49.533  48.654  1.00  0.00     0.166 A 
HETATM    6  N   UNL     1      22.898  50.096  47.951  1.00  0.00    -0.140 NA
HETATM    7  N   UNL     1      21.635  46.949  48.811  1.00  0.00    -0.192 N 
HETATM    8  C   UNL     1      20.489  46.781  48.035  1.00  0.00     0.037 C 
HETATM    9  C   UNL     1      19.893  45.394  48.054  1.00  0.00     0.070 C 
HETATM   10  C   UNL     1      19.979  47.828  47.332  1.00  0.00     0.062 C 
HETATM   11  H   UNL     1      22.047  46.107  49.207  1.00  0.00     0.184 HD
ENDROOT
BRANCH  10  12
HETATM   12  C   UNL     1      18.879  47.612  46.335  1.00  0.00     0.256 C 
HETATM   13  N   UNL     1      17.600  47.785  46.817  1.00  0.00    -0.323 N 
HETATM   14  H   UNL     1      17.476  48.027  47.789  1.00  0.00     0.169 HD
HETATM   15  O   UNL     1      19.166  47.351  45.170  1.00  0.00    -0.267 OA
BRANCH  13  16
HETATM   16  C   UNL     1      16.386  47.647  46.110  1.00  0.00     0.035 A 
HETATM   17  C   UNL     1      16.207  46.794  45.020  1.00  0.00     0.031 A 
HETATM   18  C   UNL     1      14.960  46.700  44.392  1.00  0.00     0.026 A 
HETATM   19  C   UNL     1      13.893  47.472  44.842  1.00  0.00     0.034 A 
HETATM   20 CL   UNL     1      12.362  47.361  44.065  1.00  0.00    -0.084 Cl
HETATM   21  C   UNL     1      14.059  48.333  45.923  1.00  0.00     0.026 A 
HETATM   22  C   UNL     1      15.300  48.410  46.562  1.00  0.00     0.031 A 
ENDBRANCH  13  16
ENDBRANCH  10  12
BRANCH   1  23
HETATM   23  C   UNL     1      19.767  50.214  48.194  1.00  0.00    -0.028 A 
HETATM   24  C   UNL     1      19.563  51.504  47.675  1.00  0.00     0.010 A 
HETATM   25  C   UNL     1      18.648  52.373  48.274  1.00  0.00     0.007 A 
HETATM   26  C   UNL     1      17.934  51.980  49.411  1.00  0.00    -0.059 A 
HETATM   27  C   UNL     1      18.180  50.721  49.967  1.00  0.00     0.007 A 
HETATM   28  C   UNL     1      19.093  49.851  49.373  1.00  0.00     0.010 A 
BRANCH  26  29
HETATM   29  C   UNL     1      16.881  52.880  50.010  1.00  0.00     0.034 C 
HETATM   30  C   UNL     1      15.478  52.375  49.702  1.00  0.00     0.010 C 
ENDBRANCH  26  29
ENDBRANCH   1  23
BRANCH   5  31
HETATM   31  C   UNL     1      25.213  50.191  48.834  1.00  0.00     0.085 C 
BRANCH  31  32
HETATM   32  C   UNL     1      26.356  49.437  48.156  1.00  0.00     0.034 C 
BRANCH  32  33
HETATM   33  C   UNL     1      27.360  48.857  49.146  1.00  0.00     0.164 C 
BRANCH  33  34
HETATM   34  O   UNL     1      27.986  47.712  48.578  1.00  0.00    -0.401 OA
HETATM   35  H   UNL     1      27.320  47.005  48.528  1.00  0.00     0.209 HD
ENDBRANCH  33  34
ENDBRANCH  32  33
ENDBRANCH  31  32
ENDBRANCH   5  31
TORSDOF 8
ENDMDL
MODEL 9
REMARK VINA RESULT:      -7.6      1.913      2.888
REMARK  8 active torsions:
REMARK  status: ('A' for Active; 'I' for Inactive)
REMARK    1  A    between atoms: C_2  and  C_3 
REMARK    2  A    between atoms: C_6  and  C_7 
REMARK    3  A    between atoms: C_11  and  C_12 
REMARK    4  A    between atoms: C_12  and  C_13 
REMARK    5  A    between atoms: C_13  and  C_14 
REMARK    6  A    between atoms: C_14  and  O_15 
REMARK    7  A    between atoms: C_20  and  C_21 
REMARK       I    between atoms: C_21  and  N_22 
REMARK    8  A    between atoms: N_22  and  C_23 
ROOT
HETATM    1  C   UNL     1      24.626  41.851  49.689  1.00  0.00     0.202 C 
HETATM    2  N   UNL     1      23.926  41.325  48.517  1.00  0.00    -0.083 N 
HETATM    3  C   UNL     1      24.561  40.841  47.409  1.00  0.00     0.726 A 
HETATM    4  N   UNL     1      23.669  40.426  46.545  1.00  0.00    -0.046 NA
HETATM    5  C   UNL     1      22.479  40.637  47.205  1.00  0.00     0.166 A 
HETATM    6  N   UNL     1      22.588  41.170  48.433  1.00  0.00    -0.140 NA
HETATM    7  N   UNL     1      25.906  40.806  47.386  1.00  0.00    -0.192 N 
HETATM    8  C   UNL     1      26.682  41.009  48.527  1.00  0.00     0.037 C 
HETATM    9  C   UNL     1      28.147  40.670  48.380  1.00  0.00     0.070 C 
HETATM   10  C   UNL     1      26.113  41.486  49.666  1.00  0.00     0.062 C 
HETATM   11  H   UNL     1      26.352  40.326  46.608  1.00  0.00     0.184 HD
ENDROOT
BRANCH  10  12
HETATM   12  C   UNL     1      26.887  41.509  50.951  1.00  0.00     0.256 C 
HETATM   13  N   UNL     1      27.539  42.690  51.229  1.00  0.00    -0.323 N 
HETATM   14  H   UNL     1      27.475  43.449  50.566  1.00  0.00     0.169 HD
HETATM   15  O   UNL     1      26.858  40.527  51.688  1.00  0.00    -0.267 OA
BRANCH  13  16
HETATM   16  C   UNL     1      28.334  42.992  52.355  1.00  0.00     0.035 A 
HETATM   17  C   UNL     1      29.586  42.426  52.604  1.00  0.00     0.031 A 
HETATM   18  C   UNL     1      30.319  42.802  53.736  1.00  0.00     0.026 A 
HETATM   19  C   UNL     1      29.795  43.730  54.630  1.00  0.00     0.034 A 
HETATM   20 CL   UNL     1      30.695  44.186  56.024  1.00  0.00    -0.084 Cl
HETATM   21  C   UNL     1      28.545  44.296  54.399  1.00  0.00     0.026 A 
HETATM   22  C   UNL     1      27.823  43.935  53.258  1.00  0.00     0.031 A 
ENDBRANCH  13  16
ENDBRANCH  10  12
BRANCH   1  23
HETATM   23  C   UNL     1      24.395  43.361  49.778  1.00  0.00    -0.028 A 
HETATM   24  C   UNL     1      24.471  44.010  51.022  1.00  0.00     0.010 A 
HETATM   25  C   UNL     1      24.426  45.404  51.099  1.00  0.00     0.007 A 
HETATM   26  C   UNL     1      24.287  46.176  49.940  1.00  0.00    -0.059 A 
HETATM   27  C   UNL     1      24.148  45.531  48.706  1.00  0.00     0.007 A 
HETATM   28  C   UNL     1      24.191  44.140  48.626  1.00  0.00     0.010 A 
BRANCH  26  29
HETATM   29  C   UNL     1      24.327  47.683  50.007  1.00  0.00     0.034 C 
HETATM   30  C   UNL     1      25.701  48.220  49.631  1.00  0.00     0.010 C 
ENDBRANCH  26  29
ENDBRANCH   1  23
BRANCH   5  31
HETATM   31  C   UNL     1      21.172  40.246  46.619  1.00  0.00     0.085 C 
BRANCH  31  32
HETATM   32  C   UNL     1      21.036  38.737  46.414  1.00  0.00     0.034 C 
BRANCH  32  33
HETATM   33  C   UNL     1      20.014  38.097  47.346  1.00  0.00     0.164 C 
BRANCH  33  34
HETATM   34  O   UNL     1      19.623  39.034  48.344  1.00  0.00    -0.401 OA
HETATM   35  H   UNL     1      19.670  38.585  49.206  1.00  0.00     0.209 HD
ENDBRANCH  33  34
ENDBRANCH  32  33
ENDBRANCH  31  32
ENDBRANCH   5  31
TORSDOF 8
ENDMDL
MODEL 10
REMARK VINA RESULT:      -7.4      4.311      7.990
REMARK  8 active torsions:
REMARK  status: ('A' for Active; 'I' for Inactive)
REMARK    1  A    between atoms: C_2  and  C_3 
REMARK    2  A    between atoms: C_6  and  C_7 
REMARK    3  A    between atoms: C_11  and  C_12 
REMARK    4  A    between atoms: C_12  and  C_13 
REMARK    5  A    between atoms: C_13  and  C_14 
REMARK    6  A    between atoms: C_14  and  O_15 
REMARK    7  A    between atoms: C_20  and  C_21 
REMARK       I    between atoms: C_21  and  N_22 
REMARK    8  A    between atoms: N_22  and  C_23 
ROOT
HETATM    1  C   UNL     1      27.802  42.929  50.664  1.00  0.00     0.202 C 
HETATM    2  N   UNL     1      28.295  42.772  52.032  1.00  0.00    -0.083 N 
HETATM    3  C   UNL     1      27.946  41.735  52.849  1.00  0.00     0.726 A 
HETATM    4  N   UNL     1      28.562  41.862  53.997  1.00  0.00    -0.046 NA
HETATM    5  C   UNL     1      29.330  42.989  53.812  1.00  0.00     0.166 A 
HETATM    6  N   UNL     1      29.216  43.573  52.608  1.00  0.00    -0.140 NA
HETATM    7  N   UNL     1      27.130  40.774  52.378  1.00  0.00    -0.192 N 
HETATM    8  C   UNL     1      26.818  40.651  51.024  1.00  0.00     0.037 C 
HETATM    9  C   UNL     1      26.117  39.370  50.637  1.00  0.00     0.070 C 
HETATM   10  C   UNL     1      27.140  41.645  50.154  1.00  0.00     0.062 C 
HETATM   11  H   UNL     1      26.988  39.949  52.956  1.00  0.00     0.184 HD
ENDROOT
BRANCH  10  12
HETATM   12  C   UNL     1      27.002  41.437  48.675  1.00  0.00     0.256 C 
HETATM   13  N   UNL     1      27.969  40.646  48.095  1.00  0.00    -0.323 N 
HETATM   14  H   UNL     1      28.705  40.272  48.677  1.00  0.00     0.169 HD
HETATM   15  O   UNL     1      26.039  41.922  48.087  1.00  0.00    -0.267 OA
BRANCH  13  16
HETATM   16  C   UNL     1      28.087  40.286  46.735  1.00  0.00     0.035 A 
HETATM   17  C   UNL     1      28.379  41.186  45.709  1.00  0.00     0.031 A 
HETATM   18  C   UNL     1      28.502  40.737  44.389  1.00  0.00     0.026 A 
HETATM   19  C   UNL     1      28.318  39.391  44.090  1.00  0.00     0.034 A 
HETATM   20 CL   UNL     1      28.463  38.843  42.465  1.00  0.00    -0.084 Cl
HETATM   21  C   UNL     1      28.018  38.484  45.101  1.00  0.00     0.026 A 
HETATM   22  C   UNL     1      27.915  38.929  46.422  1.00  0.00     0.031 A 
ENDBRANCH  13  16
ENDBRANCH  10  12
BRANCH   1  23
HETATM   23  C   UNL     1      26.864  44.136  50.601  1.00  0.00    -0.028 A 
HETATM   24  C   UNL     1      27.258  45.296  49.913  1.00  0.00     0.010 A 
HETATM   25  C   UNL     1      26.352  46.340  49.706  1.00  0.00     0.007 A 
HETATM   26  C   UNL     1      25.046  46.256  50.198  1.00  0.00    -0.059 A 
HETATM   27  C   UNL     1      24.669  45.131  50.938  1.00  0.00     0.007 A 
HETATM   28  C   UNL     1      25.569  44.087  51.147  1.00  0.00     0.010 A 
BRANCH  26  29
HETATM   29  C   UNL     1      24.039  47.340  49.902  1.00  0.00     0.034 C 
HETATM   30  C   UNL     1      24.684  48.520  49.189  1.00  0.00     0.010 C 
ENDBRANCH  26  29
ENDBRANCH   1  23
BRANCH   5  31
HETATM   31  C   UNL     1      30.265  43.486  54.854  1.00  0.00     0.085 C 
BRANCH  31  32
HETATM   32  C   UNL     1      29.818  44.808  55.477  1.00  0.00     0.034 C 
BRANCH  32  33
HETATM   33  C   UNL     1      28.313  45.031  55.391  1.00  0.00     0.164 C 
BRANCH  33  34
HETATM   34  O   UNL     1      28.029  46.006  54.393  1.00  0.00    -0.401 OA
HETATM   35  H   UNL     1      27.071  45.988  54.226  1.00  0.00     0.209 HD
ENDBRANCH  33  34
ENDBRANCH  32  33
ENDBRANCH  31  32
ENDBRANCH   5  31
TORSDOF 8
ENDMDL
