MODEL 1
REMARK VINA RESULT:      -9.5      0.000      0.000
REMARK  4 active torsions:
REMARK  status: ('A' for Active; 'I' for Inactive)
REMARK    1  A    between atoms: O_2  and  C_3 
REMARK    2  A    between atoms: C_5  and  C_6 
REMARK    3  A    between atoms: C_10  and  N_11 
REMARK    4  A    between atoms: C_14  and  C_15 
ROOT
HETATM    1  C   UNL     1      25.092  46.984  50.933  1.00  0.00     0.164 C 
HETATM    2  N   UNL     1      24.451  45.787  50.394  1.00  0.00    -0.074 N 
HETATM    3  C   UNL     1      24.636  44.527  50.902  1.00  0.00     0.736 C 
HETATM    4  N   UNL     1      23.827  43.699  50.296  1.00  0.00     0.131 NA
HETATM    5  C   UNL     1      23.134  44.511  49.448  1.00  0.00     0.753 C 
HETATM    6  N   UNL     1      23.424  45.807  49.524  1.00  0.00     0.037 NA
HETATM    7  N   UNL     1      25.520  44.290  51.895  1.00  0.00    -0.214 N 
HETATM    8  C   UNL     1      25.953  45.415  52.715  1.00  0.00     0.135 C 
HETATM    9  C   UNL     1      26.303  46.604  51.806  1.00  0.00     0.063 C 
HETATM   10  H   UNL     1      25.409  43.406  52.386  1.00  0.00     0.178 HD
ENDROOT
BRANCH   1  11
HETATM   11  C   UNL     1      25.525  48.002  49.884  1.00  0.00    -0.030 A 
HETATM   12  C   UNL     1      24.533  48.647  49.117  1.00  0.00     0.046 A 
HETATM   13  C   UNL     1      24.871  49.638  48.191  1.00  0.00     0.068 A 
HETATM   14  C   UNL     1      26.212  49.978  48.016  1.00  0.00     0.037 A 
HETATM   15  C   UNL     1      27.205  49.355  48.770  1.00  0.00     0.003 A 
HETATM   16  C   UNL     1      26.864  48.380  49.706  1.00  0.00     0.009 A 
BRANCH  13  17
HETATM   17  O   UNL     1      23.996  50.338  47.408  1.00  0.00    -0.356 OA
HETATM   18  C   UNL     1      22.612  50.200  47.705  1.00  0.00     0.210 C 
ENDBRANCH  13  17
ENDBRANCH   1  11
BRANCH   8  19
HETATM   19  C   UNL     1      27.148  45.032  53.569  1.00  0.00    -0.035 A 
HETATM   20  C   UNL     1      27.817  43.809  53.393  1.00  0.00     0.010 A 
HETATM   21  C   UNL     1      28.940  43.492  54.162  1.00  0.00     0.019 A 
HETATM   22  C   UNL     1      29.408  44.402  55.107  1.00  0.00     0.011 A 
HETATM   23 BR   UNL     1      30.934  43.980  56.141  1.00  0.00    -0.051 Br
HETATM   24  C   UNL     1      28.764  45.622  55.292  1.00  0.00     0.019 A 
HETATM   25  C   UNL     1      27.639  45.936  54.525  1.00  0.00     0.010 A 
ENDBRANCH   8  19
BRANCH   5  26
HETATM   26  N   UNL     1      22.201  43.971  48.670  1.00  0.00    -0.229 N 
HETATM   27  H   UNL     1      21.885  43.043  48.914  1.00  0.00     0.174 HD
HETATM   28  H   UNL     1      21.489  44.590  48.310  1.00  0.00     0.174 HD
ENDBRANCH   5  26
TORSDOF 4
ENDMDL
MODEL 2
REMARK VINA RESULT:      -9.1      1.661      2.190
REMARK  4 active torsions:
REMARK  status: ('A' for Active; 'I' for Inactive)
REMARK    1  A    between atoms: O_2  and  C_3 
REMARK    2  A    between atoms: C_5  and  C_6 
REMARK    3  A    between atoms: C_10  and  N_11 
REMARK    4  A    between atoms: C_14  and  C_15 
ROOT
HETATM    1  C   UNL     1      25.653  45.854  51.119  1.00  0.00     0.164 C 
HETATM    2  N   UNL     1      26.105  44.647  50.431  1.00  0.00    -0.074 N 
HETATM    3  C   UNL     1      26.946  43.718  50.991  1.00  0.00     0.736 C 
HETATM    4  N   UNL     1      27.051  42.696  50.183  1.00  0.00     0.131 NA
HETATM    5  C   UNL     1      26.221  43.031  49.154  1.00  0.00     0.753 C 
HETATM    6  N   UNL     1      25.561  44.178  49.293  1.00  0.00     0.037 NA
HETATM    7  N   UNL     1      27.501  43.912  52.206  1.00  0.00    -0.214 N 
HETATM    8  C   UNL     1      26.881  44.882  53.101  1.00  0.00     0.135 C 
HETATM    9  C   UNL     1      26.566  46.167  52.321  1.00  0.00     0.063 C 
HETATM   10  H   UNL     1      27.886  43.084  52.654  1.00  0.00     0.178 HD
ENDROOT
BRANCH   1  11
HETATM   11  C   UNL     1      25.543  47.089  50.233  1.00  0.00    -0.030 A 
HETATM   12  C   UNL     1      24.260  47.584  49.917  1.00  0.00     0.046 A 
HETATM   13  C   UNL     1      24.105  48.752  49.166  1.00  0.00     0.068 A 
HETATM   14  C   UNL     1      25.238  49.425  48.711  1.00  0.00     0.037 A 
HETATM   15  C   UNL     1      26.514  48.954  49.019  1.00  0.00     0.003 A 
HETATM   16  C   UNL     1      26.667  47.799  49.784  1.00  0.00     0.009 A 
BRANCH  13  17
HETATM   17  O   UNL     1      22.916  49.329  48.816  1.00  0.00    -0.356 OA
HETATM   18  C   UNL     1      22.934  50.222  47.709  1.00  0.00     0.210 C 
ENDBRANCH  13  17
ENDBRANCH   1  11
BRANCH   8  19
HETATM   19  C   UNL     1      27.787  45.185  54.279  1.00  0.00    -0.035 A 
HETATM   20  C   UNL     1      27.510  46.235  55.172  1.00  0.00     0.010 A 
HETATM   21  C   UNL     1      28.334  46.472  56.275  1.00  0.00     0.019 A 
HETATM   22  C   UNL     1      29.439  45.654  56.499  1.00  0.00     0.011 A 
HETATM   23 BR   UNL     1      30.549  45.966  57.997  1.00  0.00    -0.051 Br
HETATM   24  C   UNL     1      29.728  44.604  55.632  1.00  0.00     0.019 A 
HETATM   25  C   UNL     1      28.904  44.370  54.527  1.00  0.00     0.010 A 
ENDBRANCH   8  19
BRANCH   5  26
HETATM   26  N   UNL     1      26.089  42.180  48.141  1.00  0.00    -0.229 N 
HETATM   27  H   UNL     1      25.254  42.264  47.580  1.00  0.00     0.174 HD
HETATM   28  H   UNL     1      26.929  41.938  47.634  1.00  0.00     0.174 HD
ENDBRANCH   5  26
TORSDOF 4
ENDMDL
MODEL 3
REMARK VINA RESULT:      -9.0      3.909      7.174
REMARK  4 active torsions:
REMARK  status: ('A' for Active; 'I' for Inactive)
REMARK    1  A    between atoms: O_2  and  C_3 
REMARK    2  A    between atoms: C_5  and  C_6 
REMARK    3  A    between atoms: C_10  and  N_11 
REMARK    4  A    between atoms: C_14  and  C_15 
ROOT
HETATM    1  C   UNL     1      27.893  43.702  51.149  1.00  0.00     0.164 C 
HETATM    2  N   UNL     1      27.006  42.557  50.962  1.00  0.00    -0.074 N 
HETATM    3  C   UNL     1      25.789  42.628  50.332  1.00  0.00     0.736 C 
HETATM    4  N   UNL     1      25.303  41.422  50.204  1.00  0.00     0.131 NA
HETATM    5  C   UNL     1      26.283  40.638  50.737  1.00  0.00     0.753 C 
HETATM    6  N   UNL     1      27.377  41.276  51.145  1.00  0.00     0.037 NA
HETATM    7  N   UNL     1      25.276  43.807  49.922  1.00  0.00    -0.214 N 
HETATM    8  C   UNL     1      26.186  44.934  49.753  1.00  0.00     0.135 C 
HETATM    9  C   UNL     1      27.119  45.023  50.970  1.00  0.00     0.063 C 
HETATM   10  H   UNL     1      24.519  43.750  49.245  1.00  0.00     0.178 HD
ENDROOT
BRANCH   1  11
HETATM   11  C   UNL     1      28.631  43.725  52.482  1.00  0.00    -0.030 A 
HETATM   12  C   UNL     1      28.112  44.512  53.530  1.00  0.00     0.046 A 
HETATM   13  C   UNL     1      28.712  44.514  54.793  1.00  0.00     0.068 A 
HETATM   14  C   UNL     1      29.849  43.737  55.009  1.00  0.00     0.037 A 
HETATM   15  C   UNL     1      30.373  42.948  53.985  1.00  0.00     0.003 A 
HETATM   16  C   UNL     1      29.762  42.933  52.732  1.00  0.00     0.009 A 
BRANCH  13  17
HETATM   17  O   UNL     1      28.287  45.223  55.882  1.00  0.00    -0.356 OA
HETATM   18  C   UNL     1      29.273  45.954  56.601  1.00  0.00     0.210 C 
ENDBRANCH  13  17
ENDBRANCH   1  11
BRANCH   8  19
HETATM   19  C   UNL     1      25.415  46.230  49.581  1.00  0.00    -0.035 A 
HETATM   20  C   UNL     1      26.064  47.477  49.558  1.00  0.00     0.010 A 
HETATM   21  C   UNL     1      25.341  48.655  49.356  1.00  0.00     0.019 A 
HETATM   22  C   UNL     1      23.963  48.595  49.166  1.00  0.00     0.011 A 
HETATM   23 BR   UNL     1      22.984  50.187  48.882  1.00  0.00    -0.051 Br
HETATM   24  C   UNL     1      23.301  47.370  49.177  1.00  0.00     0.019 A 
HETATM   25  C   UNL     1      24.025  46.192  49.383  1.00  0.00     0.010 A 
ENDBRANCH   8  19
BRANCH   5  26
HETATM   26  N   UNL     1      26.104  39.320  50.755  1.00  0.00    -0.229 N 
HETATM   27  H   UNL     1      26.639  38.796  51.432  1.00  0.00     0.174 HD
HETATM   28  H   UNL     1      25.166  38.983  50.590  1.00  0.00     0.174 HD
ENDBRANCH   5  26
TORSDOF 4
ENDMDL
MODEL 4
REMARK VINA RESULT:      -8.7      4.776      6.653
REMARK  4 active torsions:
REMARK  status: ('A' for Active; 'I' for Inactive)
REMARK    1  A    between atoms: O_2  and  C_3 
REMARK    2  A    between atoms: C_5  and  C_6 
REMARK    3  A    between atoms: C_10  and  N_11 
REMARK    4  A    between atoms: C_14  and  C_15 
ROOT
HETATM    1  C   UNL     1      27.477  42.457  50.140  1.00  0.00     0.164 C 
HETATM    2  N   UNL     1      26.073  42.648  50.495  1.00  0.00    -0.074 N 
HETATM    3  C   UNL     1      25.653  43.237  51.661  1.00  0.00     0.736 C 
HETATM    4  N   UNL     1      24.355  43.384  51.622  1.00  0.00     0.131 NA
HETATM    5  C   UNL     1      24.028  42.904  50.388  1.00  0.00     0.753 C 
HETATM    6  N   UNL     1      25.050  42.513  49.631  1.00  0.00     0.037 NA
HETATM    7  N   UNL     1      26.528  43.597  52.623  1.00  0.00    -0.214 N 
HETATM    8  C   UNL     1      27.929  43.763  52.254  1.00  0.00     0.135 C 
HETATM    9  C   UNL     1      28.373  42.573  51.389  1.00  0.00     0.063 C 
HETATM   10  H   UNL     1      26.178  44.251  53.319  1.00  0.00     0.178 HD
ENDROOT
BRANCH   1  11
HETATM   11  C   UNL     1      27.779  41.147  49.422  1.00  0.00    -0.030 A 
HETATM   12  C   UNL     1      28.132  40.018  50.190  1.00  0.00     0.046 A 
HETATM   13  C   UNL     1      28.352  38.778  49.586  1.00  0.00     0.068 A 
HETATM   14  C   UNL     1      28.235  38.663  48.201  1.00  0.00     0.037 A 
HETATM   15  C   UNL     1      27.881  39.767  47.426  1.00  0.00     0.003 A 
HETATM   16  C   UNL     1      27.644  40.999  48.033  1.00  0.00     0.009 A 
BRANCH  13  17
HETATM   17  O   UNL     1      28.681  37.618  50.230  1.00  0.00    -0.356 OA
HETATM   18  C   UNL     1      29.932  37.588  50.907  1.00  0.00     0.210 C 
ENDBRANCH  13  17
ENDBRANCH   1  11
BRANCH   8  19
HETATM   19  C   UNL     1      28.804  43.874  53.489  1.00  0.00    -0.035 A 
HETATM   20  C   UNL     1      28.572  44.855  54.470  1.00  0.00     0.010 A 
HETATM   21  C   UNL     1      29.363  44.914  55.621  1.00  0.00     0.019 A 
HETATM   22  C   UNL     1      30.386  43.988  55.804  1.00  0.00     0.011 A 
HETATM   23 BR   UNL     1      31.449  44.060  57.365  1.00  0.00    -0.051 Br
HETATM   24  C   UNL     1      30.627  43.004  54.849  1.00  0.00     0.019 A 
HETATM   25  C   UNL     1      29.838  42.948  53.696  1.00  0.00     0.010 A 
ENDBRANCH   8  19
BRANCH   5  26
HETATM   26  N   UNL     1      22.751  42.917  50.019  1.00  0.00    -0.229 N 
HETATM   27  H   UNL     1      22.220  42.074  50.183  1.00  0.00     0.174 HD
HETATM   28  H   UNL     1      22.244  43.781  50.151  1.00  0.00     0.174 HD
ENDBRANCH   5  26
TORSDOF 4
ENDMDL
MODEL 5
REMARK VINA RESULT:      -8.7      4.061      5.792
REMARK  4 active torsions:
REMARK  status: ('A' for Active; 'I' for Inactive)
REMARK    1  A    between atoms: O_2  and  C_3 
REMARK    2  A    between atoms: C_5  and  C_6 
REMARK    3  A    between atoms: C_10  and  N_11 
REMARK    4  A    between atoms: C_14  and  C_15 
ROOT
HETATM    1  C   UNL     1      27.055  42.816  50.318  1.00  0.00     0.164 C 
HETATM    2  N   UNL     1      25.741  43.344  50.678  1.00  0.00    -0.074 N 
HETATM    3  C   UNL     1      25.491  44.055  51.824  1.00  0.00     0.736 C 
HETATM    4  N   UNL     1      24.263  44.501  51.790  1.00  0.00     0.131 NA
HETATM    5  C   UNL     1      23.812  44.068  50.578  1.00  0.00     0.753 C 
HETATM    6  N   UNL     1      24.700  43.422  49.828  1.00  0.00     0.037 NA
HETATM    7  N   UNL     1      26.443  44.234  52.763  1.00  0.00    -0.214 N 
HETATM    8  C   UNL     1      27.837  44.053  52.376  1.00  0.00     0.135 C 
HETATM    9  C   UNL     1      27.975  42.764  51.553  1.00  0.00     0.063 C 
HETATM   10  H   UNL     1      26.268  44.976  53.437  1.00  0.00     0.178 HD
ENDROOT
BRANCH   1  11
HETATM   11  C   UNL     1      27.030  41.448  49.647  1.00  0.00    -0.030 A 
HETATM   12  C   UNL     1      27.526  41.330  48.332  1.00  0.00     0.046 A 
HETATM   13  C   UNL     1      27.589  40.087  47.697  1.00  0.00     0.068 A 
HETATM   14  C   UNL     1      27.140  38.952  48.372  1.00  0.00     0.037 A 
HETATM   15  C   UNL     1      26.653  39.050  49.675  1.00  0.00     0.003 A 
HETATM   16  C   UNL     1      26.608  40.288  50.313  1.00  0.00     0.009 A 
BRANCH  13  17
HETATM   17  O   UNL     1      28.063  39.852  46.436  1.00  0.00    -0.356 OA
HETATM   18  C   UNL     1      27.824  40.858  45.459  1.00  0.00     0.210 C 
ENDBRANCH  13  17
ENDBRANCH   1  11
BRANCH   8  19
HETATM   19  C   UNL     1      28.735  44.000  53.599  1.00  0.00    -0.035 A 
HETATM   20  C   UNL     1      29.714  43.003  53.752  1.00  0.00     0.010 A 
HETATM   21  C   UNL     1      30.558  42.996  54.865  1.00  0.00     0.019 A 
HETATM   22  C   UNL     1      30.436  43.992  55.830  1.00  0.00     0.011 A 
HETATM   23 BR   UNL     1      31.585  43.990  57.332  1.00  0.00    -0.051 Br
HETATM   24  C   UNL     1      29.479  44.993  55.694  1.00  0.00     0.019 A 
HETATM   25  C   UNL     1      28.632  44.997  54.582  1.00  0.00     0.010 A 
ENDBRANCH   8  19
BRANCH   5  26
HETATM   26  N   UNL     1      22.567  44.367  50.220  1.00  0.00    -0.229 N 
HETATM   27  H   UNL     1      22.191  43.874  49.423  1.00  0.00     0.174 HD
HETATM   28  H   UNL     1      21.909  44.557  50.962  1.00  0.00     0.174 HD
ENDBRANCH   5  26
TORSDOF 4
ENDMDL
MODEL 6
REMARK VINA RESULT:      -8.4      7.526     11.312
REMARK  4 active torsions:
REMARK  status: ('A' for Active; 'I' for Inactive)
REMARK    1  A    between atoms: O_2  and  C_3 
REMARK    2  A    between atoms: C_5  and  C_6 
REMARK    3  A    between atoms: C_10  and  N_11 
REMARK    4  A    between atoms: C_14  and  C_15 
ROOT
HETATM    1  C   UNL     1      18.761  50.157  47.770  1.00  0.00     0.164 C 
HETATM    2  N   UNL     1      18.120  48.892  48.123  1.00  0.00    -0.074 N 
HETATM    3  C   UNL     1      16.781  48.765  48.396  1.00  0.00     0.736 C 
HETATM    4  N   UNL     1      16.494  47.498  48.541  1.00  0.00     0.131 NA
HETATM    5  C   UNL     1      17.688  46.883  48.306  1.00  0.00     0.753 C 
HETATM    6  N   UNL     1      18.695  47.685  47.972  1.00  0.00     0.037 NA
HETATM    7  N   UNL     1      15.969  49.841  48.454  1.00  0.00    -0.214 N 
HETATM    8  C   UNL     1      16.408  51.073  47.809  1.00  0.00     0.135 C 
HETATM    9  C   UNL     1      17.873  51.348  48.179  1.00  0.00     0.063 C 
HETATM   10  H   UNL     1      14.972  49.648  48.398  1.00  0.00     0.178 HD
ENDROOT
BRANCH   1  11
HETATM   11  C   UNL     1      20.158  50.345  48.349  1.00  0.00    -0.030 A 
HETATM   12  C   UNL     1      21.272  50.158  47.504  1.00  0.00     0.046 A 
HETATM   13  C   UNL     1      22.571  50.386  47.966  1.00  0.00     0.068 A 
HETATM   14  C   UNL     1      22.764  50.788  49.287  1.00  0.00     0.037 A 
HETATM   15  C   UNL     1      21.675  50.983  50.135  1.00  0.00     0.003 A 
HETATM   16  C   UNL     1      20.379  50.774  49.667  1.00  0.00     0.009 A 
BRANCH  13  17
HETATM   17  O   UNL     1      23.719  50.252  47.235  1.00  0.00    -0.356 OA
HETATM   18  C   UNL     1      24.924  50.037  47.958  1.00  0.00     0.210 C 
ENDBRANCH  13  17
ENDBRANCH   1  11
BRANCH   8  19
HETATM   19  C   UNL     1      15.529  52.240  48.219  1.00  0.00    -0.035 A 
HETATM   20  C   UNL     1      14.958  53.103  47.267  1.00  0.00     0.010 A 
HETATM   21  C   UNL     1      14.118  54.147  47.663  1.00  0.00     0.019 A 
HETATM   22  C   UNL     1      13.835  54.331  49.014  1.00  0.00     0.011 A 
HETATM   23 BR   UNL     1      12.690  55.736  49.551  1.00  0.00    -0.051 Br
HETATM   24  C   UNL     1      14.384  53.483  49.973  1.00  0.00     0.019 A 
HETATM   25  C   UNL     1      15.228  52.441  49.576  1.00  0.00     0.010 A 
ENDBRANCH   8  19
BRANCH   5  26
HETATM   26  N   UNL     1      17.742  45.556  48.369  1.00  0.00    -0.229 N 
HETATM   27  H   UNL     1      17.184  45.044  47.700  1.00  0.00     0.174 HD
HETATM   28  H   UNL     1      18.637  45.144  48.591  1.00  0.00     0.174 HD
ENDBRANCH   5  26
TORSDOF 4
ENDMDL
MODEL 7
REMARK VINA RESULT:      -8.4      4.677      7.869
REMARK  4 active torsions:
REMARK  status: ('A' for Active; 'I' for Inactive)
REMARK    1  A    between atoms: O_2  and  C_3 
REMARK    2  A    between atoms: C_5  and  C_6 
REMARK    3  A    between atoms: C_10  and  N_11 
REMARK    4  A    between atoms: C_14  and  C_15 
ROOT
HETATM    1  C   UNL     1      26.765  44.586  53.885  1.00  0.00     0.164 C 
HETATM    2  N   UNL     1      26.514  46.019  54.020  1.00  0.00    -0.074 N 
HETATM    3  C   UNL     1      25.651  46.723  53.218  1.00  0.00     0.736 C 
HETATM    4  N   UNL     1      25.544  47.943  53.674  1.00  0.00     0.131 NA
HETATM    5  C   UNL     1      26.334  47.926  54.785  1.00  0.00     0.753 C 
HETATM    6  N   UNL     1      26.889  46.755  55.083  1.00  0.00     0.037 NA
HETATM    7  N   UNL     1      25.037  46.142  52.166  1.00  0.00    -0.214 N 
HETATM    8  C   UNL     1      24.947  44.687  52.136  1.00  0.00     0.135 C 
HETATM    9  C   UNL     1      26.311  44.084  52.501  1.00  0.00     0.063 C 
HETATM   10  H   UNL     1      24.232  46.640  51.793  1.00  0.00     0.178 HD
ENDROOT
BRANCH   1  11
HETATM   11  C   UNL     1      28.210  44.167  54.127  1.00  0.00    -0.030 A 
HETATM   12  C   UNL     1      28.855  44.605  55.302  1.00  0.00     0.046 A 
HETATM   13  C   UNL     1      30.156  44.193  55.605  1.00  0.00     0.068 A 
HETATM   14  C   UNL     1      30.826  43.348  54.721  1.00  0.00     0.037 A 
HETATM   15  C   UNL     1      30.202  42.900  53.557  1.00  0.00     0.003 A 
HETATM   16  C   UNL     1      28.898  43.298  53.266  1.00  0.00     0.009 A 
BRANCH  13  17
HETATM   17  O   UNL     1      30.870  44.540  56.718  1.00  0.00    -0.356 OA
HETATM   18  C   UNL     1      31.672  43.528  57.312  1.00  0.00     0.210 C 
ENDBRANCH  13  17
ENDBRANCH   1  11
BRANCH   8  19
HETATM   19  C   UNL     1      24.502  44.202  50.768  1.00  0.00    -0.035 A 
HETATM   20  C   UNL     1      24.225  42.846  50.521  1.00  0.00     0.010 A 
HETATM   21  C   UNL     1      23.776  42.426  49.266  1.00  0.00     0.019 A 
HETATM   22  C   UNL     1      23.591  43.361  48.250  1.00  0.00     0.011 A 
HETATM   23 BR   UNL     1      22.974  42.796  46.555  1.00  0.00    -0.051 Br
HETATM   24  C   UNL     1      23.852  44.710  48.476  1.00  0.00     0.019 A 
HETATM   25  C   UNL     1      24.305  45.128  49.731  1.00  0.00     0.010 A 
ENDBRANCH   8  19
BRANCH   5  26
HETATM   26  N   UNL     1      26.441  49.039  55.505  1.00  0.00    -0.229 N 
HETATM   27  H   UNL     1      25.670  49.689  55.459  1.00  0.00     0.174 HD
HETATM   28  H   UNL     1      26.887  48.960  56.408  1.00  0.00     0.174 HD
ENDBRANCH   5  26
TORSDOF 4
ENDMDL
MODEL 8
REMARK VINA RESULT:      -8.3      4.948      8.789
REMARK  4 active torsions:
REMARK  status: ('A' for Active; 'I' for Inactive)
REMARK    1  A    between atoms: O_2  and  C_3 
REMARK    2  A    between atoms: C_5  and  C_6 
REMARK    3  A    between atoms: C_10  and  N_11 
REMARK    4  A    between atoms: C_14  and  C_15 
ROOT
HETATM    1  C   UNL     1      23.680  47.925  49.694  1.00  0.00     0.164 C 
HETATM    2  N   UNL     1      24.813  48.652  49.128  1.00  0.00    -0.074 N 
HETATM    3  C   UNL     1      24.698  49.841  48.453  1.00  0.00     0.736 C 
HETATM    4  N   UNL     1      25.893  50.303  48.194  1.00  0.00     0.131 NA
HETATM    5  C   UNL     1      26.712  49.376  48.769  1.00  0.00     0.753 C 
HETATM    6  N   UNL     1      26.101  48.388  49.418  1.00  0.00     0.037 NA
HETATM    7  N   UNL     1      23.492  50.380  48.176  1.00  0.00    -0.214 N 
HETATM    8  C   UNL     1      22.343  49.937  48.957  1.00  0.00     0.135 C 
HETATM    9  C   UNL     1      22.358  48.404  49.063  1.00  0.00     0.063 C 
HETATM   10  H   UNL     1      23.494  51.364  47.918  1.00  0.00     0.178 HD
ENDROOT
BRANCH   1  11
HETATM   11  C   UNL     1      23.774  46.408  49.579  1.00  0.00    -0.030 A 
HETATM   12  C   UNL     1      24.378  45.685  50.629  1.00  0.00     0.046 A 
HETATM   13  C   UNL     1      24.428  44.289  50.604  1.00  0.00     0.068 A 
HETATM   14  C   UNL     1      23.887  43.606  49.515  1.00  0.00     0.037 A 
HETATM   15  C   UNL     1      23.281  44.304  48.471  1.00  0.00     0.003 A 
HETATM   16  C   UNL     1      23.215  45.696  48.507  1.00  0.00     0.009 A 
BRANCH  13  17
HETATM   17  O   UNL     1      24.971  43.488  51.570  1.00  0.00    -0.356 OA
HETATM   18  C   UNL     1      25.491  44.132  52.726  1.00  0.00     0.210 C 
ENDBRANCH  13  17
ENDBRANCH   1  11
BRANCH   8  19
HETATM   19  C   UNL     1      21.046  50.412  48.327  1.00  0.00    -0.035 A 
HETATM   20  C   UNL     1      20.353  49.628  47.388  1.00  0.00     0.010 A 
HETATM   21  C   UNL     1      19.139  50.064  46.851  1.00  0.00     0.019 A 
HETATM   22  C   UNL     1      18.605  51.285  47.255  1.00  0.00     0.011 A 
HETATM   23 BR   UNL     1      16.957  51.872  46.537  1.00  0.00    -0.051 Br
HETATM   24  C   UNL     1      19.271  52.073  48.189  1.00  0.00     0.019 A 
HETATM   25  C   UNL     1      20.488  51.637  48.723  1.00  0.00     0.010 A 
ENDBRANCH   8  19
BRANCH   5  26
HETATM   26  N   UNL     1      28.027  49.555  48.692  1.00  0.00    -0.229 N 
HETATM   27  H   UNL     1      28.452  49.433  47.784  1.00  0.00     0.174 HD
HETATM   28  H   UNL     1      28.424  50.290  49.260  1.00  0.00     0.174 HD
ENDBRANCH   5  26
TORSDOF 4
ENDMDL
MODEL 9
REMARK VINA RESULT:      -8.2      4.808      7.463
REMARK  4 active torsions:
REMARK  status: ('A' for Active; 'I' for Inactive)
REMARK    1  A    between atoms: O_2  and  C_3 
REMARK    2  A    between atoms: C_5  and  C_6 
REMARK    3  A    between atoms: C_10  and  N_11 
REMARK    4  A    between atoms: C_14  and  C_15 
ROOT
HETATM    1  C   UNL     1      27.198  43.291  51.971  1.00  0.00     0.164 C 
HETATM    2  N   UNL     1      26.880  44.448  51.138  1.00  0.00    -0.074 N 
HETATM    3  C   UNL     1      26.594  44.370  49.798  1.00  0.00     0.736 C 
HETATM    4  N   UNL     1      26.221  45.547  49.371  1.00  0.00     0.131 NA
HETATM    5  C   UNL     1      26.258  46.309  50.501  1.00  0.00     0.753 C 
HETATM    6  N   UNL     1      26.581  45.668  51.621  1.00  0.00     0.037 NA
HETATM    7  N   UNL     1      26.684  43.203  49.126  1.00  0.00    -0.214 N 
HETATM    8  C   UNL     1      26.661  41.962  49.892  1.00  0.00     0.135 C 
HETATM    9  C   UNL     1      27.605  42.089  51.097  1.00  0.00     0.063 C 
HETATM   10  H   UNL     1      26.211  43.172  48.226  1.00  0.00     0.178 HD
ENDROOT
BRANCH   1  11
HETATM   11  C   UNL     1      28.272  43.539  53.023  1.00  0.00    -0.030 A 
HETATM   12  C   UNL     1      28.013  44.470  54.050  1.00  0.00     0.046 A 
HETATM   13  C   UNL     1      28.937  44.684  55.076  1.00  0.00     0.068 A 
HETATM   14  C   UNL     1      30.137  43.975  55.072  1.00  0.00     0.037 A 
HETATM   15  C   UNL     1      30.408  43.046  54.068  1.00  0.00     0.003 A 
HETATM   16  C   UNL     1      29.478  42.821  53.055  1.00  0.00     0.009 A 
BRANCH  13  17
HETATM   17  O   UNL     1      28.785  45.546  56.127  1.00  0.00    -0.356 OA
HETATM   18  C   UNL     1      29.931  45.790  56.933  1.00  0.00     0.210 C 
ENDBRANCH  13  17
ENDBRANCH   1  11
BRANCH   8  19
HETATM   19  C   UNL     1      27.065  40.784  49.024  1.00  0.00    -0.035 A 
HETATM   20  C   UNL     1      27.638  40.968  47.753  1.00  0.00     0.010 A 
HETATM   21  C   UNL     1      28.042  39.871  46.987  1.00  0.00     0.019 A 
HETATM   22  C   UNL     1      27.885  38.582  47.490  1.00  0.00     0.011 A 
HETATM   23 BR   UNL     1      28.441  37.098  46.460  1.00  0.00    -0.051 Br
HETATM   24  C   UNL     1      27.327  38.379  48.749  1.00  0.00     0.019 A 
HETATM   25  C   UNL     1      26.920  39.476  49.513  1.00  0.00     0.010 A 
ENDBRANCH   8  19
BRANCH   5  26
HETATM   26  N   UNL     1      25.919  47.592  50.414  1.00  0.00    -0.229 N 
HETATM   27  H   UNL     1      25.997  48.143  51.257  1.00  0.00     0.174 HD
HETATM   28  H   UNL     1      26.160  48.073  49.559  1.00  0.00     0.174 HD
ENDBRANCH   5  26
TORSDOF 4
ENDMDL
MODEL 10
REMARK VINA RESULT:      -7.8     11.580     13.103
REMARK  4 active torsions:
REMARK  status: ('A' for Active; 'I' for Inactive)
REMARK    1  A    between atoms: O_2  and  C_3 
REMARK    2  A    between atoms: C_5  and  C_6 
REMARK    3  A    between atoms: C_10  and  N_11 
REMARK    4  A    between atoms: C_14  and  C_15 
ROOT
HETATM    1  C   UNL     1      30.890  50.433  41.962  1.00  0.00     0.164 C 
HETATM    2  N   UNL     1      30.239  51.412  41.094  1.00  0.00    -0.074 N 
HETATM    3  C   UNL     1      29.183  51.117  40.269  1.00  0.00     0.736 C 
HETATM    4  N   UNL     1      28.741  52.223  39.731  1.00  0.00     0.131 NA
HETATM    5  C   UNL     1      29.538  53.177  40.290  1.00  0.00     0.753 C 
HETATM    6  N   UNL     1      30.419  52.742  41.187  1.00  0.00     0.037 NA
HETATM    7  N   UNL     1      28.728  49.854  40.130  1.00  0.00    -0.214 N 
HETATM    8  C   UNL     1      29.064  48.883  41.165  1.00  0.00     0.135 C 
HETATM    9  C   UNL     1      30.556  48.999  41.509  1.00  0.00     0.063 C 
HETATM   10  H   UNL     1      27.801  49.758  39.722  1.00  0.00     0.178 HD
ENDROOT
BRANCH   1  11
HETATM   11  C   UNL     1      32.402  50.589  42.075  1.00  0.00    -0.030 A 
HETATM   12  C   UNL     1      32.922  51.474  43.043  1.00  0.00     0.046 A 
HETATM   13  C   UNL     1      34.300  51.602  43.234  1.00  0.00     0.068 A 
HETATM   14  C   UNL     1      35.170  50.852  42.443  1.00  0.00     0.037 A 
HETATM   15  C   UNL     1      34.674  49.968  41.486  1.00  0.00     0.003 A 
HETATM   16  C   UNL     1      33.299  49.828  41.310  1.00  0.00     0.009 A 
BRANCH  13  17
HETATM   17  O   UNL     1      34.912  52.413  44.148  1.00  0.00    -0.356 OA
HETATM   18  C   UNL     1      36.289  52.700  43.937  1.00  0.00     0.210 C 
ENDBRANCH  13  17
ENDBRANCH   1  11
BRANCH   8  19
HETATM   19  C   UNL     1      28.733  47.473  40.709  1.00  0.00    -0.035 A 
HETATM   20  C   UNL     1      27.549  46.828  41.107  1.00  0.00     0.010 A 
HETATM   21  C   UNL     1      27.243  45.546  40.643  1.00  0.00     0.019 A 
HETATM   22  C   UNL     1      28.116  44.902  39.769  1.00  0.00     0.011 A 
HETATM   23 BR   UNL     1      27.698  43.172  39.131  1.00  0.00    -0.051 Br
HETATM   24  C   UNL     1      29.290  45.526  39.356  1.00  0.00     0.019 A 
HETATM   25  C   UNL     1      29.596  46.807  39.824  1.00  0.00     0.010 A 
ENDBRANCH   8  19
BRANCH   5  26
HETATM   26  N   UNL     1      29.341  54.448  39.951  1.00  0.00    -0.229 N 
HETATM   27  H   UNL     1      30.017  55.119  40.286  1.00  0.00     0.174 HD
HETATM   28  H   UNL     1      28.978  54.625  39.025  1.00  0.00     0.174 HD
ENDBRANCH   5  26
TORSDOF 4
ENDMDL
