MODEL 1
REMARK VINA RESULT:      -9.4      0.000      0.000
REMARK  6 active torsions:
REMARK  status: ('A' for Active; 'I' for Inactive)
REMARK    1  A    between atoms: C_2  and  O_3 
REMARK    2  A    between atoms: C_2  and  C_4 
REMARK    3  A    between atoms: C_6  and  N_7 
REMARK       I    between atoms: N_7  and  C_8 
REMARK    4  A    between atoms: C_8  and  C_9 
REMARK    5  A    between atoms: C_12  and  C_13 
REMARK    6  A    between atoms: C_18  and  C_19 
ROOT
HETATM    1  C   UNL     1      26.483  44.352  51.838  1.00  0.00     0.096 A 
HETATM    2  C   UNL     1      25.612  45.227  51.217  1.00  0.00     0.138 A 
HETATM    3  N   UNL     1      25.290  44.675  50.003  1.00  0.00    -0.240 N 
HETATM    4  C   UNL     1      24.490  45.342  48.989  1.00  0.00     0.221 C 
HETATM    5  C   UNL     1      23.722  46.535  49.597  1.00  0.00     0.068 C 
HETATM    6  C   UNL     1      24.603  47.346  50.559  1.00  0.00     0.143 C 
HETATM    7  N   UNL     1      25.102  46.429  51.588  1.00  0.00    -0.363 N 
HETATM    8  N   UNL     1      25.950  43.532  49.753  1.00  0.00    -0.181 NA
HETATM    9  C   UNL     1      26.646  43.325  50.875  1.00  0.00     0.160 A 
HETATM   10  H   UNL     1      25.527  46.890  52.399  1.00  0.00     0.162 HD
ENDROOT
BRANCH   1  11
HETATM   11  C   UNL     1      27.099  44.548  53.147  1.00  0.00     0.261 C 
HETATM   12  N   UNL     1      28.369  44.008  53.264  1.00  0.00    -0.323 N 
HETATM   13  H   UNL     1      28.719  43.480  52.479  1.00  0.00     0.169 HD
HETATM   14  O   UNL     1      26.501  45.152  54.033  1.00  0.00    -0.267 OA
BRANCH  12  15
HETATM   15  C   UNL     1      29.239  44.079  54.373  1.00  0.00     0.035 A 
HETATM   16  C   UNL     1      29.182  45.070  55.357  1.00  0.00     0.039 A 
HETATM   17  C   UNL     1      30.092  45.086  56.430  1.00  0.00    -0.028 A 
HETATM   18  C   UNL     1      31.062  44.079  56.509  1.00  0.00     0.010 A 
HETATM   19  C   UNL     1      31.130  43.087  55.535  1.00  0.00     0.003 A 
HETATM   20  C   UNL     1      30.223  43.087  54.474  1.00  0.00     0.029 A 
BRANCH  17  21
HETATM   21  C   UNL     1      29.979  46.158  57.493  1.00  0.00     0.147 C 
HETATM   22  C   UNL     1      28.541  46.318  57.971  1.00  0.00     0.044 C 
BRANCH  21  23
HETATM   23  O   UNL     1      30.808  45.829  58.606  1.00  0.00    -0.391 OA
HETATM   24  H   UNL     1      31.537  45.286  58.263  1.00  0.00     0.210 HD
ENDBRANCH  21  23
ENDBRANCH  17  21
ENDBRANCH  12  15
ENDBRANCH   1  11
BRANCH   4  25
HETATM   25  C   UNL     1      23.511  44.393  48.335  1.00  0.00     0.409 C 
HETATM   26  F   UNL     1      22.981  43.511  49.212  1.00  0.00    -0.169 F 
HETATM   27  F   UNL     1      22.466  45.096  47.817  1.00  0.00    -0.169 F 
HETATM   28  F   UNL     1      24.037  43.698  47.305  1.00  0.00    -0.169 F 
ENDBRANCH   4  25
BRANCH   6  29
HETATM   29  C   UNL     1      25.664  48.120  49.832  1.00  0.00     0.075 A 
HETATM   30  O   UNL     1      25.242  49.187  49.092  1.00  0.00    -0.325 OA
HETATM   31  C   UNL     1      26.345  49.740  48.525  1.00  0.00     0.142 A 
HETATM   32  C   UNL     1      27.474  49.046  48.890  1.00  0.00     0.027 A 
HETATM   33  C   UNL     1      27.036  48.000  49.737  1.00  0.00     0.037 A 
ENDBRANCH   6  29
TORSDOF 6
ENDMDL
MODEL 2
REMARK VINA RESULT:      -9.0      4.015      8.930
REMARK  6 active torsions:
REMARK  status: ('A' for Active; 'I' for Inactive)
REMARK    1  A    between atoms: C_2  and  O_3 
REMARK    2  A    between atoms: C_2  and  C_4 
REMARK    3  A    between atoms: C_6  and  N_7 
REMARK       I    between atoms: N_7  and  C_8 
REMARK    4  A    between atoms: C_8  and  C_9 
REMARK    5  A    between atoms: C_12  and  C_13 
REMARK    6  A    between atoms: C_18  and  C_19 
ROOT
HETATM    1  C   UNL     1      24.934  45.620  51.649  1.00  0.00     0.096 A 
HETATM    2  C   UNL     1      25.565  45.205  52.806  1.00  0.00     0.138 A 
HETATM    3  N   UNL     1      26.355  46.246  53.225  1.00  0.00    -0.240 N 
HETATM    4  C   UNL     1      27.279  46.169  54.344  1.00  0.00     0.221 C 
HETATM    5  C   UNL     1      26.962  44.948  55.233  1.00  0.00     0.068 C 
HETATM    6  C   UNL     1      26.644  43.701  54.393  1.00  0.00     0.143 C 
HETATM    7  N   UNL     1      25.533  44.037  53.498  1.00  0.00    -0.363 N 
HETATM    8  N   UNL     1      26.343  47.289  52.379  1.00  0.00    -0.181 NA
HETATM    9  C   UNL     1      25.461  46.920  51.445  1.00  0.00     0.160 A 
HETATM   10  H   UNL     1      25.096  43.231  53.040  1.00  0.00     0.162 HD
ENDROOT
BRANCH   1  11
HETATM   11  C   UNL     1      24.010  44.821  50.848  1.00  0.00     0.261 C 
HETATM   12  N   UNL     1      23.570  45.448  49.694  1.00  0.00    -0.323 N 
HETATM   13  H   UNL     1      23.863  46.403  49.549  1.00  0.00     0.169 HD
HETATM   14  O   UNL     1      23.689  43.692  51.208  1.00  0.00    -0.267 OA
BRANCH  12  15
HETATM   15  C   UNL     1      22.725  44.923  48.693  1.00  0.00     0.035 A 
HETATM   16  C   UNL     1      21.367  45.232  48.569  1.00  0.00     0.039 A 
HETATM   17  C   UNL     1      20.580  44.660  47.552  1.00  0.00    -0.028 A 
HETATM   18  C   UNL     1      21.181  43.774  46.649  1.00  0.00     0.010 A 
HETATM   19  C   UNL     1      22.532  43.458  46.764  1.00  0.00     0.003 A 
HETATM   20  C   UNL     1      23.299  44.030  47.780  1.00  0.00     0.029 A 
BRANCH  17  21
HETATM   21  C   UNL     1      19.121  45.043  47.429  1.00  0.00     0.147 C 
HETATM   22  C   UNL     1      18.451  44.321  46.266  1.00  0.00     0.044 C 
BRANCH  21  23
HETATM   23  O   UNL     1      18.431  44.724  48.637  1.00  0.00    -0.391 OA
HETATM   24  H   UNL     1      17.730  44.093  48.402  1.00  0.00     0.210 HD
ENDBRANCH  21  23
ENDBRANCH  17  21
ENDBRANCH  12  15
ENDBRANCH   1  11
BRANCH   4  25
HETATM   25  C   UNL     1      27.246  47.427  55.184  1.00  0.00     0.409 C 
HETATM   26  F   UNL     1      26.005  47.960  55.267  1.00  0.00    -0.169 F 
HETATM   27  F   UNL     1      27.627  47.138  56.459  1.00  0.00    -0.169 F 
HETATM   28  F   UNL     1      28.089  48.388  54.753  1.00  0.00    -0.169 F 
ENDBRANCH   4  25
BRANCH   6  29
HETATM   29  C   UNL     1      27.865  43.160  53.709  1.00  0.00     0.075 A 
HETATM   30  O   UNL     1      27.652  42.373  52.613  1.00  0.00    -0.325 OA
HETATM   31  C   UNL     1      28.872  41.994  52.151  1.00  0.00     0.142 A 
HETATM   32  C   UNL     1      29.870  42.525  52.934  1.00  0.00     0.027 A 
HETATM   33  C   UNL     1      29.221  43.281  53.939  1.00  0.00     0.037 A 
ENDBRANCH   6  29
TORSDOF 6
ENDMDL
MODEL 3
REMARK VINA RESULT:      -9.0      1.602      2.075
REMARK  6 active torsions:
REMARK  status: ('A' for Active; 'I' for Inactive)
REMARK    1  A    between atoms: C_2  and  O_3 
REMARK    2  A    between atoms: C_2  and  C_4 
REMARK    3  A    between atoms: C_6  and  N_7 
REMARK       I    between atoms: N_7  and  C_8 
REMARK    4  A    between atoms: C_8  and  C_9 
REMARK    5  A    between atoms: C_12  and  C_13 
REMARK    6  A    between atoms: C_18  and  C_19 
ROOT
HETATM    1  C   UNL     1      24.948  44.381  50.603  1.00  0.00     0.096 A 
HETATM    2  C   UNL     1      24.364  45.578  50.234  1.00  0.00     0.138 A 
HETATM    3  N   UNL     1      23.871  45.406  48.965  1.00  0.00    -0.240 N 
HETATM    4  C   UNL     1      23.285  46.471  48.167  1.00  0.00     0.221 C 
HETATM    5  C   UNL     1      22.917  47.680  49.054  1.00  0.00     0.068 C 
HETATM    6  C   UNL     1      24.017  47.985  50.082  1.00  0.00     0.143 C 
HETATM    7  N   UNL     1      24.240  46.771  50.870  1.00  0.00    -0.363 N 
HETATM    8  N   UNL     1      24.158  44.201  48.447  1.00  0.00    -0.181 NA
HETATM    9  C   UNL     1      24.781  43.574  49.450  1.00  0.00     0.160 A 
HETATM   10  H   UNL     1      24.798  46.910  51.720  1.00  0.00     0.162 HD
ENDROOT
BRANCH   1  11
HETATM   11  C   UNL     1      25.618  44.114  51.873  1.00  0.00     0.261 C 
HETATM   12  N   UNL     1      26.998  44.223  51.821  1.00  0.00    -0.323 N 
HETATM   13  H   UNL     1      27.412  44.402  50.919  1.00  0.00     0.169 HD
HETATM   14  O   UNL     1      24.966  43.829  52.874  1.00  0.00    -0.267 OA
BRANCH  12  15
HETATM   15  C   UNL     1      27.917  44.083  52.883  1.00  0.00     0.035 A 
HETATM   16  C   UNL     1      27.947  44.908  54.012  1.00  0.00     0.039 A 
HETATM   17  C   UNL     1      28.901  44.718  55.028  1.00  0.00    -0.028 A 
HETATM   18  C   UNL     1      29.826  43.674  54.900  1.00  0.00     0.010 A 
HETATM   19  C   UNL     1      29.807  42.847  53.781  1.00  0.00     0.003 A 
HETATM   20  C   UNL     1      28.857  43.051  52.779  1.00  0.00     0.029 A 
BRANCH  17  21
HETATM   21  C   UNL     1      28.882  45.611  56.250  1.00  0.00     0.147 C 
HETATM   22  C   UNL     1      30.284  45.813  56.814  1.00  0.00     0.044 C 
BRANCH  21  23
HETATM   23  O   UNL     1      28.325  46.881  55.915  1.00  0.00    -0.391 OA
HETATM   24  H   UNL     1      28.524  47.038  54.977  1.00  0.00     0.210 HD
ENDBRANCH  21  23
ENDBRANCH  17  21
ENDBRANCH  12  15
ENDBRANCH   1  11
BRANCH   4  25
HETATM   25  C   UNL     1      22.057  46.000  47.421  1.00  0.00     0.409 C 
HETATM   26  F   UNL     1      22.367  45.302  46.304  1.00  0.00    -0.169 F 
HETATM   27  F   UNL     1      21.334  45.159  48.211  1.00  0.00    -0.169 F 
HETATM   28  F   UNL     1      21.218  46.998  47.074  1.00  0.00    -0.169 F 
ENDBRANCH   4  25
BRANCH   6  29
HETATM   29  C   UNL     1      25.245  48.557  49.437  1.00  0.00     0.075 A 
HETATM   30  O   UNL     1      25.046  49.529  48.499  1.00  0.00    -0.325 OA
HETATM   31  C   UNL     1      26.270  49.904  48.048  1.00  0.00     0.142 A 
HETATM   32  C   UNL     1      27.258  49.189  48.682  1.00  0.00     0.027 A 
HETATM   33  C   UNL     1      26.597  48.320  49.582  1.00  0.00     0.037 A 
ENDBRANCH   6  29
TORSDOF 6
ENDMDL
MODEL 4
REMARK VINA RESULT:      -8.7     13.020     14.021
REMARK  6 active torsions:
REMARK  status: ('A' for Active; 'I' for Inactive)
REMARK    1  A    between atoms: C_2  and  O_3 
REMARK    2  A    between atoms: C_2  and  C_4 
REMARK    3  A    between atoms: C_6  and  N_7 
REMARK       I    between atoms: N_7  and  C_8 
REMARK    4  A    between atoms: C_8  and  C_9 
REMARK    5  A    between atoms: C_12  and  C_13 
REMARK    6  A    between atoms: C_18  and  C_19 
ROOT
HETATM    1  C   UNL     1      32.704  51.401  41.959  1.00  0.00     0.096 A 
HETATM    2  C   UNL     1      32.050  51.207  40.756  1.00  0.00     0.138 A 
HETATM    3  N   UNL     1      30.773  51.682  40.916  1.00  0.00    -0.240 N 
HETATM    4  C   UNL     1      29.724  51.553  39.918  1.00  0.00     0.221 C 
HETATM    5  C   UNL     1      30.322  51.203  38.539  1.00  0.00     0.068 C 
HETATM    6  C   UNL     1      31.430  50.145  38.652  1.00  0.00     0.143 C 
HETATM    7  N   UNL     1      32.443  50.657  39.579  1.00  0.00    -0.363 N 
HETATM    8  N   UNL     1      30.521  52.106  42.165  1.00  0.00    -0.181 NA
HETATM    9  C   UNL     1      31.697  51.964  42.783  1.00  0.00     0.160 A 
HETATM   10  H   UNL     1      33.326  50.137  39.575  1.00  0.00     0.162 HD
ENDROOT
BRANCH   1  11
HETATM   11  C   UNL     1      34.084  51.024  42.249  1.00  0.00     0.261 C 
HETATM   12  N   UNL     1      34.823  52.012  42.879  1.00  0.00    -0.323 N 
HETATM   13  H   UNL     1      34.375  52.906  43.013  1.00  0.00     0.169 HD
HETATM   14  O   UNL     1      34.503  49.910  41.947  1.00  0.00    -0.267 OA
BRANCH  12  15
HETATM   15  C   UNL     1      36.155  51.936  43.336  1.00  0.00     0.035 A 
HETATM   16  C   UNL     1      36.667  52.690  44.397  1.00  0.00     0.039 A 
HETATM   17  C   UNL     1      38.013  52.572  44.792  1.00  0.00    -0.028 A 
HETATM   18  C   UNL     1      38.842  51.674  44.109  1.00  0.00     0.010 A 
HETATM   19  C   UNL     1      38.344  50.919  43.051  1.00  0.00     0.003 A 
HETATM   20  C   UNL     1      37.008  51.049  42.668  1.00  0.00     0.029 A 
BRANCH  17  21
HETATM   21  C   UNL     1      38.523  53.381  45.965  1.00  0.00     0.147 C 
HETATM   22  C   UNL     1      37.830  54.736  46.050  1.00  0.00     0.044 C 
BRANCH  21  23
HETATM   23  O   UNL     1      38.305  52.667  47.181  1.00  0.00    -0.391 OA
HETATM   24  H   UNL     1      39.079  52.096  47.314  1.00  0.00     0.210 HD
ENDBRANCH  21  23
ENDBRANCH  17  21
ENDBRANCH  12  15
ENDBRANCH   1  11
BRANCH   4  25
HETATM   25  C   UNL     1      28.901  52.817  39.805  1.00  0.00     0.409 C 
HETATM   26  F   UNL     1      29.645  53.935  39.966  1.00  0.00    -0.169 F 
HETATM   27  F   UNL     1      28.351  52.897  38.562  1.00  0.00    -0.169 F 
HETATM   28  F   UNL     1      27.868  52.870  40.672  1.00  0.00    -0.169 F 
ENDBRANCH   4  25
BRANCH   6  29
HETATM   29  C   UNL     1      30.881  48.792  38.999  1.00  0.00     0.075 A 
HETATM   30  O   UNL     1      29.786  48.379  38.295  1.00  0.00    -0.325 OA
HETATM   31  C   UNL     1      29.455  47.147  38.759  1.00  0.00     0.142 A 
HETATM   32  C   UNL     1      30.323  46.757  39.752  1.00  0.00     0.027 A 
HETATM   33  C   UNL     1      31.246  47.818  39.906  1.00  0.00     0.037 A 
ENDBRANCH   6  29
TORSDOF 6
ENDMDL
MODEL 5
REMARK VINA RESULT:      -8.5      3.020      7.895
REMARK  6 active torsions:
REMARK  status: ('A' for Active; 'I' for Inactive)
REMARK    1  A    between atoms: C_2  and  O_3 
REMARK    2  A    between atoms: C_2  and  C_4 
REMARK    3  A    between atoms: C_6  and  N_7 
REMARK       I    between atoms: N_7  and  C_8 
REMARK    4  A    between atoms: C_8  and  C_9 
REMARK    5  A    between atoms: C_12  and  C_13 
REMARK    6  A    between atoms: C_18  and  C_19 
ROOT
HETATM    1  C   UNL     1      24.556  45.253  50.646  1.00  0.00     0.096 A 
HETATM    2  C   UNL     1      25.729  44.523  50.670  1.00  0.00     0.138 A 
HETATM    3  N   UNL     1      25.375  43.204  50.797  1.00  0.00    -0.240 N 
HETATM    4  C   UNL     1      26.324  42.118  50.983  1.00  0.00     0.221 C 
HETATM    5  C   UNL     1      27.752  42.571  50.608  1.00  0.00     0.068 C 
HETATM    6  C   UNL     1      28.059  43.979  51.138  1.00  0.00     0.143 C 
HETATM    7  N   UNL     1      27.036  44.887  50.612  1.00  0.00    -0.363 N 
HETATM    8  N   UNL     1      24.051  43.025  50.934  1.00  0.00    -0.181 NA
HETATM    9  C   UNL     1      23.558  44.261  50.811  1.00  0.00     0.160 A 
HETATM   10  H   UNL     1      27.252  45.883  50.724  1.00  0.00     0.162 HD
ENDROOT
BRANCH   1  11
HETATM   11  C   UNL     1      24.458  46.707  50.541  1.00  0.00     0.261 C 
HETATM   12  N   UNL     1      23.637  47.148  49.517  1.00  0.00    -0.323 N 
HETATM   13  H   UNL     1      23.245  46.447  48.906  1.00  0.00     0.169 HD
HETATM   14  O   UNL     1      25.068  47.430  51.323  1.00  0.00    -0.267 OA
BRANCH  12  15
HETATM   15  C   UNL     1      23.296  48.479  49.196  1.00  0.00     0.035 A 
HETATM   16  C   UNL     1      22.156  49.136  49.670  1.00  0.00     0.039 A 
HETATM   17  C   UNL     1      21.872  50.463  49.297  1.00  0.00    -0.028 A 
HETATM   18  C   UNL     1      22.758  51.130  48.442  1.00  0.00     0.010 A 
HETATM   19  C   UNL     1      23.895  50.486  47.963  1.00  0.00     0.003 A 
HETATM   20  C   UNL     1      24.162  49.168  48.338  1.00  0.00     0.029 A 
BRANCH  17  21
HETATM   21  C   UNL     1      20.645  51.151  49.856  1.00  0.00     0.147 C 
HETATM   22  C   UNL     1      19.786  51.746  48.747  1.00  0.00     0.044 C 
BRANCH  21  23
HETATM   23  O   UNL     1      19.864  50.222  50.605  1.00  0.00    -0.391 OA
HETATM   24  H   UNL     1      19.727  49.447  50.036  1.00  0.00     0.210 HD
ENDBRANCH  21  23
ENDBRANCH  17  21
ENDBRANCH  12  15
ENDBRANCH   1  11
BRANCH   4  25
HETATM   25  C   UNL     1      25.950  40.902  50.166  1.00  0.00     0.409 C 
HETATM   26  F   UNL     1      25.718  39.814  50.936  1.00  0.00    -0.169 F 
HETATM   27  F   UNL     1      24.796  41.145  49.485  1.00  0.00    -0.169 F 
HETATM   28  F   UNL     1      26.868  40.571  49.235  1.00  0.00    -0.169 F 
ENDBRANCH   4  25
BRANCH   6  29
HETATM   29  C   UNL     1      28.212  43.996  52.631  1.00  0.00     0.075 A 
HETATM   30  O   UNL     1      27.400  44.853  53.318  1.00  0.00    -0.325 OA
HETATM   31  C   UNL     1      27.696  44.712  54.636  1.00  0.00     0.142 A 
HETATM   32  C   UNL     1      28.687  43.774  54.809  1.00  0.00     0.027 A 
HETATM   33  C   UNL     1      29.019  43.309  53.515  1.00  0.00     0.037 A 
ENDBRANCH   6  29
TORSDOF 6
ENDMDL
MODEL 6
REMARK VINA RESULT:      -8.4      4.441      8.314
REMARK  6 active torsions:
REMARK  status: ('A' for Active; 'I' for Inactive)
REMARK    1  A    between atoms: C_2  and  O_3 
REMARK    2  A    between atoms: C_2  and  C_4 
REMARK    3  A    between atoms: C_6  and  N_7 
REMARK       I    between atoms: N_7  and  C_8 
REMARK    4  A    between atoms: C_8  and  C_9 
REMARK    5  A    between atoms: C_12  and  C_13 
REMARK    6  A    between atoms: C_18  and  C_19 
ROOT
HETATM    1  C   UNL     1      25.726  44.388  51.284  1.00  0.00     0.096 A 
HETATM    2  C   UNL     1      26.037  43.041  51.300  1.00  0.00     0.138 A 
HETATM    3  N   UNL     1      27.284  42.927  51.860  1.00  0.00    -0.240 N 
HETATM    4  C   UNL     1      28.027  41.680  51.948  1.00  0.00     0.221 C 
HETATM    5  C   UNL     1      27.095  40.471  51.724  1.00  0.00     0.068 C 
HETATM    6  C   UNL     1      26.113  40.718  50.568  1.00  0.00     0.143 C 
HETATM    7  N   UNL     1      25.366  41.942  50.870  1.00  0.00    -0.363 N 
HETATM    8  N   UNL     1      27.845  44.114  52.144  1.00  0.00    -0.181 NA
HETATM    9  C   UNL     1      26.889  44.992  51.824  1.00  0.00     0.160 A 
HETATM   10  H   UNL     1      24.542  42.095  50.280  1.00  0.00     0.162 HD
ENDROOT
BRANCH   1  11
HETATM   11  C   UNL     1      24.497  44.973  50.756  1.00  0.00     0.261 C 
HETATM   12  N   UNL     1      24.681  46.165  50.075  1.00  0.00    -0.323 N 
HETATM   13  H   UNL     1      25.614  46.550  50.067  1.00  0.00     0.169 HD
HETATM   14  O   UNL     1      23.417  44.411  50.923  1.00  0.00    -0.267 OA
BRANCH  12  15
HETATM   15  C   UNL     1      23.708  46.939  49.408  1.00  0.00     0.035 A 
HETATM   16  C   UNL     1      23.487  48.299  49.643  1.00  0.00     0.039 A 
HETATM   17  C   UNL     1      22.489  49.006  48.948  1.00  0.00    -0.028 A 
HETATM   18  C   UNL     1      21.716  48.327  47.998  1.00  0.00     0.010 A 
HETATM   19  C   UNL     1      21.926  46.972  47.756  1.00  0.00     0.003 A 
HETATM   20  C   UNL     1      22.917  46.283  48.456  1.00  0.00     0.029 A 
BRANCH  17  21
HETATM   21  C   UNL     1      22.300  50.486  49.207  1.00  0.00     0.147 C 
HETATM   22  C   UNL     1      21.000  50.997  48.598  1.00  0.00     0.044 C 
BRANCH  21  23
HETATM   23  O   UNL     1      22.289  50.736  50.612  1.00  0.00    -0.391 OA
HETATM   24  H   UNL     1      22.593  51.650  50.737  1.00  0.00     0.210 HD
ENDBRANCH  21  23
ENDBRANCH  17  21
ENDBRANCH  12  15
ENDBRANCH   1  11
BRANCH   4  25
HETATM   25  C   UNL     1      28.725  41.539  53.282  1.00  0.00     0.409 C 
HETATM   26  F   UNL     1      29.981  42.042  53.266  1.00  0.00    -0.169 F 
HETATM   27  F   UNL     1      28.044  42.237  54.233  1.00  0.00    -0.169 F 
HETATM   28  F   UNL     1      28.787  40.267  53.729  1.00  0.00    -0.169 F 
ENDBRANCH   4  25
BRANCH   6  29
HETATM   29  C   UNL     1      26.802  40.710  49.235  1.00  0.00     0.075 A 
HETATM   30  O   UNL     1      27.780  39.772  49.059  1.00  0.00    -0.325 OA
HETATM   31  C   UNL     1      28.267  39.936  47.802  1.00  0.00     0.142 A 
HETATM   32  C   UNL     1      27.617  40.965  47.163  1.00  0.00     0.027 A 
HETATM   33  C   UNL     1      26.668  41.464  48.086  1.00  0.00     0.037 A 
ENDBRANCH   6  29
TORSDOF 6
ENDMDL
MODEL 7
REMARK VINA RESULT:      -8.3      4.769      8.178
REMARK  6 active torsions:
REMARK  status: ('A' for Active; 'I' for Inactive)
REMARK    1  A    between atoms: C_2  and  O_3 
REMARK    2  A    between atoms: C_2  and  C_4 
REMARK    3  A    between atoms: C_6  and  N_7 
REMARK       I    between atoms: N_7  and  C_8 
REMARK    4  A    between atoms: C_8  and  C_9 
REMARK    5  A    between atoms: C_12  and  C_13 
REMARK    6  A    between atoms: C_18  and  C_19 
ROOT
HETATM    1  C   UNL     1      26.871  42.901  50.417  1.00  0.00     0.096 A 
HETATM    2  C   UNL     1      26.712  43.348  51.715  1.00  0.00     0.138 A 
HETATM    3  N   UNL     1      26.733  44.719  51.670  1.00  0.00    -0.240 N 
HETATM    4  C   UNL     1      26.718  45.575  52.845  1.00  0.00     0.221 C 
HETATM    5  C   UNL     1      26.264  44.784  54.091  1.00  0.00     0.068 C 
HETATM    6  C   UNL     1      26.908  43.390  54.144  1.00  0.00     0.143 C 
HETATM    7  N   UNL     1      26.574  42.696  52.898  1.00  0.00    -0.363 N 
HETATM    8  N   UNL     1      26.971  45.202  50.439  1.00  0.00    -0.181 NA
HETATM    9  C   UNL     1      27.022  44.103  49.681  1.00  0.00     0.160 A 
HETATM   10  H   UNL     1      26.769  41.690  52.905  1.00  0.00     0.162 HD
ENDROOT
BRANCH   1  11
HETATM   11  C   UNL     1      26.927  41.503  49.998  1.00  0.00     0.261 C 
HETATM   12  N   UNL     1      27.784  41.262  48.937  1.00  0.00    -0.323 N 
HETATM   13  H   UNL     1      28.228  42.063  48.513  1.00  0.00     0.169 HD
HETATM   14  O   UNL     1      26.255  40.652  50.575  1.00  0.00    -0.267 OA
BRANCH  12  15
HETATM   15  C   UNL     1      28.097  40.021  48.344  1.00  0.00     0.035 A 
HETATM   16  C   UNL     1      27.576  39.577  47.125  1.00  0.00     0.039 A 
HETATM   17  C   UNL     1      27.924  38.319  46.598  1.00  0.00    -0.028 A 
HETATM   18  C   UNL     1      28.816  37.510  47.312  1.00  0.00     0.010 A 
HETATM   19  C   UNL     1      29.340  37.940  48.528  1.00  0.00     0.003 A 
HETATM   20  C   UNL     1      28.983  39.189  49.039  1.00  0.00     0.029 A 
BRANCH  17  21
HETATM   21  C   UNL     1      27.363  37.887  45.260  1.00  0.00     0.147 C 
HETATM   22  C   UNL     1      28.174  38.462  44.105  1.00  0.00     0.044 C 
BRANCH  21  23
HETATM   23  O   UNL     1      27.364  36.463  45.169  1.00  0.00    -0.391 OA
HETATM   24  H   UNL     1      27.111  36.240  44.258  1.00  0.00     0.210 HD
ENDBRANCH  21  23
ENDBRANCH  17  21
ENDBRANCH  12  15
ENDBRANCH   1  11
BRANCH   4  25
HETATM   25  C   UNL     1      25.817  46.774  52.652  1.00  0.00     0.409 C 
HETATM   26  F   UNL     1      24.678  46.464  51.991  1.00  0.00    -0.169 F 
HETATM   27  F   UNL     1      25.437  47.262  53.865  1.00  0.00    -0.169 F 
HETATM   28  F   UNL     1      26.411  47.800  52.008  1.00  0.00    -0.169 F 
ENDBRANCH   4  25
BRANCH   6  29
HETATM   29  C   UNL     1      28.374  43.461  54.456  1.00  0.00     0.075 A 
HETATM   30  O   UNL     1      28.774  44.472  55.283  1.00  0.00    -0.325 OA
HETATM   31  C   UNL     1      30.118  44.355  55.434  1.00  0.00     0.142 A 
HETATM   32  C   UNL     1      30.592  43.282  54.717  1.00  0.00     0.027 A 
HETATM   33  C   UNL     1      29.466  42.701  54.087  1.00  0.00     0.037 A 
ENDBRANCH   6  29
TORSDOF 6
ENDMDL
MODEL 8
REMARK VINA RESULT:      -8.2      3.605      8.475
REMARK  6 active torsions:
REMARK  status: ('A' for Active; 'I' for Inactive)
REMARK    1  A    between atoms: C_2  and  O_3 
REMARK    2  A    between atoms: C_2  and  C_4 
REMARK    3  A    between atoms: C_6  and  N_7 
REMARK       I    between atoms: N_7  and  C_8 
REMARK    4  A    between atoms: C_8  and  C_9 
REMARK    5  A    between atoms: C_12  and  C_13 
REMARK    6  A    between atoms: C_18  and  C_19 
ROOT
HETATM    1  C   UNL     1      23.139  45.150  48.823  1.00  0.00     0.096 A 
HETATM    2  C   UNL     1      24.445  44.992  49.249  1.00  0.00     0.138 A 
HETATM    3  N   UNL     1      24.570  43.695  49.679  1.00  0.00    -0.240 N 
HETATM    4  C   UNL     1      25.760  43.159  50.318  1.00  0.00     0.221 C 
HETATM    5  C   UNL     1      26.972  44.084  50.080  1.00  0.00     0.068 C 
HETATM    6  C   UNL     1      26.597  45.565  50.240  1.00  0.00     0.143 C 
HETATM    7  N   UNL     1      25.496  45.848  49.315  1.00  0.00    -0.363 N 
HETATM    8  N   UNL     1      23.414  43.011  49.633  1.00  0.00    -0.181 NA
HETATM    9  C   UNL     1      22.561  43.883  49.087  1.00  0.00     0.160 A 
HETATM   10  H   UNL     1      25.300  46.845  49.179  1.00  0.00     0.162 HD
ENDROOT
BRANCH   1  11
HETATM   11  C   UNL     1      22.556  46.383  48.301  1.00  0.00     0.261 C 
HETATM   12  N   UNL     1      22.381  47.375  49.251  1.00  0.00    -0.323 N 
HETATM   13  H   UNL     1      22.600  47.141  50.207  1.00  0.00     0.169 HD
HETATM   14  O   UNL     1      22.269  46.481  47.111  1.00  0.00    -0.267 OA
BRANCH  12  15
HETATM   15  C   UNL     1      21.898  48.686  49.052  1.00  0.00     0.035 A 
HETATM   16  C   UNL     1      20.553  49.053  49.153  1.00  0.00     0.039 A 
HETATM   17  C   UNL     1      20.141  50.380  48.928  1.00  0.00    -0.028 A 
HETATM   18  C   UNL     1      21.105  51.343  48.609  1.00  0.00     0.010 A 
HETATM   19  C   UNL     1      22.448  50.990  48.504  1.00  0.00     0.003 A 
HETATM   20  C   UNL     1      22.841  49.669  48.726  1.00  0.00     0.029 A 
BRANCH  17  21
HETATM   21  C   UNL     1      18.679  50.745  49.077  1.00  0.00     0.147 C 
HETATM   22  C   UNL     1      18.510  52.116  49.721  1.00  0.00     0.044 C 
BRANCH  21  23
HETATM   23  O   UNL     1      18.045  50.747  47.799  1.00  0.00    -0.391 OA
HETATM   24  H   UNL     1      18.355  49.955  47.330  1.00  0.00     0.210 HD
ENDBRANCH  21  23
ENDBRANCH  17  21
ENDBRANCH  12  15
ENDBRANCH   1  11
BRANCH   4  25
HETATM   25  C   UNL     1      26.082  41.767  49.823  1.00  0.00     0.409 C 
HETATM   26  F   UNL     1      27.410  41.507  49.839  1.00  0.00    -0.169 F 
HETATM   27  F   UNL     1      25.500  40.844  50.637  1.00  0.00    -0.169 F 
HETATM   28  F   UNL     1      25.618  41.513  48.582  1.00  0.00    -0.169 F 
ENDBRANCH   4  25
BRANCH   6  29
HETATM   29  C   UNL     1      26.328  45.925  51.672  1.00  0.00     0.075 A 
HETATM   30  O   UNL     1      26.990  45.195  52.619  1.00  0.00    -0.325 OA
HETATM   31  C   UNL     1      26.610  45.677  53.830  1.00  0.00     0.142 A 
HETATM   32  C   UNL     1      25.714  46.709  53.679  1.00  0.00     0.027 A 
HETATM   33  C   UNL     1      25.533  46.872  52.285  1.00  0.00     0.037 A 
ENDBRANCH   6  29
TORSDOF 6
ENDMDL
MODEL 9
REMARK VINA RESULT:      -8.1     12.255     13.674
REMARK  6 active torsions:
REMARK  status: ('A' for Active; 'I' for Inactive)
REMARK    1  A    between atoms: C_2  and  O_3 
REMARK    2  A    between atoms: C_2  and  C_4 
REMARK    3  A    between atoms: C_6  and  N_7 
REMARK       I    between atoms: N_7  and  C_8 
REMARK    4  A    between atoms: C_8  and  C_9 
REMARK    5  A    between atoms: C_12  and  C_13 
REMARK    6  A    between atoms: C_18  and  C_19 
ROOT
HETATM    1  C   UNL     1      34.315  51.004  42.435  1.00  0.00     0.096 A 
HETATM    2  C   UNL     1      32.955  50.765  42.376  1.00  0.00     0.138 A 
HETATM    3  N   UNL     1      32.749  49.895  41.335  1.00  0.00    -0.240 N 
HETATM    4  C   UNL     1      31.436  49.487  40.862  1.00  0.00     0.221 C 
HETATM    5  C   UNL     1      30.351  49.812  41.911  1.00  0.00     0.068 C 
HETATM    6  C   UNL     1      30.562  51.201  42.534  1.00  0.00     0.143 C 
HETATM    7  N   UNL     1      31.911  51.232  43.107  1.00  0.00    -0.363 N 
HETATM    8  N   UNL     1      33.873  49.606  40.660  1.00  0.00    -0.181 NA
HETATM    9  C   UNL     1      34.821  50.252  41.345  1.00  0.00     0.160 A 
HETATM   10  H   UNL     1      32.091  52.027  43.729  1.00  0.00     0.162 HD
ENDROOT
BRANCH   1  11
HETATM   11  C   UNL     1      34.985  51.889  43.385  1.00  0.00     0.261 C 
HETATM   12  N   UNL     1      36.294  52.195  43.050  1.00  0.00    -0.323 N 
HETATM   13  H   UNL     1      36.681  51.735  42.240  1.00  0.00     0.169 HD
HETATM   14  O   UNL     1      34.391  52.304  44.376  1.00  0.00    -0.267 OA
BRANCH  12  15
HETATM   15  C   UNL     1      37.179  53.060  43.728  1.00  0.00     0.035 A 
HETATM   16  C   UNL     1      37.735  52.792  44.982  1.00  0.00     0.039 A 
HETATM   17  C   UNL     1      38.603  53.708  45.605  1.00  0.00    -0.028 A 
HETATM   18  C   UNL     1      38.915  54.902  44.943  1.00  0.00     0.010 A 
HETATM   19  C   UNL     1      38.367  55.180  43.695  1.00  0.00     0.003 A 
HETATM   20  C   UNL     1      37.505  54.264  43.090  1.00  0.00     0.029 A 
BRANCH  17  21
HETATM   21  C   UNL     1      39.210  53.369  46.950  1.00  0.00     0.147 C 
HETATM   22  C   UNL     1      38.346  53.881  48.096  1.00  0.00     0.044 C 
BRANCH  21  23
HETATM   23  O   UNL     1      39.361  51.956  47.073  1.00  0.00    -0.391 OA
HETATM   24  H   UNL     1      38.624  51.550  46.586  1.00  0.00     0.210 HD
ENDBRANCH  21  23
ENDBRANCH  17  21
ENDBRANCH  12  15
ENDBRANCH   1  11
BRANCH   4  25
HETATM   25  C   UNL     1      31.394  48.011  40.534  1.00  0.00     0.409 C 
HETATM   26  F   UNL     1      30.240  47.426  40.927  1.00  0.00    -0.169 F 
HETATM   27  F   UNL     1      31.474  47.838  39.186  1.00  0.00    -0.169 F 
HETATM   28  F   UNL     1      32.421  47.310  41.059  1.00  0.00    -0.169 F 
ENDBRANCH   4  25
BRANCH   6  29
HETATM   29  C   UNL     1      30.261  52.304  41.562  1.00  0.00     0.075 A 
HETATM   30  O   UNL     1      31.164  53.327  41.502  1.00  0.00    -0.325 OA
HETATM   31  C   UNL     1      30.709  54.206  40.572  1.00  0.00     0.142 A 
HETATM   32  C   UNL     1      29.525  53.764  40.031  1.00  0.00     0.027 A 
HETATM   33  C   UNL     1      29.236  52.534  40.667  1.00  0.00     0.037 A 
ENDBRANCH   6  29
TORSDOF 6
ENDMDL
MODEL 10
REMARK VINA RESULT:      -8.0     13.306     14.621
REMARK  6 active torsions:
REMARK  status: ('A' for Active; 'I' for Inactive)
REMARK    1  A    between atoms: C_2  and  O_3 
REMARK    2  A    between atoms: C_2  and  C_4 
REMARK    3  A    between atoms: C_6  and  N_7 
REMARK       I    between atoms: N_7  and  C_8 
REMARK    4  A    between atoms: C_8  and  C_9 
REMARK    5  A    between atoms: C_12  and  C_13 
REMARK    6  A    between atoms: C_18  and  C_19 
ROOT
HETATM    1  C   UNL     1      33.378  51.179  41.452  1.00  0.00     0.096 A 
HETATM    2  C   UNL     1      32.475  51.135  40.406  1.00  0.00     0.138 A 
HETATM    3  N   UNL     1      31.345  51.789  40.828  1.00  0.00    -0.240 N 
HETATM    4  C   UNL     1      30.110  51.859  40.063  1.00  0.00     0.221 C 
HETATM    5  C   UNL     1      30.359  51.482  38.587  1.00  0.00     0.068 C 
HETATM    6  C   UNL     1      31.290  50.266  38.462  1.00  0.00     0.143 C 
HETATM    7  N   UNL     1      32.535  50.582  39.168  1.00  0.00    -0.363 N 
HETATM    8  N   UNL     1      31.417  52.193  42.107  1.00  0.00    -0.181 NA
HETATM    9  C   UNL     1      32.656  51.851  42.470  1.00  0.00     0.160 A 
HETATM   10  H   UNL     1      33.308  49.937  38.978  1.00  0.00     0.162 HD
ENDROOT
BRANCH   1  11
HETATM   11  C   UNL     1      34.714  50.588  41.451  1.00  0.00     0.261 C 
HETATM   12  N   UNL     1      35.718  51.454  41.852  1.00  0.00    -0.323 N 
HETATM   13  H   UNL     1      35.455  52.410  42.036  1.00  0.00     0.169 HD
HETATM   14  O   UNL     1      34.877  49.417  41.120  1.00  0.00    -0.267 OA
BRANCH  12  15
HETATM   15  C   UNL     1      37.091  51.170  42.009  1.00  0.00     0.035 A 
HETATM   16  C   UNL     1      37.609  50.294  42.967  1.00  0.00     0.039 A 
HETATM   17  C   UNL     1      38.994  50.068  43.075  1.00  0.00    -0.028 A 
HETATM   18  C   UNL     1      39.858  50.732  42.196  1.00  0.00     0.010 A 
HETATM   19  C   UNL     1      39.354  51.608  41.239  1.00  0.00     0.003 A 
HETATM   20  C   UNL     1      37.978  51.825  41.146  1.00  0.00     0.029 A 
BRANCH  17  21
HETATM   21  C   UNL     1      39.515  49.088  44.104  1.00  0.00     0.147 C 
HETATM   22  C   UNL     1      40.451  49.767  45.097  1.00  0.00     0.044 C 
BRANCH  21  23
HETATM   23  O   UNL     1      38.425  48.503  44.815  1.00  0.00    -0.391 OA
HETATM   24  H   UNL     1      38.775  47.719  45.271  1.00  0.00     0.210 HD
ENDBRANCH  21  23
ENDBRANCH  17  21
ENDBRANCH  12  15
ENDBRANCH   1  11
BRANCH   4  25
HETATM   25  C   UNL     1      29.487  53.235  40.134  1.00  0.00     0.409 C 
HETATM   26  F   UNL     1      28.868  53.582  38.982  1.00  0.00    -0.169 F 
HETATM   27  F   UNL     1      28.534  53.258  41.106  1.00  0.00    -0.169 F 
HETATM   28  F   UNL     1      30.363  54.211  40.450  1.00  0.00    -0.169 F 
ENDBRANCH   4  25
BRANCH   6  29
HETATM   29  C   UNL     1      30.619  48.997  38.899  1.00  0.00     0.075 A 
HETATM   30  O   UNL     1      31.379  48.123  39.623  1.00  0.00    -0.325 OA
HETATM   31  C   UNL     1      30.591  47.056  39.914  1.00  0.00     0.142 A 
HETATM   32  C   UNL     1      29.332  47.230  39.390  1.00  0.00     0.027 A 
HETATM   33  C   UNL     1      29.347  48.485  38.737  1.00  0.00     0.037 A 
ENDBRANCH   6  29
TORSDOF 6
ENDMDL
