MODEL 1
REMARK VINA RESULT:      -8.4      0.000      0.000
REMARK  5 active torsions:
REMARK  status: ('A' for Active; 'I' for Inactive)
REMARK    1  A    between atoms: C_9  and  C_10 
REMARK    2  A    between atoms: C_11  and  O_12 
REMARK    3  A    between atoms: O_12  and  C_13 
REMARK    4  A    between atoms: C_20  and  C_21 
REMARK       I    between atoms: C_21  and  N_22 
REMARK    5  A    between atoms: N_22  and  C_23 
ROOT
HETATM    1  C   UNL     1      25.362  42.881  50.134  1.00  0.00     0.070 C 
HETATM    2  C   UNL     1      25.418  44.305  50.626  1.00  0.00     0.037 C 
HETATM    3  N   UNL     1      26.228  44.522  51.738  1.00  0.00    -0.192 N 
HETATM    4  C   UNL     1      26.153  45.642  52.485  1.00  0.00     0.725 A 
HETATM    5  N   UNL     1      25.408  46.700  52.040  1.00  0.00    -0.084 N 
HETATM    6  N   UNL     1      25.341  47.678  52.971  1.00  0.00    -0.149 NA
HETATM    7  C   UNL     1      26.132  47.165  53.921  1.00  0.00     0.275 A 
HETATM    8  N   UNL     1      26.648  45.920  53.664  1.00  0.00    -0.054 NA
HETATM    9  C   UNL     1      24.710  46.725  50.750  1.00  0.00     0.205 C 
HETATM   10  C   UNL     1      24.694  45.334  50.115  1.00  0.00     0.063 C 
HETATM   11  H   UNL     1      26.673  43.709  52.158  1.00  0.00     0.184 HD
ENDROOT
BRANCH   9  12
HETATM   12  C   UNL     1      25.350  47.796  49.861  1.00  0.00     0.005 A 
HETATM   13  C   UNL     1      24.556  48.796  49.263  1.00  0.00     0.083 A 
HETATM   14  C   UNL     1      25.154  49.780  48.468  1.00  0.00     0.037 A 
HETATM   15  C   UNL     1      26.538  49.808  48.296  1.00  0.00     0.003 A 
HETATM   16  C   UNL     1      27.336  48.852  48.916  1.00  0.00     0.001 A 
HETATM   17  C   UNL     1      26.749  47.855  49.694  1.00  0.00     0.012 A 
BRANCH  13  18
HETATM   18  O   UNL     1      23.209  48.719  49.488  1.00  0.00    -0.290 OA
BRANCH  18  19
HETATM   19  C   UNL     1      22.407  49.824  49.088  1.00  0.00     0.505 C 
HETATM   20  F   UNL     1      21.121  49.445  48.890  1.00  0.00    -0.184 F 
HETATM   21  F   UNL     1      22.421  50.766  50.064  1.00  0.00    -0.184 F 
ENDBRANCH  18  19
ENDBRANCH  13  18
ENDBRANCH   9  12
BRANCH  10  22
HETATM   22  C   UNL     1      23.721  45.189  48.998  1.00  0.00     0.256 C 
HETATM   23  N   UNL     1      22.500  45.774  49.254  1.00  0.00    -0.323 N 
HETATM   24  H   UNL     1      22.371  46.193  50.165  1.00  0.00     0.169 HD
HETATM   25  O   UNL     1      24.062  44.575  47.996  1.00  0.00    -0.267 OA
BRANCH  23  26
HETATM   26  C   UNL     1      21.415  45.908  48.360  1.00  0.00     0.035 A 
HETATM   27  C   UNL     1      21.458  46.666  47.189  1.00  0.00     0.029 A 
HETATM   28  C   UNL     1      20.328  46.774  46.371  1.00  0.00     0.002 A 
HETATM   29  C   UNL     1      19.144  46.129  46.721  1.00  0.00     0.000 A 
HETATM   30  C   UNL     1      19.091  45.368  47.885  1.00  0.00     0.002 A 
HETATM   31  C   UNL     1      20.222  45.254  48.698  1.00  0.00     0.029 A 
ENDBRANCH  23  26
ENDBRANCH  10  22
TORSDOF 5
ENDMDL
MODEL 2
REMARK VINA RESULT:      -8.0      3.507      7.001
REMARK  5 active torsions:
REMARK  status: ('A' for Active; 'I' for Inactive)
REMARK    1  A    between atoms: C_9  and  C_10 
REMARK    2  A    between atoms: C_11  and  O_12 
REMARK    3  A    between atoms: O_12  and  C_13 
REMARK    4  A    between atoms: C_20  and  C_21 
REMARK       I    between atoms: C_21  and  N_22 
REMARK    5  A    between atoms: N_22  and  C_23 
ROOT
HETATM    1  C   UNL     1      28.344  40.798  53.413  1.00  0.00     0.070 C 
HETATM    2  C   UNL     1      27.858  41.194  52.042  1.00  0.00     0.037 C 
HETATM    3  N   UNL     1      27.580  40.138  51.178  1.00  0.00    -0.192 N 
HETATM    4  C   UNL     1      27.440  40.304  49.847  1.00  0.00     0.725 A 
HETATM    5  N   UNL     1      27.364  41.570  49.332  1.00  0.00    -0.084 N 
HETATM    6  N   UNL     1      27.358  41.548  47.980  1.00  0.00    -0.149 NA
HETATM    7  C   UNL     1      27.359  40.228  47.757  1.00  0.00     0.275 A 
HETATM    8  N   UNL     1      27.410  39.432  48.873  1.00  0.00    -0.054 NA
HETATM    9  C   UNL     1      27.370  42.789  50.147  1.00  0.00     0.205 C 
HETATM   10  C   UNL     1      27.751  42.471  51.594  1.00  0.00     0.063 C 
HETATM   11  H   UNL     1      27.771  39.197  51.514  1.00  0.00     0.184 HD
ENDROOT
BRANCH   9  12
HETATM   12  C   UNL     1      26.011  43.483  50.012  1.00  0.00     0.005 A 
HETATM   13  C   UNL     1      25.939  44.855  49.691  1.00  0.00     0.083 A 
HETATM   14  C   UNL     1      24.692  45.474  49.552  1.00  0.00     0.037 A 
HETATM   15  C   UNL     1      23.516  44.736  49.682  1.00  0.00     0.003 A 
HETATM   16  C   UNL     1      23.575  43.374  49.955  1.00  0.00     0.001 A 
HETATM   17  C   UNL     1      24.811  42.750  50.116  1.00  0.00     0.012 A 
BRANCH  13  18
HETATM   18  O   UNL     1      27.131  45.512  49.560  1.00  0.00    -0.290 OA
BRANCH  18  19
HETATM   19  C   UNL     1      27.091  46.922  49.367  1.00  0.00     0.505 C 
HETATM   20  F   UNL     1      26.903  47.569  50.543  1.00  0.00    -0.184 F 
HETATM   21  F   UNL     1      28.271  47.337  48.844  1.00  0.00    -0.184 F 
ENDBRANCH  18  19
ENDBRANCH  13  18
ENDBRANCH   9  12
BRANCH  10  22
HETATM   22  C   UNL     1      28.123  43.667  52.399  1.00  0.00     0.256 C 
HETATM   23  N   UNL     1      27.038  44.409  52.814  1.00  0.00    -0.323 N 
HETATM   24  H   UNL     1      26.125  44.105  52.504  1.00  0.00     0.169 HD
HETATM   25  O   UNL     1      29.308  43.895  52.601  1.00  0.00    -0.267 OA
BRANCH  23  26
HETATM   26  C   UNL     1      27.050  45.525  53.679  1.00  0.00     0.035 A 
HETATM   27  C   UNL     1      27.928  45.669  54.755  1.00  0.00     0.029 A 
HETATM   28  C   UNL     1      27.855  46.793  55.586  1.00  0.00     0.002 A 
HETATM   29  C   UNL     1      26.899  47.779  55.351  1.00  0.00     0.000 A 
HETATM   30  C   UNL     1      26.021  47.646  54.279  1.00  0.00     0.002 A 
HETATM   31  C   UNL     1      26.099  46.527  53.445  1.00  0.00     0.029 A 
ENDBRANCH  23  26
ENDBRANCH  10  22
TORSDOF 5
ENDMDL
MODEL 3
REMARK VINA RESULT:      -7.6      4.748      8.421
REMARK  5 active torsions:
REMARK  status: ('A' for Active; 'I' for Inactive)
REMARK    1  A    between atoms: C_9  and  C_10 
REMARK    2  A    between atoms: C_11  and  O_12 
REMARK    3  A    between atoms: O_12  and  C_13 
REMARK    4  A    between atoms: C_20  and  C_21 
REMARK       I    between atoms: C_21  and  N_22 
REMARK    5  A    between atoms: N_22  and  C_23 
ROOT
HETATM    1  C   UNL     1      28.739  38.002  50.565  1.00  0.00     0.070 C 
HETATM    2  C   UNL     1      28.250  39.011  49.558  1.00  0.00     0.037 C 
HETATM    3  N   UNL     1      28.258  38.584  48.232  1.00  0.00    -0.192 N 
HETATM    4  C   UNL     1      28.154  39.437  47.193  1.00  0.00     0.725 A 
HETATM    5  N   UNL     1      27.828  40.746  47.426  1.00  0.00    -0.084 N 
HETATM    6  N   UNL     1      27.898  41.478  46.291  1.00  0.00    -0.149 NA
HETATM    7  C   UNL     1      28.202  40.523  45.404  1.00  0.00     0.275 A 
HETATM    8  N   UNL     1      28.369  39.261  45.914  1.00  0.00    -0.054 NA
HETATM    9  C   UNL     1      27.522  41.290  48.754  1.00  0.00     0.205 C 
HETATM   10  C   UNL     1      27.887  40.286  49.848  1.00  0.00     0.063 C 
HETATM   11  H   UNL     1      28.634  37.659  48.041  1.00  0.00     0.184 HD
ENDROOT
BRANCH   9  12
HETATM   12  C   UNL     1      26.052  41.721  48.785  1.00  0.00     0.005 A 
HETATM   13  C   UNL     1      25.705  43.050  49.107  1.00  0.00     0.083 A 
HETATM   14  C   UNL     1      24.361  43.437  49.115  1.00  0.00     0.037 A 
HETATM   15  C   UNL     1      23.360  42.532  48.763  1.00  0.00     0.003 A 
HETATM   16  C   UNL     1      23.693  41.231  48.403  1.00  0.00     0.001 A 
HETATM   17  C   UNL     1      25.028  40.827  48.411  1.00  0.00     0.012 A 
BRANCH  13  18
HETATM   18  O   UNL     1      26.737  43.889  49.423  1.00  0.00    -0.290 OA
BRANCH  18  19
HETATM   19  C   UNL     1      26.424  45.251  49.694  1.00  0.00     0.505 C 
HETATM   20  F   UNL     1      26.177  45.440  51.012  1.00  0.00    -0.184 F 
HETATM   21  F   UNL     1      27.478  46.031  49.348  1.00  0.00    -0.184 F 
ENDBRANCH  18  19
ENDBRANCH  13  18
ENDBRANCH   9  12
BRANCH  10  22
HETATM   22  C   UNL     1      27.943  40.874  51.214  1.00  0.00     0.256 C 
HETATM   23  N   UNL     1      28.958  41.793  51.376  1.00  0.00    -0.323 N 
HETATM   24  H   UNL     1      29.575  41.942  50.590  1.00  0.00     0.169 HD
HETATM   25  O   UNL     1      27.133  40.498  52.051  1.00  0.00    -0.267 OA
BRANCH  23  26
HETATM   26  C   UNL     1      29.202  42.603  52.507  1.00  0.00     0.035 A 
HETATM   27  C   UNL     1      30.268  42.412  53.388  1.00  0.00     0.029 A 
HETATM   28  C   UNL     1      30.422  43.239  54.506  1.00  0.00     0.002 A 
HETATM   29  C   UNL     1      29.509  44.261  54.754  1.00  0.00     0.000 A 
HETATM   30  C   UNL     1      28.444  44.462  53.880  1.00  0.00     0.002 A 
HETATM   31  C   UNL     1      28.294  43.640  52.760  1.00  0.00     0.029 A 
ENDBRANCH  23  26
ENDBRANCH  10  22
TORSDOF 5
ENDMDL
MODEL 4
REMARK VINA RESULT:      -7.5      4.555      7.531
REMARK  5 active torsions:
REMARK  status: ('A' for Active; 'I' for Inactive)
REMARK    1  A    between atoms: C_9  and  C_10 
REMARK    2  A    between atoms: C_11  and  O_12 
REMARK    3  A    between atoms: O_12  and  C_13 
REMARK    4  A    between atoms: C_20  and  C_21 
REMARK       I    between atoms: C_21  and  N_22 
REMARK    5  A    between atoms: N_22  and  C_23 
ROOT
HETATM    1  C   UNL     1      23.535  42.864  48.250  1.00  0.00     0.070 C 
HETATM    2  C   UNL     1      24.371  43.731  49.156  1.00  0.00     0.037 C 
HETATM    3  N   UNL     1      24.048  45.086  49.151  1.00  0.00    -0.192 N 
HETATM    4  C   UNL     1      24.871  46.032  49.647  1.00  0.00     0.725 A 
HETATM    5  N   UNL     1      25.974  45.655  50.365  1.00  0.00    -0.084 N 
HETATM    6  N   UNL     1      26.748  46.721  50.668  1.00  0.00    -0.149 NA
HETATM    7  C   UNL     1      26.007  47.713  50.162  1.00  0.00     0.275 A 
HETATM    8  N   UNL     1      24.851  47.334  49.527  1.00  0.00    -0.054 NA
HETATM    9  C   UNL     1      26.306  44.263  50.688  1.00  0.00     0.205 C 
HETATM   10  C   UNL     1      25.427  43.298  49.890  1.00  0.00     0.063 C 
HETATM   11  H   UNL     1      23.319  45.391  48.510  1.00  0.00     0.184 HD
ENDROOT
BRANCH   9  12
HETATM   12  C   UNL     1      26.206  44.069  52.204  1.00  0.00     0.005 A 
HETATM   13  C   UNL     1      27.286  43.518  52.925  1.00  0.00     0.083 A 
HETATM   14  C   UNL     1      27.191  43.363  54.313  1.00  0.00     0.037 A 
HETATM   15  C   UNL     1      26.053  43.790  54.997  1.00  0.00     0.003 A 
HETATM   16  C   UNL     1      25.000  44.374  54.302  1.00  0.00     0.001 A 
HETATM   17  C   UNL     1      25.074  44.515  52.917  1.00  0.00     0.012 A 
BRANCH  13  18
HETATM   18  O   UNL     1      28.376  43.138  52.193  1.00  0.00    -0.290 OA
BRANCH  18  19
HETATM   19  C   UNL     1      29.467  42.545  52.889  1.00  0.00     0.505 C 
HETATM   20  F   UNL     1      29.568  41.226  52.599  1.00  0.00    -0.184 F 
HETATM   21  F   UNL     1      30.621  43.147  52.512  1.00  0.00    -0.184 F 
ENDBRANCH  18  19
ENDBRANCH  13  18
ENDBRANCH   9  12
BRANCH  10  22
HETATM   22  C   UNL     1      25.921  41.894  49.885  1.00  0.00     0.256 C 
HETATM   23  N   UNL     1      26.895  41.657  48.939  1.00  0.00    -0.323 N 
HETATM   24  H   UNL     1      27.142  42.425  48.328  1.00  0.00     0.169 HD
HETATM   25  O   UNL     1      25.431  41.095  50.671  1.00  0.00    -0.267 OA
BRANCH  23  26
HETATM   26  C   UNL     1      27.639  40.470  48.760  1.00  0.00     0.035 A 
HETATM   27  C   UNL     1      28.503  39.938  49.719  1.00  0.00     0.029 A 
HETATM   28  C   UNL     1      29.229  38.773  49.452  1.00  0.00     0.002 A 
HETATM   29  C   UNL     1      29.101  38.132  48.222  1.00  0.00     0.000 A 
HETATM   30  C   UNL     1      28.240  38.652  47.260  1.00  0.00     0.002 A 
HETATM   31  C   UNL     1      27.509  39.813  47.529  1.00  0.00     0.029 A 
ENDBRANCH  23  26
ENDBRANCH  10  22
TORSDOF 5
ENDMDL
MODEL 5
REMARK VINA RESULT:      -7.3      9.939     11.208
REMARK  5 active torsions:
REMARK  status: ('A' for Active; 'I' for Inactive)
REMARK    1  A    between atoms: C_9  and  C_10 
REMARK    2  A    between atoms: C_11  and  O_12 
REMARK    3  A    between atoms: O_12  and  C_13 
REMARK    4  A    between atoms: C_20  and  C_21 
REMARK       I    between atoms: C_21  and  N_22 
REMARK    5  A    between atoms: N_22  and  C_23 
ROOT
HETATM    1  C   UNL     1      29.609  45.471  39.015  1.00  0.00     0.070 C 
HETATM    2  C   UNL     1      29.913  46.847  39.553  1.00  0.00     0.037 C 
HETATM    3  N   UNL     1      31.195  47.015  40.073  1.00  0.00    -0.192 N 
HETATM    4  C   UNL     1      31.528  48.058  40.861  1.00  0.00     0.725 A 
HETATM    5  N   UNL     1      30.653  49.100  41.004  1.00  0.00    -0.084 N 
HETATM    6  N   UNL     1      31.093  49.986  41.926  1.00  0.00    -0.149 NA
HETATM    7  C   UNL     1      32.276  49.443  42.240  1.00  0.00     0.275 A 
HETATM    8  N   UNL     1      32.579  48.262  41.613  1.00  0.00    -0.054 NA
HETATM    9  C   UNL     1      29.369  49.195  40.301  1.00  0.00     0.205 C 
HETATM   10  C   UNL     1      29.022  47.867  39.626  1.00  0.00     0.063 C 
HETATM   11  H   UNL     1      31.801  46.199  40.097  1.00  0.00     0.184 HD
ENDROOT
BRANCH   9  12
HETATM   12  C   UNL     1      29.421  50.379  39.331  1.00  0.00     0.005 A 
HETATM   13  C   UNL     1      28.459  51.408  39.409  1.00  0.00     0.083 A 
HETATM   14  C   UNL     1      28.527  52.494  38.529  1.00  0.00     0.037 A 
HETATM   15  C   UNL     1      29.566  52.593  37.604  1.00  0.00     0.003 A 
HETATM   16  C   UNL     1      30.544  51.606  37.547  1.00  0.00     0.001 A 
HETATM   17  C   UNL     1      30.476  50.509  38.404  1.00  0.00     0.012 A 
BRANCH  13  18
HETATM   18  O   UNL     1      27.480  51.256  40.351  1.00  0.00    -0.290 OA
BRANCH  18  19
HETATM   19  C   UNL     1      27.640  51.943  41.588  1.00  0.00     0.505 C 
HETATM   20  F   UNL     1      28.910  52.388  41.736  1.00  0.00    -0.184 F 
HETATM   21  F   UNL     1      26.813  53.016  41.615  1.00  0.00    -0.184 F 
ENDBRANCH  18  19
ENDBRANCH  13  18
ENDBRANCH   9  12
BRANCH  10  22
HETATM   22  C   UNL     1      27.601  47.760  39.197  1.00  0.00     0.256 C 
HETATM   23  N   UNL     1      26.706  48.226  40.137  1.00  0.00    -0.323 N 
HETATM   24  H   UNL     1      27.087  48.544  41.018  1.00  0.00     0.169 HD
HETATM   25  O   UNL     1      27.351  47.272  38.103  1.00  0.00    -0.267 OA
BRANCH  23  26
HETATM   26  C   UNL     1      25.309  48.365  39.988  1.00  0.00     0.035 A 
HETATM   27  C   UNL     1      24.372  47.514  40.577  1.00  0.00     0.029 A 
HETATM   28  C   UNL     1      23.004  47.701  40.354  1.00  0.00     0.002 A 
HETATM   29  C   UNL     1      22.561  48.738  39.536  1.00  0.00     0.000 A 
HETATM   30  C   UNL     1      23.486  49.595  38.947  1.00  0.00     0.002 A 
HETATM   31  C   UNL     1      24.853  49.412  39.175  1.00  0.00     0.029 A 
ENDBRANCH  23  26
ENDBRANCH  10  22
TORSDOF 5
ENDMDL
MODEL 6
REMARK VINA RESULT:      -7.2      3.414      7.159
REMARK  5 active torsions:
REMARK  status: ('A' for Active; 'I' for Inactive)
REMARK    1  A    between atoms: C_9  and  C_10 
REMARK    2  A    between atoms: C_11  and  O_12 
REMARK    3  A    between atoms: O_12  and  C_13 
REMARK    4  A    between atoms: C_20  and  C_21 
REMARK       I    between atoms: C_21  and  N_22 
REMARK    5  A    between atoms: N_22  and  C_23 
ROOT
HETATM    1  C   UNL     1      23.110  51.247  48.537  1.00  0.00     0.070 C 
HETATM    2  C   UNL     1      21.685  50.754  48.568  1.00  0.00     0.037 C 
HETATM    3  N   UNL     1      20.720  51.729  48.806  1.00  0.00    -0.192 N 
HETATM    4  C   UNL     1      19.457  51.429  49.171  1.00  0.00     0.725 A 
HETATM    5  N   UNL     1      19.032  50.129  49.116  1.00  0.00    -0.084 N 
HETATM    6  N   UNL     1      17.792  49.998  49.639  1.00  0.00    -0.149 NA
HETATM    7  C   UNL     1      17.509  51.275  49.920  1.00  0.00     0.275 A 
HETATM    8  N   UNL     1      18.501  52.183  49.650  1.00  0.00    -0.054 NA
HETATM    9  C   UNL     1      19.854  49.017  48.625  1.00  0.00     0.205 C 
HETATM   10  C   UNL     1      21.310  49.454  48.457  1.00  0.00     0.063 C 
HETATM   11  H   UNL     1      21.046  52.675  48.988  1.00  0.00     0.184 HD
ENDROOT
BRANCH   9  12
HETATM   12  C   UNL     1      19.228  48.468  47.340  1.00  0.00     0.005 A 
HETATM   13  C   UNL     1      18.781  47.132  47.278  1.00  0.00     0.083 A 
HETATM   14  C   UNL     1      18.194  46.646  46.105  1.00  0.00     0.037 A 
HETATM   15  C   UNL     1      18.005  47.485  45.007  1.00  0.00     0.003 A 
HETATM   16  C   UNL     1      18.402  48.816  45.071  1.00  0.00     0.001 A 
HETATM   17  C   UNL     1      19.007  49.306  46.227  1.00  0.00     0.012 A 
BRANCH  13  18
HETATM   18  O   UNL     1      18.981  46.371  48.397  1.00  0.00    -0.290 OA
BRANCH  18  19
HETATM   19  C   UNL     1      19.739  45.174  48.256  1.00  0.00     0.505 C 
HETATM   20  F   UNL     1      20.733  45.332  47.350  1.00  0.00    -0.184 F 
HETATM   21  F   UNL     1      20.303  44.857  49.447  1.00  0.00    -0.184 F 
ENDBRANCH  18  19
ENDBRANCH  13  18
ENDBRANCH   9  12
BRANCH  10  22
HETATM   22  C   UNL     1      22.267  48.324  48.307  1.00  0.00     0.256 C 
HETATM   23  N   UNL     1      22.918  47.996  49.477  1.00  0.00    -0.323 N 
HETATM   24  H   UNL     1      22.723  48.566  50.289  1.00  0.00     0.169 HD
HETATM   25  O   UNL     1      22.406  47.813  47.204  1.00  0.00    -0.267 OA
BRANCH  23  26
HETATM   26  C   UNL     1      23.793  46.908  49.689  1.00  0.00     0.035 A 
HETATM   27  C   UNL     1      23.494  45.588  49.345  1.00  0.00     0.029 A 
HETATM   28  C   UNL     1      24.404  44.560  49.618  1.00  0.00     0.002 A 
HETATM   29  C   UNL     1      25.617  44.844  50.241  1.00  0.00     0.000 A 
HETATM   30  C   UNL     1      25.926  46.157  50.584  1.00  0.00     0.002 A 
HETATM   31  C   UNL     1      25.021  47.184  50.305  1.00  0.00     0.029 A 
ENDBRANCH  23  26
ENDBRANCH  10  22
TORSDOF 5
ENDMDL
MODEL 7
REMARK VINA RESULT:      -7.1     10.015     11.758
REMARK  5 active torsions:
REMARK  status: ('A' for Active; 'I' for Inactive)
REMARK    1  A    between atoms: C_9  and  C_10 
REMARK    2  A    between atoms: C_11  and  O_12 
REMARK    3  A    between atoms: O_12  and  C_13 
REMARK    4  A    between atoms: C_20  and  C_21 
REMARK       I    between atoms: C_21  and  N_22 
REMARK    5  A    between atoms: N_22  and  C_23 
ROOT
HETATM    1  C   UNL     1      25.188  49.167  39.295  1.00  0.00     0.070 C 
HETATM    2  C   UNL     1      26.639  49.538  39.118  1.00  0.00     0.037 C 
HETATM    3  N   UNL     1      26.887  50.890  38.891  1.00  0.00    -0.192 N 
HETATM    4  C   UNL     1      28.063  51.343  38.411  1.00  0.00     0.725 A 
HETATM    5  N   UNL     1      29.129  50.489  38.327  1.00  0.00    -0.084 N 
HETATM    6  N   UNL     1      30.177  51.075  37.705  1.00  0.00    -0.149 NA
HETATM    7  C   UNL     1      29.688  52.306  37.510  1.00  0.00     0.275 A 
HETATM    8  N   UNL     1      28.397  52.511  37.926  1.00  0.00    -0.054 NA
HETATM    9  C   UNL     1      29.101  49.095  38.783  1.00  0.00     0.205 C 
HETATM   10  C   UNL     1      27.669  48.655  39.093  1.00  0.00     0.063 C 
HETATM   11  H   UNL     1      26.081  51.506  38.813  1.00  0.00     0.184 HD
ENDROOT
BRANCH   9  12
HETATM   12  C   UNL     1      30.058  48.942  39.968  1.00  0.00     0.005 A 
HETATM   13  C   UNL     1      29.822  49.641  41.171  1.00  0.00     0.083 A 
HETATM   14  C   UNL     1      30.693  49.480  42.254  1.00  0.00     0.037 A 
HETATM   15  C   UNL     1      31.770  48.598  42.172  1.00  0.00     0.003 A 
HETATM   16  C   UNL     1      31.988  47.871  41.007  1.00  0.00     0.001 A 
HETATM   17  C   UNL     1      31.139  48.038  39.914  1.00  0.00     0.012 A 
BRANCH  13  18
HETATM   18  O   UNL     1      28.739  50.475  41.187  1.00  0.00    -0.290 OA
BRANCH  18  19
HETATM   19  C   UNL     1      28.927  51.796  41.683  1.00  0.00     0.505 C 
HETATM   20  F   UNL     1      29.855  52.461  40.953  1.00  0.00    -0.184 F 
HETATM   21  F   UNL     1      27.759  52.478  41.598  1.00  0.00    -0.184 F 
ENDBRANCH  18  19
ENDBRANCH  13  18
ENDBRANCH   9  12
BRANCH  10  22
HETATM   22  C   UNL     1      27.504  47.182  39.219  1.00  0.00     0.256 C 
HETATM   23  N   UNL     1      27.461  46.742  40.525  1.00  0.00    -0.323 N 
HETATM   24  H   UNL     1      27.588  47.436  41.250  1.00  0.00     0.169 HD
HETATM   25  O   UNL     1      27.440  46.507  38.200  1.00  0.00    -0.267 OA
BRANCH  23  26
HETATM   26  C   UNL     1      27.201  45.430  40.975  1.00  0.00     0.035 A 
HETATM   27  C   UNL     1      27.795  44.287  40.435  1.00  0.00     0.029 A 
HETATM   28  C   UNL     1      27.460  43.017  40.916  1.00  0.00     0.002 A 
HETATM   29  C   UNL     1      26.523  42.879  41.938  1.00  0.00     0.000 A 
HETATM   30  C   UNL     1      25.927  44.011  42.485  1.00  0.00     0.002 A 
HETATM   31  C   UNL     1      26.267  45.280  42.009  1.00  0.00     0.029 A 
ENDBRANCH  23  26
ENDBRANCH  10  22
TORSDOF 5
ENDMDL
MODEL 8
REMARK VINA RESULT:      -7.0     20.213     22.358
REMARK  5 active torsions:
REMARK  status: ('A' for Active; 'I' for Inactive)
REMARK    1  A    between atoms: C_9  and  C_10 
REMARK    2  A    between atoms: C_11  and  O_12 
REMARK    3  A    between atoms: O_12  and  C_13 
REMARK    4  A    between atoms: C_20  and  C_21 
REMARK       I    between atoms: C_21  and  N_22 
REMARK    5  A    between atoms: N_22  and  C_23 
ROOT
HETATM    1  C   UNL     1      38.507  47.524  66.021  1.00  0.00     0.070 C 
HETATM    2  C   UNL     1      39.603  46.598  65.556  1.00  0.00     0.037 C 
HETATM    3  N   UNL     1      40.899  47.091  65.688  1.00  0.00    -0.192 N 
HETATM    4  C   UNL     1      41.954  46.544  65.050  1.00  0.00     0.725 A 
HETATM    5  N   UNL     1      41.804  45.345  64.408  1.00  0.00    -0.084 N 
HETATM    6  N   UNL     1      42.919  45.016  63.719  1.00  0.00    -0.149 NA
HETATM    7  C   UNL     1      43.723  46.032  64.056  1.00  0.00     0.275 A 
HETATM    8  N   UNL     1      43.170  46.990  64.868  1.00  0.00    -0.054 NA
HETATM    9  C   UNL     1      40.561  44.564  64.408  1.00  0.00     0.205 C 
HETATM   10  C   UNL     1      39.402  45.391  64.969  1.00  0.00     0.063 C 
HETATM   11  H   UNL     1      41.004  48.041  66.035  1.00  0.00     0.184 HD
ENDROOT
BRANCH   9  12
HETATM   12  C   UNL     1      40.799  43.254  65.163  1.00  0.00     0.005 A 
HETATM   13  C   UNL     1      40.548  42.014  64.538  1.00  0.00     0.083 A 
HETATM   14  C   UNL     1      40.786  40.823  65.232  1.00  0.00     0.037 A 
HETATM   15  C   UNL     1      41.315  40.847  66.522  1.00  0.00     0.003 A 
HETATM   16  C   UNL     1      41.607  42.062  67.133  1.00  0.00     0.001 A 
HETATM   17  C   UNL     1      41.354  43.257  66.459  1.00  0.00     0.012 A 
BRANCH  13  18
HETATM   18  O   UNL     1      40.048  42.064  63.267  1.00  0.00    -0.290 OA
BRANCH  18  19
HETATM   19  C   UNL     1      38.889  41.289  62.980  1.00  0.00     0.505 C 
HETATM   20  F   UNL     1      37.852  42.081  62.618  1.00  0.00    -0.184 F 
HETATM   21  F   UNL     1      39.155  40.448  61.950  1.00  0.00    -0.184 F 
ENDBRANCH  18  19
ENDBRANCH  13  18
ENDBRANCH   9  12
BRANCH  10  22
HETATM   22  C   UNL     1      38.058  44.819  64.684  1.00  0.00     0.256 C 
HETATM   23  N   UNL     1      37.570  44.028  65.703  1.00  0.00    -0.323 N 
HETATM   24  H   UNL     1      38.173  43.881  66.501  1.00  0.00     0.169 HD
HETATM   25  O   UNL     1      37.528  45.068  63.610  1.00  0.00    -0.267 OA
BRANCH  23  26
HETATM   26  C   UNL     1      36.289  43.441  65.786  1.00  0.00     0.035 A 
HETATM   27  C   UNL     1      35.190  44.048  66.395  1.00  0.00     0.029 A 
HETATM   28  C   UNL     1      33.960  43.385  66.464  1.00  0.00     0.002 A 
HETATM   29  C   UNL     1      33.821  42.106  65.929  1.00  0.00     0.000 A 
HETATM   30  C   UNL     1      34.910  41.493  65.316  1.00  0.00     0.002 A 
HETATM   31  C   UNL     1      36.136  42.158  65.241  1.00  0.00     0.029 A 
ENDBRANCH  23  26
ENDBRANCH  10  22
TORSDOF 5
ENDMDL
MODEL 9
REMARK VINA RESULT:      -7.0     20.402     22.515
REMARK  5 active torsions:
REMARK  status: ('A' for Active; 'I' for Inactive)
REMARK    1  A    between atoms: C_9  and  C_10 
REMARK    2  A    between atoms: C_11  and  O_12 
REMARK    3  A    between atoms: O_12  and  C_13 
REMARK    4  A    between atoms: C_20  and  C_21 
REMARK       I    between atoms: C_21  and  N_22 
REMARK    5  A    between atoms: N_22  and  C_23 
ROOT
HETATM    1  C   UNL     1      43.357  45.657  63.859  1.00  0.00     0.070 C 
HETATM    2  C   UNL     1      42.272  46.137  64.791  1.00  0.00     0.037 C 
HETATM    3  N   UNL     1      42.626  47.195  65.625  1.00  0.00    -0.192 N 
HETATM    4  C   UNL     1      41.904  47.536  66.712  1.00  0.00     0.725 A 
HETATM    5  N   UNL     1      40.673  46.971  66.907  1.00  0.00    -0.084 N 
HETATM    6  N   UNL     1      40.155  47.327  68.104  1.00  0.00    -0.149 NA
HETATM    7  C   UNL     1      41.102  48.168  68.539  1.00  0.00     0.275 A 
HETATM    8  N   UNL     1      42.189  48.322  67.718  1.00  0.00    -0.054 NA
HETATM    9  C   UNL     1      40.042  46.036  65.969  1.00  0.00     0.205 C 
HETATM   10  C   UNL     1      41.044  45.572  64.911  1.00  0.00     0.063 C 
HETATM   11  H   UNL     1      43.587  47.524  65.580  1.00  0.00     0.184 HD
ENDROOT
BRANCH   9  12
HETATM   12  C   UNL     1      38.792  46.695  65.379  1.00  0.00     0.005 A 
HETATM   13  C   UNL     1      37.607  45.950  65.203  1.00  0.00     0.083 A 
HETATM   14  C   UNL     1      36.465  46.567  64.680  1.00  0.00     0.037 A 
HETATM   15  C   UNL     1      36.473  47.927  64.372  1.00  0.00     0.003 A 
HETATM   16  C   UNL     1      37.622  48.682  64.581  1.00  0.00     0.001 A 
HETATM   17  C   UNL     1      38.772  48.074  65.083  1.00  0.00     0.012 A 
BRANCH  13  18
HETATM   18  O   UNL     1      37.665  44.627  65.543  1.00  0.00    -0.290 OA
BRANCH  18  19
HETATM   19  C   UNL     1      36.854  43.718  64.807  1.00  0.00     0.505 C 
HETATM   20  F   UNL     1      37.237  43.666  63.509  1.00  0.00    -0.184 F 
HETATM   21  F   UNL     1      36.982  42.474  65.332  1.00  0.00    -0.184 F 
ENDBRANCH  18  19
ENDBRANCH  13  18
ENDBRANCH   9  12
BRANCH  10  22
HETATM   22  C   UNL     1      40.603  44.375  64.144  1.00  0.00     0.256 C 
HETATM   23  N   UNL     1      40.620  43.211  64.883  1.00  0.00    -0.323 N 
HETATM   24  H   UNL     1      40.963  43.273  65.833  1.00  0.00     0.169 HD
HETATM   25  O   UNL     1      40.294  44.510  62.968  1.00  0.00    -0.267 OA
BRANCH  23  26
HETATM   26  C   UNL     1      40.155  41.940  64.482  1.00  0.00     0.035 A 
HETATM   27  C   UNL     1      39.738  41.635  63.185  1.00  0.00     0.029 A 
HETATM   28  C   UNL     1      39.260  40.357  62.875  1.00  0.00     0.002 A 
HETATM   29  C   UNL     1      39.190  39.375  63.861  1.00  0.00     0.000 A 
HETATM   30  C   UNL     1      39.606  39.668  65.156  1.00  0.00     0.002 A 
HETATM   31  C   UNL     1      40.090  40.942  65.464  1.00  0.00     0.029 A 
ENDBRANCH  23  26
ENDBRANCH  10  22
TORSDOF 5
ENDMDL
MODEL 10
REMARK VINA RESULT:      -6.9      3.893      6.231
REMARK  5 active torsions:
REMARK  status: ('A' for Active; 'I' for Inactive)
REMARK    1  A    between atoms: C_9  and  C_10 
REMARK    2  A    between atoms: C_11  and  O_12 
REMARK    3  A    between atoms: O_12  and  C_13 
REMARK    4  A    between atoms: C_20  and  C_21 
REMARK       I    between atoms: C_21  and  N_22 
REMARK    5  A    between atoms: N_22  and  C_23 
ROOT
HETATM    1  C   UNL     1      21.595  45.163  48.569  1.00  0.00     0.070 C 
HETATM    2  C   UNL     1      22.954  45.493  49.133  1.00  0.00     0.037 C 
HETATM    3  N   UNL     1      23.210  46.849  49.321  1.00  0.00    -0.192 N 
HETATM    4  C   UNL     1      24.453  47.335  49.515  1.00  0.00     0.725 A 
HETATM    5  N   UNL     1      25.487  46.467  49.739  1.00  0.00    -0.084 N 
HETATM    6  N   UNL     1      26.672  47.117  49.780  1.00  0.00    -0.149 NA
HETATM    7  C   UNL     1      26.260  48.383  49.646  1.00  0.00     0.275 A 
HETATM    8  N   UNL     1      24.910  48.560  49.479  1.00  0.00    -0.054 NA
HETATM    9  C   UNL     1      25.329  45.011  49.839  1.00  0.00     0.205 C 
HETATM   10  C   UNL     1      23.931  44.586  49.386  1.00  0.00     0.063 C 
HETATM   11  H   UNL     1      22.493  47.506  49.022  1.00  0.00     0.184 HD
ENDROOT
BRANCH   9  12
HETATM   12  C   UNL     1      25.669  44.573  51.267  1.00  0.00     0.005 A 
HETATM   13  C   UNL     1      26.749  43.699  51.507  1.00  0.00     0.083 A 
HETATM   14  C   UNL     1      27.062  43.320  52.817  1.00  0.00     0.037 A 
HETATM   15  C   UNL     1      26.343  43.835  53.895  1.00  0.00     0.003 A 
HETATM   16  C   UNL     1      25.303  44.732  53.674  1.00  0.00     0.001 A 
HETATM   17  C   UNL     1      24.969  45.101  52.371  1.00  0.00     0.012 A 
BRANCH  13  18
HETATM   18  O   UNL     1      27.423  43.247  50.406  1.00  0.00    -0.290 OA
BRANCH  18  19
HETATM   19  C   UNL     1      27.374  41.852  50.127  1.00  0.00     0.505 C 
HETATM   20  F   UNL     1      28.366  41.192  50.772  1.00  0.00    -0.184 F 
HETATM   21  F   UNL     1      26.189  41.349  50.554  1.00  0.00    -0.184 F 
ENDBRANCH  18  19
ENDBRANCH  13  18
ENDBRANCH   9  12
BRANCH  10  22
HETATM   22  C   UNL     1      23.800  43.127  49.121  1.00  0.00     0.256 C 
HETATM   23  N   UNL     1      24.292  42.745  47.892  1.00  0.00    -0.323 N 
HETATM   24  H   UNL     1      24.644  43.476  47.288  1.00  0.00     0.169 HD
HETATM   25  O   UNL     1      23.271  42.420  49.969  1.00  0.00    -0.267 OA
BRANCH  23  26
HETATM   26  C   UNL     1      24.417  41.430  47.395  1.00  0.00     0.035 A 
HETATM   27  C   UNL     1      23.333  40.599  47.105  1.00  0.00     0.029 A 
HETATM   28  C   UNL     1      23.541  39.294  46.645  1.00  0.00     0.002 A 
HETATM   29  C   UNL     1      24.835  38.807  46.477  1.00  0.00     0.000 A 
HETATM   30  C   UNL     1      25.923  39.628  46.760  1.00  0.00     0.002 A 
HETATM   31  C   UNL     1      25.715  40.934  47.212  1.00  0.00     0.029 A 
ENDBRANCH  23  26
ENDBRANCH  10  22
TORSDOF 5
ENDMDL
