MODEL 1
REMARK VINA RESULT:      -6.7      0.000      0.000
REMARK  3 active torsions:
REMARK  status: ('A' for Active; 'I' for Inactive)
REMARK    1  A    between atoms: N_6  and  C_7 
REMARK    2  A    between atoms: C_10  and  S_11 
REMARK    3  A    between atoms: S_11  and  N_12 
ROOT
HETATM    1  C   UNL     1      29.651  47.381  40.383  1.00  0.00     0.030 A 
HETATM    2  C   UNL     1      29.212  48.092  41.514  1.00  0.00     0.031 A 
HETATM    3  C   UNL     1      30.021  49.043  42.155  1.00  0.00     0.027 A 
HETATM    4  C   UNL     1      31.311  49.279  41.692  1.00  0.00     0.079 A 
HETATM    5  C   UNL     1      31.791  48.579  40.589  1.00  0.00     0.027 A 
HETATM    6  C   UNL     1      30.973  47.630  39.964  1.00  0.00     0.031 A 
ENDROOT
BRANCH   4   7
HETATM    7  S   UNL     1      32.304  50.559  42.430  1.00  0.00     0.260 S 
HETATM    8  O   UNL     1      32.019  50.537  43.849  1.00  0.00    -0.200 OA
HETATM    9  O   UNL     1      33.653  50.372  41.940  1.00  0.00    -0.200 OA
BRANCH   7  10
HETATM   10  N   UNL     1      31.676  51.970  41.768  1.00  0.00    -0.307 N 
HETATM   11  C   UNL     1      31.910  52.309  40.354  1.00  0.00     0.135 C 
HETATM   12  C   UNL     1      30.635  52.162  39.533  1.00  0.00     0.021 C 
HETATM   13  C   UNL     1      29.483  52.948  40.150  1.00  0.00     0.003 C 
HETATM   14  C   UNL     1      29.271  52.533  41.602  1.00  0.00     0.021 C 
HETATM   15  C   UNL     1      30.552  52.671  42.416  1.00  0.00     0.135 C 
ENDBRANCH   7  10
ENDBRANCH   4   7
BRANCH   1  16
HETATM   16  N   UNL     1      28.859  46.444  39.710  1.00  0.00    -0.378 N 
HETATM   17  C   UNL     1      28.657  46.646  38.255  1.00  0.00     0.150 C 
HETATM   18  C   UNL     1      27.410  47.519  37.999  1.00  0.00     0.254 C 
HETATM   19  N   UNL     1      26.177  46.892  38.660  1.00  0.00    -0.072 N 
HETATM   20  C   UNL     1      24.937  47.695  38.405  1.00  0.00     0.269 C 
HETATM   21  H   UNL     1      26.044  45.969  38.228  1.00  0.00     0.279 HD
HETATM   22  C   UNL     1      26.413  46.659  40.155  1.00  0.00     0.254 C 
HETATM   23  C   UNL     1      27.696  45.825  40.377  1.00  0.00     0.150 C 
ENDBRANCH   1  16
TORSDOF 3
ENDMDL
MODEL 2
REMARK VINA RESULT:      -6.6     10.892     12.199
REMARK  3 active torsions:
REMARK  status: ('A' for Active; 'I' for Inactive)
REMARK    1  A    between atoms: N_6  and  C_7 
REMARK    2  A    between atoms: C_10  and  S_11 
REMARK    3  A    between atoms: S_11  and  N_12 
ROOT
HETATM    1  C   UNL     1      24.502  45.717  49.588  1.00  0.00     0.030 A 
HETATM    2  C   UNL     1      23.233  45.918  49.018  1.00  0.00     0.031 A 
HETATM    3  C   UNL     1      22.741  47.201  48.731  1.00  0.00     0.027 A 
HETATM    4  C   UNL     1      23.506  48.321  49.042  1.00  0.00     0.079 A 
HETATM    5  C   UNL     1      24.759  48.164  49.628  1.00  0.00     0.027 A 
HETATM    6  C   UNL     1      25.232  46.878  49.913  1.00  0.00     0.031 A 
ENDROOT
BRANCH   4   7
HETATM    7  S   UNL     1      22.939  49.944  48.582  1.00  0.00     0.260 S 
HETATM    8  O   UNL     1      23.422  50.855  49.598  1.00  0.00    -0.200 OA
HETATM    9  O   UNL     1      23.294  50.127  47.190  1.00  0.00    -0.200 OA
BRANCH   7  10
HETATM   10  N   UNL     1      21.268  49.823  48.705  1.00  0.00    -0.307 N 
HETATM   11  C   UNL     1      20.557  50.362  49.878  1.00  0.00     0.135 C 
HETATM   12  C   UNL     1      19.759  51.608  49.514  1.00  0.00     0.021 C 
HETATM   13  C   UNL     1      18.839  51.351  48.326  1.00  0.00     0.003 C 
HETATM   14  C   UNL     1      19.634  50.824  47.138  1.00  0.00     0.021 C 
HETATM   15  C   UNL     1      20.439  49.584  47.510  1.00  0.00     0.135 C 
ENDBRANCH   7  10
ENDBRANCH   4   7
BRANCH   1  16
HETATM   16  N   UNL     1      25.027  44.449  49.865  1.00  0.00    -0.378 N 
HETATM   17  C   UNL     1      24.533  43.761  51.082  1.00  0.00     0.150 C 
HETATM   18  C   UNL     1      25.410  44.122  52.301  1.00  0.00     0.254 C 
HETATM   19  N   UNL     1      26.878  43.786  52.018  1.00  0.00    -0.072 N 
HETATM   20  C   UNL     1      27.757  44.090  53.192  1.00  0.00     0.269 C 
HETATM   21  H   UNL     1      26.925  42.773  51.849  1.00  0.00     0.279 HD
HETATM   22  C   UNL     1      27.364  44.477  50.740  1.00  0.00     0.254 C 
HETATM   23  C   UNL     1      26.436  44.135  49.553  1.00  0.00     0.150 C 
ENDBRANCH   1  16
TORSDOF 3
ENDMDL
MODEL 3
REMARK VINA RESULT:      -6.6      3.436      6.822
REMARK  3 active torsions:
REMARK  status: ('A' for Active; 'I' for Inactive)
REMARK    1  A    between atoms: N_6  and  C_7 
REMARK    2  A    between atoms: C_10  and  S_11 
REMARK    3  A    between atoms: S_11  and  N_12 
ROOT
HETATM    1  C   UNL     1      29.456  52.033  40.475  1.00  0.00     0.030 A 
HETATM    2  C   UNL     1      28.255  51.682  41.116  1.00  0.00     0.031 A 
HETATM    3  C   UNL     1      27.298  50.859  40.504  1.00  0.00     0.027 A 
HETATM    4  C   UNL     1      27.511  50.394  39.210  1.00  0.00     0.079 A 
HETATM    5  C   UNL     1      28.677  50.737  38.533  1.00  0.00     0.027 A 
HETATM    6  C   UNL     1      29.620  51.563  39.157  1.00  0.00     0.031 A 
ENDROOT
BRANCH   4   7
HETATM    7  S   UNL     1      26.355  49.262  38.467  1.00  0.00     0.260 S 
HETATM    8  O   UNL     1      25.104  49.422  39.178  1.00  0.00    -0.200 OA
HETATM    9  O   UNL     1      26.430  49.473  37.037  1.00  0.00    -0.200 OA
BRANCH   7  10
HETATM   10  N   UNL     1      27.000  47.753  38.828  1.00  0.00    -0.307 N 
HETATM   11  C   UNL     1      27.873  47.056  37.867  1.00  0.00     0.135 C 
HETATM   12  C   UNL     1      29.318  47.035  38.351  1.00  0.00     0.021 C 
HETATM   13  C   UNL     1      29.423  46.476  39.765  1.00  0.00     0.003 C 
HETATM   14  C   UNL     1      28.521  47.254  40.716  1.00  0.00     0.021 C 
HETATM   15  C   UNL     1      27.079  47.281  40.223  1.00  0.00     0.135 C 
ENDBRANCH   7  10
ENDBRANCH   4   7
BRANCH   1  16
HETATM   16  N   UNL     1      30.439  52.833  41.070  1.00  0.00    -0.378 N 
HETATM   17  C   UNL     1      31.685  53.061  40.300  1.00  0.00     0.150 C 
HETATM   18  C   UNL     1      32.728  51.969  40.621  1.00  0.00     0.254 C 
HETATM   19  N   UNL     1      32.996  51.917  42.129  1.00  0.00    -0.072 N 
HETATM   20  C   UNL     1      34.030  50.890  42.478  1.00  0.00     0.269 C 
HETATM   21  H   UNL     1      33.368  52.837  42.398  1.00  0.00     0.279 HD
HETATM   22  C   UNL     1      31.695  51.714  42.913  1.00  0.00     0.254 C 
HETATM   23  C   UNL     1      30.658  52.794  42.530  1.00  0.00     0.150 C 
ENDBRANCH   1  16
TORSDOF 3
ENDMDL
MODEL 4
REMARK VINA RESULT:      -6.6      2.080      3.832
REMARK  3 active torsions:
REMARK  status: ('A' for Active; 'I' for Inactive)
REMARK    1  A    between atoms: N_6  and  C_7 
REMARK    2  A    between atoms: C_10  and  S_11 
REMARK    3  A    between atoms: S_11  and  N_12 
ROOT
HETATM    1  C   UNL     1      27.356  50.677  39.354  1.00  0.00     0.030 A 
HETATM    2  C   UNL     1      28.234  51.591  38.746  1.00  0.00     0.031 A 
HETATM    3  C   UNL     1      29.296  52.181  39.447  1.00  0.00     0.027 A 
HETATM    4  C   UNL     1      29.483  51.890  40.795  1.00  0.00     0.079 A 
HETATM    5  C   UNL     1      28.621  51.007  41.439  1.00  0.00     0.027 A 
HETATM    6  C   UNL     1      27.563  50.430  40.726  1.00  0.00     0.031 A 
ENDROOT
BRANCH   4   7
HETATM    7  S   UNL     1      30.891  52.547  41.663  1.00  0.00     0.260 S 
HETATM    8  O   UNL     1      31.476  53.552  40.801  1.00  0.00    -0.200 OA
HETATM    9  O   UNL     1      30.436  52.884  42.996  1.00  0.00    -0.200 OA
BRANCH   7  10
HETATM   10  N   UNL     1      31.936  51.235  41.762  1.00  0.00    -0.307 N 
HETATM   11  C   UNL     1      32.035  50.441  42.999  1.00  0.00     0.135 C 
HETATM   12  C   UNL     1      31.410  49.062  42.820  1.00  0.00     0.021 C 
HETATM   13  C   UNL     1      31.985  48.345  41.604  1.00  0.00     0.003 C 
HETATM   14  C   UNL     1      31.827  49.202  40.354  1.00  0.00     0.021 C 
HETATM   15  C   UNL     1      32.444  50.583  40.541  1.00  0.00     0.135 C 
ENDBRANCH   7  10
ENDBRANCH   4   7
BRANCH   1  16
HETATM   16  N   UNL     1      26.301  50.056  38.674  1.00  0.00    -0.378 N 
HETATM   17  C   UNL     1      25.209  49.482  39.496  1.00  0.00     0.150 C 
HETATM   18  C   UNL     1      25.518  48.012  39.855  1.00  0.00     0.254 C 
HETATM   19  N   UNL     1      25.760  47.193  38.583  1.00  0.00    -0.072 N 
HETATM   20  C   UNL     1      26.031  45.751  38.889  1.00  0.00     0.269 C 
HETATM   21  H   UNL     1      24.894  47.237  38.031  1.00  0.00     0.279 HD
HETATM   22  C   UNL     1      26.868  47.817  37.729  1.00  0.00     0.254 C 
HETATM   23  C   UNL     1      26.551  49.300  37.430  1.00  0.00     0.150 C 
ENDBRANCH   1  16
TORSDOF 3
ENDMDL
MODEL 5
REMARK VINA RESULT:      -6.5     12.560     13.627
REMARK  3 active torsions:
REMARK  status: ('A' for Active; 'I' for Inactive)
REMARK    1  A    between atoms: N_6  and  C_7 
REMARK    2  A    between atoms: C_10  and  S_11 
REMARK    3  A    between atoms: S_11  and  N_12 
ROOT
HETATM    1  C   UNL     1      28.074  41.133  50.630  1.00  0.00     0.030 A 
HETATM    2  C   UNL     1      28.347  41.045  52.006  1.00  0.00     0.031 A 
HETATM    3  C   UNL     1      27.766  41.919  52.938  1.00  0.00     0.027 A 
HETATM    4  C   UNL     1      26.916  42.930  52.501  1.00  0.00     0.079 A 
HETATM    5  C   UNL     1      26.638  43.064  51.144  1.00  0.00     0.027 A 
HETATM    6  C   UNL     1      27.231  42.188  50.227  1.00  0.00     0.031 A 
ENDROOT
BRANCH   4   7
HETATM    7  S   UNL     1      26.088  43.972  53.684  1.00  0.00     0.260 S 
HETATM    8  O   UNL     1      24.758  44.210  53.165  1.00  0.00    -0.200 OA
HETATM    9  O   UNL     1      26.283  43.361  54.982  1.00  0.00    -0.200 OA
BRANCH   7  10
HETATM   10  N   UNL     1      26.964  45.405  53.621  1.00  0.00    -0.307 N 
HETATM   11  C   UNL     1      26.332  46.656  53.168  1.00  0.00     0.135 C 
HETATM   12  C   UNL     1      26.132  47.624  54.329  1.00  0.00     0.021 C 
HETATM   13  C   UNL     1      27.433  47.855  55.089  1.00  0.00     0.003 C 
HETATM   14  C   UNL     1      28.022  46.529  55.555  1.00  0.00     0.021 C 
HETATM   15  C   UNL     1      28.210  45.561  54.393  1.00  0.00     0.135 C 
ENDBRANCH   7  10
ENDBRANCH   4   7
BRANCH   1  16
HETATM   16  N   UNL     1      28.622  40.263  49.681  1.00  0.00    -0.378 N 
HETATM   17  C   UNL     1      28.393  40.585  48.252  1.00  0.00     0.150 C 
HETATM   18  C   UNL     1      27.092  39.922  47.750  1.00  0.00     0.254 C 
HETATM   19  N   UNL     1      27.141  38.409  47.987  1.00  0.00    -0.072 N 
HETATM   20  C   UNL     1      25.908  37.724  47.481  1.00  0.00     0.269 C 
HETATM   21  H   UNL     1      27.939  38.049  47.450  1.00  0.00     0.279 HD
HETATM   22  C   UNL     1      27.411  38.092  49.461  1.00  0.00     0.254 C 
HETATM   23  C   UNL     1      28.691  38.811  49.944  1.00  0.00     0.150 C 
ENDBRANCH   1  16
TORSDOF 3
ENDMDL
MODEL 6
REMARK VINA RESULT:      -6.5     11.720     13.149
REMARK  3 active torsions:
REMARK  status: ('A' for Active; 'I' for Inactive)
REMARK    1  A    between atoms: N_6  and  C_7 
REMARK    2  A    between atoms: C_10  and  S_11 
REMARK    3  A    between atoms: S_11  and  N_12 
ROOT
HETATM    1  C   UNL     1      23.824  47.122  49.368  1.00  0.00     0.030 A 
HETATM    2  C   UNL     1      22.808  46.334  48.799  1.00  0.00     0.031 A 
HETATM    3  C   UNL     1      21.565  46.872  48.433  1.00  0.00     0.027 A 
HETATM    4  C   UNL     1      21.301  48.219  48.662  1.00  0.00     0.079 A 
HETATM    5  C   UNL     1      22.272  49.028  49.243  1.00  0.00     0.027 A 
HETATM    6  C   UNL     1      23.505  48.473  49.608  1.00  0.00     0.031 A 
ENDROOT
BRANCH   4   7
HETATM    7  S   UNL     1      19.770  48.935  48.100  1.00  0.00     0.260 S 
HETATM    8  O   UNL     1      19.982  49.342  46.728  1.00  0.00    -0.200 OA
HETATM    9  O   UNL     1      18.723  47.995  48.444  1.00  0.00    -0.200 OA
BRANCH   7  10
HETATM   10  N   UNL     1      19.606  50.305  49.058  1.00  0.00    -0.307 N 
HETATM   11  C   UNL     1      20.073  51.619  48.582  1.00  0.00     0.135 C 
HETATM   12  C   UNL     1      18.900  52.536  48.257  1.00  0.00     0.021 C 
HETATM   13  C   UNL     1      17.933  52.638  49.431  1.00  0.00     0.003 C 
HETATM   14  C   UNL     1      17.464  51.252  49.859  1.00  0.00     0.021 C 
HETATM   15  C   UNL     1      18.641  50.335  50.172  1.00  0.00     0.135 C 
ENDBRANCH   7  10
ENDBRANCH   4   7
BRANCH   1  16
HETATM   16  N   UNL     1      25.080  46.617  49.723  1.00  0.00    -0.378 N 
HETATM   17  C   UNL     1      25.233  45.143  49.765  1.00  0.00     0.150 C 
HETATM   18  C   UNL     1      24.891  44.604  51.171  1.00  0.00     0.254 C 
HETATM   19  N   UNL     1      25.758  45.293  52.230  1.00  0.00    -0.072 N 
HETATM   20  C   UNL     1      25.479  44.771  53.607  1.00  0.00     0.269 C 
HETATM   21  H   UNL     1      26.736  45.070  52.005  1.00  0.00     0.279 HD
HETATM   22  C   UNL     1      25.616  46.816  52.152  1.00  0.00     0.254 C 
HETATM   23  C   UNL     1      25.916  47.316  50.721  1.00  0.00     0.150 C 
ENDBRANCH   1  16
TORSDOF 3
ENDMDL
MODEL 7
REMARK VINA RESULT:      -6.5      1.161      2.073
REMARK  3 active torsions:
REMARK  status: ('A' for Active; 'I' for Inactive)
REMARK    1  A    between atoms: N_6  and  C_7 
REMARK    2  A    between atoms: C_10  and  S_11 
REMARK    3  A    between atoms: S_11  and  N_12 
ROOT
HETATM    1  C   UNL     1      29.298  47.566  39.837  1.00  0.00     0.030 A 
HETATM    2  C   UNL     1      28.969  48.057  41.112  1.00  0.00     0.031 A 
HETATM    3  C   UNL     1      29.845  48.873  41.844  1.00  0.00     0.027 A 
HETATM    4  C   UNL     1      31.096  49.188  41.321  1.00  0.00     0.079 A 
HETATM    5  C   UNL     1      31.468  48.702  40.072  1.00  0.00     0.027 A 
HETATM    6  C   UNL     1      30.583  47.885  39.357  1.00  0.00     0.031 A 
ENDROOT
BRANCH   4   7
HETATM    7  S   UNL     1      32.169  50.309  42.193  1.00  0.00     0.260 S 
HETATM    8  O   UNL     1      31.894  50.134  43.603  1.00  0.00    -0.200 OA
HETATM    9  O   UNL     1      33.501  50.103  41.664  1.00  0.00    -0.200 OA
BRANCH   7  10
HETATM   10  N   UNL     1      31.623  51.824  41.713  1.00  0.00    -0.307 N 
HETATM   11  C   UNL     1      31.837  52.302  40.336  1.00  0.00     0.135 C 
HETATM   12  C   UNL     1      30.530  52.334  39.554  1.00  0.00     0.021 C 
HETATM   13  C   UNL     1      29.457  53.121  40.297  1.00  0.00     0.003 C 
HETATM   14  C   UNL     1      29.260  52.563  41.701  1.00  0.00     0.021 C 
HETATM   15  C   UNL     1      30.573  52.523  42.476  1.00  0.00     0.135 C 
ENDBRANCH   7  10
ENDBRANCH   4   7
BRANCH   1  16
HETATM   16  N   UNL     1      28.435  46.769  39.074  1.00  0.00    -0.378 N 
HETATM   17  C   UNL     1      27.195  46.292  39.730  1.00  0.00     0.150 C 
HETATM   18  C   UNL     1      27.438  44.934  40.425  1.00  0.00     0.254 C 
HETATM   19  N   UNL     1      27.975  43.911  39.419  1.00  0.00    -0.072 N 
HETATM   20  C   UNL     1      28.192  42.569  40.049  1.00  0.00     0.269 C 
HETATM   21  H   UNL     1      27.257  43.801  38.693  1.00  0.00     0.279 HD
HETATM   22  C   UNL     1      29.238  44.432  38.726  1.00  0.00     0.254 C 
HETATM   23  C   UNL     1      28.973  45.813  38.085  1.00  0.00     0.150 C 
ENDBRANCH   1  16
TORSDOF 3
ENDMDL
MODEL 8
REMARK VINA RESULT:      -6.1      3.075      6.694
REMARK  3 active torsions:
REMARK  status: ('A' for Active; 'I' for Inactive)
REMARK    1  A    between atoms: N_6  and  C_7 
REMARK    2  A    between atoms: C_10  and  S_11 
REMARK    3  A    between atoms: S_11  and  N_12 
ROOT
HETATM    1  C   UNL     1      30.795  50.316  40.719  1.00  0.00     0.030 A 
HETATM    2  C   UNL     1      30.679  50.071  39.340  1.00  0.00     0.031 A 
HETATM    3  C   UNL     1      30.097  48.897  38.839  1.00  0.00     0.027 A 
HETATM    4  C   UNL     1      29.645  47.919  39.719  1.00  0.00     0.079 A 
HETATM    5  C   UNL     1      29.762  48.113  41.092  1.00  0.00     0.027 A 
HETATM    6  C   UNL     1      30.350  49.288  41.575  1.00  0.00     0.031 A 
ENDROOT
BRANCH   4   7
HETATM    7  S   UNL     1      28.807  46.476  39.096  1.00  0.00     0.260 S 
HETATM    8  O   UNL     1      29.395  46.181  37.807  1.00  0.00    -0.200 OA
HETATM    9  O   UNL     1      28.821  45.497  40.162  1.00  0.00    -0.200 OA
BRANCH   7  10
HETATM   10  N   UNL     1      27.230  47.010  38.869  1.00  0.00    -0.307 N 
HETATM   11  C   UNL     1      26.387  47.383  40.018  1.00  0.00     0.135 C 
HETATM   12  C   UNL     1      26.167  48.891  40.073  1.00  0.00     0.021 C 
HETATM   13  C   UNL     1      25.636  49.423  38.747  1.00  0.00     0.003 C 
HETATM   14  C   UNL     1      26.564  49.029  37.603  1.00  0.00     0.021 C 
HETATM   15  C   UNL     1      26.789  47.522  37.559  1.00  0.00     0.135 C 
ENDBRANCH   7  10
ENDBRANCH   4   7
BRANCH   1  16
HETATM   16  N   UNL     1      31.350  51.487  41.248  1.00  0.00    -0.378 N 
HETATM   17  C   UNL     1      32.367  52.187  40.427  1.00  0.00     0.150 C 
HETATM   18  C   UNL     1      33.781  51.661  40.753  1.00  0.00     0.254 C 
HETATM   19  N   UNL     1      34.069  51.803  42.252  1.00  0.00    -0.072 N 
HETATM   20  C   UNL     1      35.448  51.333  42.603  1.00  0.00     0.269 C 
HETATM   21  H   UNL     1      34.016  52.805  42.472  1.00  0.00     0.279 HD
HETATM   22  C   UNL     1      32.993  51.103  43.087  1.00  0.00     0.254 C 
HETATM   23  C   UNL     1      31.587  51.617  42.700  1.00  0.00     0.150 C 
ENDBRANCH   1  16
TORSDOF 3
ENDMDL
MODEL 9
REMARK VINA RESULT:      -6.0      2.621      3.494
REMARK  3 active torsions:
REMARK  status: ('A' for Active; 'I' for Inactive)
REMARK    1  A    between atoms: N_6  and  C_7 
REMARK    2  A    between atoms: C_10  and  S_11 
REMARK    3  A    between atoms: S_11  and  N_12 
ROOT
HETATM    1  C   UNL     1      27.480  48.253  39.747  1.00  0.00     0.030 A 
HETATM    2  C   UNL     1      27.021  49.278  38.901  1.00  0.00     0.031 A 
HETATM    3  C   UNL     1      27.865  50.304  38.450  1.00  0.00     0.027 A 
HETATM    4  C   UNL     1      29.191  50.344  38.868  1.00  0.00     0.079 A 
HETATM    5  C   UNL     1      29.678  49.360  39.724  1.00  0.00     0.027 A 
HETATM    6  C   UNL     1      28.821  48.346  40.169  1.00  0.00     0.031 A 
ENDROOT
BRANCH   4   7
HETATM    7  S   UNL     1      30.296  51.578  38.215  1.00  0.00     0.260 S 
HETATM    8  O   UNL     1      31.500  50.883  37.812  1.00  0.00    -0.200 OA
HETATM    9  O   UNL     1      29.532  52.356  37.264  1.00  0.00    -0.200 OA
BRANCH   7  10
HETATM   10  N   UNL     1      30.641  52.538  39.551  1.00  0.00    -0.307 N 
HETATM   11  C   UNL     1      29.563  53.217  40.289  1.00  0.00     0.135 C 
HETATM   12  C   UNL     1      29.346  52.580  41.657  1.00  0.00     0.021 C 
HETATM   13  C   UNL     1      30.648  52.498  42.445  1.00  0.00     0.003 C 
HETATM   14  C   UNL     1      31.713  51.761  41.642  1.00  0.00     0.021 C 
HETATM   15  C   UNL     1      31.919  52.396  40.271  1.00  0.00     0.135 C 
ENDBRANCH   7  10
ENDBRANCH   4   7
BRANCH   1  16
HETATM   16  N   UNL     1      26.668  47.205  40.195  1.00  0.00    -0.378 N 
HETATM   17  C   UNL     1      27.336  46.075  40.884  1.00  0.00     0.150 C 
HETATM   18  C   UNL     1      27.752  44.991  39.866  1.00  0.00     0.254 C 
HETATM   19  N   UNL     1      26.536  44.523  39.060  1.00  0.00    -0.072 N 
HETATM   20  C   UNL     1      26.894  43.445  38.083  1.00  0.00     0.269 C 
HETATM   21  H   UNL     1      25.869  44.124  39.733  1.00  0.00     0.279 HD
HETATM   22  C   UNL     1      25.837  45.705  38.382  1.00  0.00     0.254 C 
HETATM   23  C   UNL     1      25.479  46.792  39.421  1.00  0.00     0.150 C 
ENDBRANCH   1  16
TORSDOF 3
ENDMDL
MODEL 10
REMARK VINA RESULT:      -6.0      3.520      7.220
REMARK  3 active torsions:
REMARK  status: ('A' for Active; 'I' for Inactive)
REMARK    1  A    between atoms: N_6  and  C_7 
REMARK    2  A    between atoms: C_10  and  S_11 
REMARK    3  A    between atoms: S_11  and  N_12 
ROOT
HETATM    1  C   UNL     1      33.574  51.036  40.536  1.00  0.00     0.030 A 
HETATM    2  C   UNL     1      32.992  51.744  39.470  1.00  0.00     0.031 A 
HETATM    3  C   UNL     1      31.610  51.980  39.400  1.00  0.00     0.027 A 
HETATM    4  C   UNL     1      30.772  51.478  40.390  1.00  0.00     0.079 A 
HETATM    5  C   UNL     1      31.307  50.754  41.451  1.00  0.00     0.027 A 
HETATM    6  C   UNL     1      32.687  50.522  41.503  1.00  0.00     0.031 A 
ENDROOT
BRANCH   4   7
HETATM    7  S   UNL     1      29.034  51.866  40.368  1.00  0.00     0.260 S 
HETATM    8  O   UNL     1      28.693  52.315  41.701  1.00  0.00    -0.200 OA
HETATM    9  O   UNL     1      28.814  52.718  39.218  1.00  0.00    -0.200 OA
BRANCH   7  10
HETATM   10  N   UNL     1      28.306  50.378  40.089  1.00  0.00    -0.307 N 
HETATM   11  C   UNL     1      28.578  49.625  38.852  1.00  0.00     0.135 C 
HETATM   12  C   UNL     1      29.428  48.392  39.133  1.00  0.00     0.021 C 
HETATM   13  C   UNL     1      28.813  47.531  40.231  1.00  0.00     0.003 C 
HETATM   14  C   UNL     1      28.583  48.357  41.491  1.00  0.00     0.021 C 
HETATM   15  C   UNL     1      27.741  49.595  41.203  1.00  0.00     0.135 C 
ENDBRANCH   7  10
ENDBRANCH   4   7
BRANCH   1  16
HETATM   16  N   UNL     1      34.950  50.804  40.644  1.00  0.00    -0.378 N 
HETATM   17  C   UNL     1      35.483  50.499  41.993  1.00  0.00     0.150 C 
HETATM   18  C   UNL     1      35.894  51.799  42.719  1.00  0.00     0.254 C 
HETATM   19  N   UNL     1      36.904  52.583  41.875  1.00  0.00    -0.072 N 
HETATM   20  C   UNL     1      37.354  53.836  42.563  1.00  0.00     0.269 C 
HETATM   21  H   UNL     1      37.728  51.979  41.760  1.00  0.00     0.279 HD
HETATM   22  C   UNL     1      36.353  52.861  40.474  1.00  0.00     0.254 C 
HETATM   23  C   UNL     1      35.906  51.546  39.797  1.00  0.00     0.150 C 
ENDBRANCH   1  16
TORSDOF 3
ENDMDL
