MODEL 1
REMARK VINA RESULT:      -8.5      0.000      0.000
REMARK  4 active torsions:
REMARK  status: ('A' for Active; 'I' for Inactive)
REMARK    1  A    between atoms: C_5  and  C_6 
REMARK    2  A    between atoms: C_6  and  N_7 
REMARK    3  A    between atoms: N_13  and  C_15 
REMARK    4  A    between atoms: C_19  and  C_20 
ROOT
HETATM    1  N   UNL     1      21.308  50.461  49.382  1.00  0.00    -0.064 N 
HETATM    2  H   UNL     1      22.131  50.907  49.831  1.00  0.00     0.280 HD
HETATM    3  C   UNL     1      20.706  51.525  48.516  1.00  0.00     0.236 C 
HETATM    4  C   UNL     1      19.357  51.074  47.945  1.00  0.00     0.039 C 
HETATM    5  C   UNL     1      18.343  50.497  48.977  1.00  0.00    -0.013 C 
HETATM    6  C   UNL     1      17.679  51.608  49.836  1.00  0.00     0.245 C 
HETATM    7  N   UNL     1      16.672  52.410  49.048  1.00  0.00    -0.065 N 
HETATM    8  H   UNL     1      17.141  52.881  48.262  1.00  0.00     0.280 HD
HETATM    9  C   UNL     1      15.566  51.544  48.451  1.00  0.00     0.244 C 
HETATM   10  C   UNL     1      16.164  50.508  47.484  1.00  0.00     0.045 C 
HETATM   11  C   UNL     1      17.220  49.683  48.262  1.00  0.00     0.022 C 
HETATM   12  C   UNL     1      19.100  49.495  49.906  1.00  0.00     0.039 C 
HETATM   13  C   UNL     1      20.407  50.020  50.486  1.00  0.00     0.236 C 
ENDROOT
BRANCH   7  14
HETATM   14  C   UNL     1      16.062  53.489  49.898  1.00  0.00     0.188 A 
HETATM   15  C   UNL     1      14.792  54.116  49.399  1.00  0.00     0.035 A 
HETATM   16  C   UNL     1      14.757  53.176  50.571  1.00  0.00     0.035 A 
ENDBRANCH   7  14
BRANCH  10  17
HETATM   17  C   UNL     1      16.661  51.032  46.138  1.00  0.00    -0.052 A 
HETATM   18  C   UNL     1      16.505  52.363  45.715  1.00  0.00     0.007 A 
HETATM   19  C   UNL     1      16.979  52.786  44.469  1.00  0.00     0.001 A 
HETATM   20  C   UNL     1      17.591  51.883  43.607  1.00  0.00     0.000 A 
HETATM   21  C   UNL     1      17.710  50.551  43.980  1.00  0.00     0.001 A 
HETATM   22  C   UNL     1      17.238  50.129  45.224  1.00  0.00     0.007 A 
ENDBRANCH  10  17
BRANCH   1  23
HETATM   23  C   UNL     1      21.979  49.308  48.602  1.00  0.00     0.323 C 
BRANCH  23  24
HETATM   24  C   UNL     1      23.429  49.541  48.408  1.00  0.00     0.198 A 
HETATM   25  O   UNL     1      23.816  50.191  47.282  1.00  0.00    -0.194 OA
HETATM   26  N   UNL     1      25.204  50.252  47.332  1.00  0.00    -0.112 NA
HETATM   27  C   UNL     1      25.511  49.628  48.478  1.00  0.00     0.152 A 
HETATM   28  C   UNL     1      26.903  49.417  48.919  1.00  0.00     0.096 C 
HETATM   29  N   UNL     1      24.420  49.183  49.196  1.00  0.00    -0.208 NA
ENDBRANCH  23  24
ENDBRANCH   1  23
TORSDOF 4
ENDMDL
MODEL 2
REMARK VINA RESULT:      -8.1      9.387     12.941
REMARK  4 active torsions:
REMARK  status: ('A' for Active; 'I' for Inactive)
REMARK    1  A    between atoms: C_5  and  C_6 
REMARK    2  A    between atoms: C_6  and  N_7 
REMARK    3  A    between atoms: N_13  and  C_15 
REMARK    4  A    between atoms: C_19  and  C_20 
ROOT
HETATM    1  N   UNL     1      28.677  41.241  51.866  1.00  0.00    -0.064 N 
HETATM    2  H   UNL     1      29.567  40.805  51.559  1.00  0.00     0.280 HD
HETATM    3  C   UNL     1      28.792  42.685  51.483  1.00  0.00     0.236 C 
HETATM    4  C   UNL     1      27.631  43.504  52.060  1.00  0.00     0.039 C 
HETATM    5  C   UNL     1      27.353  43.307  53.580  1.00  0.00    -0.013 C 
HETATM    6  C   UNL     1      28.393  44.040  54.469  1.00  0.00     0.245 C 
HETATM    7  N   UNL     1      28.197  45.537  54.459  1.00  0.00    -0.065 N 
HETATM    8  H   UNL     1      28.317  45.896  53.502  1.00  0.00     0.280 HD
HETATM    9  C   UNL     1      26.801  45.951  54.918  1.00  0.00     0.244 C 
HETATM   10  C   UNL     1      25.735  45.356  53.983  1.00  0.00     0.045 C 
HETATM   11  C   UNL     1      25.927  43.818  53.957  1.00  0.00     0.022 C 
HETATM   12  C   UNL     1      27.376  41.777  53.892  1.00  0.00     0.039 C 
HETATM   13  C   UNL     1      28.582  41.028  53.339  1.00  0.00     0.236 C 
ENDROOT
BRANCH   7  14
HETATM   14  C   UNL     1      29.230  46.219  55.311  1.00  0.00     0.188 A 
HETATM   15  C   UNL     1      29.097  46.067  56.799  1.00  0.00     0.035 A 
HETATM   16  C   UNL     1      30.187  45.340  56.064  1.00  0.00     0.035 A 
ENDBRANCH   7  14
BRANCH  10  17
HETATM   17  C   UNL     1      25.610  45.985  52.597  1.00  0.00    -0.052 A 
HETATM   18  C   UNL     1      26.301  47.143  52.201  1.00  0.00     0.007 A 
HETATM   19  C   UNL     1      26.144  47.676  50.917  1.00  0.00     0.001 A 
HETATM   20  C   UNL     1      25.272  47.082  50.013  1.00  0.00     0.000 A 
HETATM   21  C   UNL     1      24.537  45.969  50.397  1.00  0.00     0.001 A 
HETATM   22  C   UNL     1      24.694  45.435  51.678  1.00  0.00     0.007 A 
ENDBRANCH  10  17
BRANCH   1  23
HETATM   23  C   UNL     1      27.647  40.442  51.035  1.00  0.00     0.323 C 
BRANCH  23  24
HETATM   24  C   UNL     1      28.302  39.457  50.142  1.00  0.00     0.198 A 
HETATM   25  O   UNL     1      29.386  38.798  50.622  1.00  0.00    -0.194 OA
HETATM   26  N   UNL     1      29.819  37.970  49.592  1.00  0.00    -0.112 NA
HETATM   27  C   UNL     1      28.956  38.219  48.598  1.00  0.00     0.152 A 
HETATM   28  C   UNL     1      29.066  37.580  47.271  1.00  0.00     0.096 C 
HETATM   29  N   UNL     1      27.972  39.135  48.910  1.00  0.00    -0.208 NA
ENDBRANCH  23  24
ENDBRANCH   1  23
TORSDOF 4
ENDMDL
MODEL 3
REMARK VINA RESULT:      -7.9      2.349      3.327
REMARK  4 active torsions:
REMARK  status: ('A' for Active; 'I' for Inactive)
REMARK    1  A    between atoms: C_5  and  C_6 
REMARK    2  A    between atoms: C_6  and  N_7 
REMARK    3  A    between atoms: N_13  and  C_15 
REMARK    4  A    between atoms: C_19  and  C_20 
ROOT
HETATM    1  N   UNL     1      21.470  50.078  48.547  1.00  0.00    -0.064 N 
HETATM    2  H   UNL     1      22.116  50.833  48.245  1.00  0.00     0.280 HD
HETATM    3  C   UNL     1      20.680  49.722  47.325  1.00  0.00     0.236 C 
HETATM    4  C   UNL     1      19.537  48.758  47.668  1.00  0.00     0.039 C 
HETATM    5  C   UNL     1      18.634  49.177  48.866  1.00  0.00    -0.013 C 
HETATM    6  C   UNL     1      17.645  50.313  48.489  1.00  0.00     0.245 C 
HETATM    7  N   UNL     1      16.526  49.823  47.603  1.00  0.00    -0.065 N 
HETATM    8  H   UNL     1      16.914  49.461  46.721  1.00  0.00     0.280 HD
HETATM    9  C   UNL     1      15.727  48.687  48.237  1.00  0.00     0.244 C 
HETATM   10  C   UNL     1      16.641  47.480  48.507  1.00  0.00     0.045 C 
HETATM   11  C   UNL     1      17.814  47.961  49.400  1.00  0.00     0.022 C 
HETATM   12  C   UNL     1      19.553  49.645  50.038  1.00  0.00     0.039 C 
HETATM   13  C   UNL     1      20.635  50.644  49.646  1.00  0.00     0.236 C 
ENDROOT
BRANCH   7  14
HETATM   14  C   UNL     1      15.598  50.948  47.238  1.00  0.00     0.188 A 
HETATM   15  C   UNL     1      15.626  52.167  48.115  1.00  0.00     0.035 A 
HETATM   16  C   UNL     1      16.224  52.218  46.739  1.00  0.00     0.035 A 
ENDBRANCH   7  14
BRANCH  10  17
HETATM   17  C   UNL     1      17.083  46.668  47.293  1.00  0.00    -0.052 A 
HETATM   18  C   UNL     1      16.714  46.977  45.973  1.00  0.00     0.007 A 
HETATM   19  C   UNL     1      17.148  46.193  44.898  1.00  0.00     0.001 A 
HETATM   20  C   UNL     1      17.934  45.068  45.121  1.00  0.00     0.000 A 
HETATM   21  C   UNL     1      18.268  44.712  46.421  1.00  0.00     0.001 A 
HETATM   22  C   UNL     1      17.837  45.494  47.494  1.00  0.00     0.007 A 
ENDBRANCH  10  17
BRANCH   1  23
HETATM   23  C   UNL     1      22.471  48.989  48.999  1.00  0.00     0.323 C 
BRANCH  23  24
HETATM   24  C   UNL     1      23.867  49.341  48.648  1.00  0.00     0.198 A 
HETATM   25  O   UNL     1      24.078  49.966  47.463  1.00  0.00    -0.194 OA
HETATM   26  N   UNL     1      25.453  50.154  47.368  1.00  0.00    -0.112 NA
HETATM   27  C   UNL     1      25.927  49.619  48.501  1.00  0.00     0.152 A 
HETATM   28  C   UNL     1      27.370  49.556  48.807  1.00  0.00     0.096 C 
HETATM   29  N   UNL     1      24.959  49.115  49.345  1.00  0.00    -0.208 NA
ENDBRANCH  23  24
ENDBRANCH   1  23
TORSDOF 4
ENDMDL
MODEL 4
REMARK VINA RESULT:      -7.8      3.263      5.348
REMARK  4 active torsions:
REMARK  status: ('A' for Active; 'I' for Inactive)
REMARK    1  A    between atoms: C_5  and  C_6 
REMARK    2  A    between atoms: C_6  and  N_7 
REMARK    3  A    between atoms: N_13  and  C_15 
REMARK    4  A    between atoms: C_19  and  C_20 
ROOT
HETATM    1  N   UNL     1      15.955  47.492  47.266  1.00  0.00    -0.064 N 
HETATM    2  H   UNL     1      15.340  46.725  47.598  1.00  0.00     0.280 HD
HETATM    3  C   UNL     1      16.729  47.929  48.472  1.00  0.00     0.236 C 
HETATM    4  C   UNL     1      17.534  49.201  48.181  1.00  0.00     0.039 C 
HETATM    5  C   UNL     1      16.741  50.369  47.523  1.00  0.00    -0.013 C 
HETATM    6  C   UNL     1      15.826  51.106  48.538  1.00  0.00     0.245 C 
HETATM    7  N   UNL     1      16.615  51.963  49.498  1.00  0.00    -0.065 N 
HETATM    8  H   UNL     1      17.254  51.372  50.047  1.00  0.00     0.280 HD
HETATM    9  C   UNL     1      17.474  53.006  48.786  1.00  0.00     0.244 C 
HETATM   10  C   UNL     1      18.493  52.316  47.865  1.00  0.00     0.045 C 
HETATM   11  C   UNL     1      17.710  51.410  46.881  1.00  0.00     0.022 C 
HETATM   12  C   UNL     1      15.877  49.786  46.361  1.00  0.00     0.039 C 
HETATM   13  C   UNL     1      15.057  48.555  46.726  1.00  0.00     0.236 C 
ENDROOT
BRANCH   7  14
HETATM   14  C   UNL     1      15.705  52.646  50.480  1.00  0.00     0.188 A 
HETATM   15  C   UNL     1      15.355  54.080  50.203  1.00  0.00     0.035 A 
HETATM   16  C   UNL     1      14.327  53.003  50.003  1.00  0.00     0.035 A 
ENDBRANCH   7  14
BRANCH  10  17
HETATM   17  C   UNL     1      19.670  51.618  48.543  1.00  0.00    -0.052 A 
HETATM   18  C   UNL     1      19.859  51.585  49.935  1.00  0.00     0.007 A 
HETATM   19  C   UNL     1      20.959  50.931  50.500  1.00  0.00     0.001 A 
HETATM   20  C   UNL     1      21.908  50.322  49.687  1.00  0.00     0.000 A 
HETATM   21  C   UNL     1      21.772  50.385  48.307  1.00  0.00     0.001 A 
HETATM   22  C   UNL     1      20.673  51.037  47.742  1.00  0.00     0.007 A 
ENDBRANCH  10  17
BRANCH   1  23
HETATM   23  C   UNL     1      16.799  46.762  46.197  1.00  0.00     0.323 C 
BRANCH  23  24
HETATM   24  C   UNL     1      17.896  45.971  46.803  1.00  0.00     0.198 A 
HETATM   25  O   UNL     1      17.554  44.885  47.540  1.00  0.00    -0.194 OA
HETATM   26  N   UNL     1      18.747  44.348  48.010  1.00  0.00    -0.112 NA
HETATM   27  C   UNL     1      19.683  45.169  47.513  1.00  0.00     0.152 A 
HETATM   28  C   UNL     1      21.122  45.001  47.802  1.00  0.00     0.096 C 
HETATM   29  N   UNL     1      19.190  46.192  46.730  1.00  0.00    -0.208 NA
ENDBRANCH  23  24
ENDBRANCH   1  23
TORSDOF 4
ENDMDL
MODEL 5
REMARK VINA RESULT:      -7.7     24.979     27.512
REMARK  4 active torsions:
REMARK  status: ('A' for Active; 'I' for Inactive)
REMARK    1  A    between atoms: C_5  and  C_6 
REMARK    2  A    between atoms: C_6  and  N_7 
REMARK    3  A    between atoms: N_13  and  C_15 
REMARK    4  A    between atoms: C_19  and  C_20 
ROOT
HETATM    1  N   UNL     1      35.780  44.597  66.324  1.00  0.00    -0.064 N 
HETATM    2  H   UNL     1      35.390  44.955  67.218  1.00  0.00     0.280 HD
HETATM    3  C   UNL     1      36.995  43.811  66.710  1.00  0.00     0.236 C 
HETATM    4  C   UNL     1      37.796  43.390  65.472  1.00  0.00     0.039 C 
HETATM    5  C   UNL     1      38.115  44.525  64.454  1.00  0.00    -0.013 C 
HETATM    6  C   UNL     1      39.252  45.460  64.949  1.00  0.00     0.245 C 
HETATM    7  N   UNL     1      40.605  44.794  64.882  1.00  0.00    -0.065 N 
HETATM    8  H   UNL     1      40.615  43.965  65.491  1.00  0.00     0.280 HD
HETATM    9  C   UNL     1      40.959  44.318  63.476  1.00  0.00     0.244 C 
HETATM   10  C   UNL     1      39.930  43.283  62.990  1.00  0.00     0.045 C 
HETATM   11  C   UNL     1      38.525  43.934  63.069  1.00  0.00     0.022 C 
HETATM   12  C   UNL     1      36.815  45.356  64.217  1.00  0.00     0.039 C 
HETATM   13  C   UNL     1      36.092  45.791  65.486  1.00  0.00     0.236 C 
ENDROOT
BRANCH   7  14
HETATM   14  C   UNL     1      41.681  45.715  65.387  1.00  0.00     0.188 A 
HETATM   15  C   UNL     1      42.699  46.188  64.389  1.00  0.00     0.035 A 
HETATM   16  C   UNL     1      41.651  47.135  64.901  1.00  0.00     0.035 A 
ENDBRANCH   7  14
BRANCH  10  17
HETATM   17  C   UNL     1      40.003  41.895  63.621  1.00  0.00    -0.052 A 
HETATM   18  C   UNL     1      40.800  41.586  64.736  1.00  0.00     0.007 A 
HETATM   19  C   UNL     1      40.829  40.294  65.270  1.00  0.00     0.001 A 
HETATM   20  C   UNL     1      40.086  39.275  64.684  1.00  0.00     0.000 A 
HETATM   21  C   UNL     1      39.331  39.542  63.550  1.00  0.00     0.001 A 
HETATM   22  C   UNL     1      39.301  40.832  63.017  1.00  0.00     0.007 A 
ENDBRANCH  10  17
BRANCH   1  23
HETATM   23  C   UNL     1      34.603  43.739  65.805  1.00  0.00     0.323 C 
BRANCH  23  24
HETATM   24  C   UNL     1      34.083  42.824  66.848  1.00  0.00     0.198 A 
HETATM   25  O   UNL     1      34.102  41.494  66.583  1.00  0.00    -0.194 OA
HETATM   26  N   UNL     1      33.541  40.873  67.694  1.00  0.00    -0.112 NA
HETATM   27  C   UNL     1      33.239  41.892  68.510  1.00  0.00     0.152 A 
HETATM   28  C   UNL     1      32.571  41.696  69.812  1.00  0.00     0.096 C 
HETATM   29  N   UNL     1      33.583  43.137  68.024  1.00  0.00    -0.208 NA
ENDBRANCH  23  24
ENDBRANCH   1  23
TORSDOF 4
ENDMDL
MODEL 6
REMARK VINA RESULT:      -7.5     25.543     27.979
REMARK  4 active torsions:
REMARK  status: ('A' for Active; 'I' for Inactive)
REMARK    1  A    between atoms: C_5  and  C_6 
REMARK    2  A    between atoms: C_6  and  N_7 
REMARK    3  A    between atoms: N_13  and  C_15 
REMARK    4  A    between atoms: C_19  and  C_20 
ROOT
HETATM    1  N   UNL     1      38.332  49.884  65.631  1.00  0.00    -0.064 N 
HETATM    2  H   UNL     1      37.817  50.620  65.111  1.00  0.00     0.280 HD
HETATM    3  C   UNL     1      39.351  49.359  64.667  1.00  0.00     0.236 C 
HETATM    4  C   UNL     1      40.055  48.118  65.229  1.00  0.00     0.039 C 
HETATM    5  C   UNL     1      39.121  47.001  65.781  1.00  0.00    -0.013 C 
HETATM    6  C   UNL     1      38.447  46.182  64.647  1.00  0.00     0.245 C 
HETATM    7  N   UNL     1      39.421  45.256  63.959  1.00  0.00    -0.065 N 
HETATM    8  H   UNL     1      40.174  45.806  63.522  1.00  0.00     0.280 HD
HETATM    9  C   UNL     1      40.086  44.277  64.923  1.00  0.00     0.244 C 
HETATM   10  C   UNL     1      40.882  45.043  65.994  1.00  0.00     0.045 C 
HETATM   11  C   UNL     1      39.909  46.020  66.704  1.00  0.00     0.022 C 
HETATM   12  C   UNL     1      38.025  47.668  66.672  1.00  0.00     0.039 C 
HETATM   13  C   UNL     1      37.323  48.863  66.038  1.00  0.00     0.236 C 
ENDROOT
BRANCH   7  14
HETATM   14  C   UNL     1      38.745  44.493  62.854  1.00  0.00     0.188 A 
HETATM   15  C   UNL     1      39.051  43.026  62.752  1.00  0.00     0.035 A 
HETATM   16  C   UNL     1      37.710  43.481  63.253  1.00  0.00     0.035 A 
ENDBRANCH   7  14
BRANCH  10  17
HETATM   17  C   UNL     1      42.188  45.693  65.544  1.00  0.00    -0.052 A 
HETATM   18  C   UNL     1      42.768  45.483  64.282  1.00  0.00     0.007 A 
HETATM   19  C   UNL     1      43.970  46.104  63.925  1.00  0.00     0.001 A 
HETATM   20  C   UNL     1      44.633  46.923  64.832  1.00  0.00     0.000 A 
HETATM   21  C   UNL     1      44.108  47.105  66.105  1.00  0.00     0.001 A 
HETATM   22  C   UNL     1      42.907  46.486  66.460  1.00  0.00     0.007 A 
ENDBRANCH  10  17
BRANCH   1  23
HETATM   23  C   UNL     1      38.924  50.701  66.802  1.00  0.00     0.323 C 
BRANCH  23  24
HETATM   24  C   UNL     1      38.652  52.151  66.659  1.00  0.00     0.198 A 
HETATM   25  O   UNL     1      39.682  52.950  66.286  1.00  0.00    -0.194 OA
HETATM   26  N   UNL     1      39.174  54.244  66.254  1.00  0.00    -0.112 NA
HETATM   27  C   UNL     1      37.892  54.092  66.616  1.00  0.00     0.152 A 
HETATM   28  C   UNL     1      36.967  55.233  66.762  1.00  0.00     0.096 C 
HETATM   29  N   UNL     1      37.518  52.786  66.859  1.00  0.00    -0.208 NA
ENDBRANCH  23  24
ENDBRANCH   1  23
TORSDOF 4
ENDMDL
MODEL 7
REMARK VINA RESULT:      -7.0     25.138     27.573
REMARK  4 active torsions:
REMARK  status: ('A' for Active; 'I' for Inactive)
REMARK    1  A    between atoms: C_5  and  C_6 
REMARK    2  A    between atoms: C_6  and  N_7 
REMARK    3  A    between atoms: N_13  and  C_15 
REMARK    4  A    between atoms: C_19  and  C_20 
ROOT
HETATM    1  N   UNL     1      41.883  45.940  65.668  1.00  0.00    -0.064 N 
HETATM    2  H   UNL     1      42.556  46.135  66.433  1.00  0.00     0.280 HD
HETATM    3  C   UNL     1      40.799  45.117  66.295  1.00  0.00     0.236 C 
HETATM    4  C   UNL     1      39.832  44.577  65.235  1.00  0.00     0.039 C 
HETATM    5  C   UNL     1      40.491  43.868  64.015  1.00  0.00    -0.013 C 
HETATM    6  C   UNL     1      41.002  42.444  64.365  1.00  0.00     0.245 C 
HETATM    7  N   UNL     1      39.870  41.460  64.534  1.00  0.00    -0.065 N 
HETATM    8  H   UNL     1      39.263  41.758  65.310  1.00  0.00     0.280 HD
HETATM    9  C   UNL     1      38.987  41.358  63.293  1.00  0.00     0.244 C 
HETATM   10  C   UNL     1      38.348  42.722  62.982  1.00  0.00     0.045 C 
HETATM   11  C   UNL     1      39.489  43.759  62.824  1.00  0.00     0.022 C 
HETATM   12  C   UNL     1      41.682  44.748  63.517  1.00  0.00     0.039 C 
HETATM   13  C   UNL     1      42.639  45.209  64.609  1.00  0.00     0.236 C 
ENDROOT
BRANCH   7  14
HETATM   14  C   UNL     1      40.393  40.097  64.893  1.00  0.00     0.188 A 
HETATM   15  C   UNL     1      39.379  39.008  65.097  1.00  0.00     0.035 A 
HETATM   16  C   UNL     1      40.240  39.012  63.866  1.00  0.00     0.035 A 
ENDBRANCH   7  14
BRANCH  10  17
HETATM   17  C   UNL     1      37.222  43.179  63.906  1.00  0.00    -0.052 A 
HETATM   18  C   UNL     1      36.828  44.521  64.049  1.00  0.00     0.007 A 
HETATM   19  C   UNL     1      35.790  44.881  64.914  1.00  0.00     0.001 A 
HETATM   20  C   UNL     1      35.144  43.915  65.677  1.00  0.00     0.000 A 
HETATM   21  C   UNL     1      35.550  42.590  65.593  1.00  0.00     0.001 A 
HETATM   22  C   UNL     1      36.585  42.229  64.729  1.00  0.00     0.007 A 
ENDBRANCH  10  17
BRANCH   1  23
HETATM   23  C   UNL     1      41.451  47.371  65.275  1.00  0.00     0.323 C 
BRANCH  23  24
HETATM   24  C   UNL     1      40.170  47.757  65.912  1.00  0.00     0.198 A 
HETATM   25  O   UNL     1      40.195  48.071  67.231  1.00  0.00    -0.194 OA
HETATM   26  N   UNL     1      38.881  48.363  67.581  1.00  0.00    -0.112 NA
HETATM   27  C   UNL     1      38.200  48.189  66.440  1.00  0.00     0.152 A 
HETATM   28  C   UNL     1      36.735  48.351  66.356  1.00  0.00     0.096 C 
HETATM   29  N   UNL     1      38.979  47.827  65.359  1.00  0.00    -0.208 NA
ENDBRANCH  23  24
ENDBRANCH   1  23
TORSDOF 4
ENDMDL
MODEL 8
REMARK VINA RESULT:      -7.0      3.256      4.999
REMARK  4 active torsions:
REMARK  status: ('A' for Active; 'I' for Inactive)
REMARK    1  A    between atoms: C_5  and  C_6 
REMARK    2  A    between atoms: C_6  and  N_7 
REMARK    3  A    between atoms: N_13  and  C_15 
REMARK    4  A    between atoms: C_19  and  C_20 
ROOT
HETATM    1  N   UNL     1      18.518  45.888  46.946  1.00  0.00    -0.064 N 
HETATM    2  H   UNL     1      18.096  45.003  47.290  1.00  0.00     0.280 HD
HETATM    3  C   UNL     1      18.726  46.727  48.169  1.00  0.00     0.236 C 
HETATM    4  C   UNL     1      19.154  48.151  47.795  1.00  0.00     0.039 C 
HETATM    5  C   UNL     1      18.277  48.863  46.722  1.00  0.00    -0.013 C 
HETATM    6  C   UNL     1      16.923  49.355  47.300  1.00  0.00     0.245 C 
HETATM    7  N   UNL     1      17.090  50.557  48.197  1.00  0.00    -0.065 N 
HETATM    8  H   UNL     1      17.685  50.310  49.001  1.00  0.00     0.280 HD
HETATM    9  C   UNL     1      17.762  51.731  47.490  1.00  0.00     0.244 C 
HETATM   10  C   UNL     1      19.169  51.332  47.015  1.00  0.00     0.045 C 
HETATM   11  C   UNL     1      19.029  50.084  46.106  1.00  0.00     0.022 C 
HETATM   12  C   UNL     1      18.018  47.861  45.552  1.00  0.00     0.039 C 
HETATM   13  C   UNL     1      17.543  46.479  45.984  1.00  0.00     0.236 C 
ENDROOT
BRANCH   7  14
HETATM   14  C   UNL     1      15.767  50.997  48.757  1.00  0.00     0.188 A 
HETATM   15  C   UNL     1      15.778  52.172  49.694  1.00  0.00     0.035 A 
HETATM   16  C   UNL     1      15.237  52.325  48.301  1.00  0.00     0.035 A 
ENDBRANCH   7  14
BRANCH  10  17
HETATM   17  C   UNL     1      20.244  51.194  48.090  1.00  0.00    -0.052 A 
HETATM   18  C   UNL     1      21.590  50.904  47.813  1.00  0.00     0.007 A 
HETATM   19  C   UNL     1      22.532  50.787  48.841  1.00  0.00     0.001 A 
HETATM   20  C   UNL     1      22.143  50.927  50.168  1.00  0.00     0.000 A 
HETATM   21  C   UNL     1      20.809  51.162  50.471  1.00  0.00     0.001 A 
HETATM   22  C   UNL     1      19.869  51.280  49.445  1.00  0.00     0.007 A 
ENDBRANCH  10  17
BRANCH   1  23
HETATM   23  C   UNL     1      19.822  45.368  46.299  1.00  0.00     0.323 C 
BRANCH  23  24
HETATM   24  C   UNL     1      20.876  45.112  47.308  1.00  0.00     0.198 A 
HETATM   25  O   UNL     1      20.704  44.057  48.143  1.00  0.00    -0.194 OA
HETATM   26  N   UNL     1      21.803  44.058  48.996  1.00  0.00    -0.112 NA
HETATM   27  C   UNL     1      22.519  45.116  48.591  1.00  0.00     0.152 A 
HETATM   28  C   UNL     1      23.770  45.530  49.257  1.00  0.00     0.096 C 
HETATM   29  N   UNL     1      21.981  45.795  47.517  1.00  0.00    -0.208 NA
ENDBRANCH  23  24
ENDBRANCH   1  23
TORSDOF 4
ENDMDL
MODEL 9
REMARK VINA RESULT:      -6.8     24.867     26.564
REMARK  4 active torsions:
REMARK  status: ('A' for Active; 'I' for Inactive)
REMARK    1  A    between atoms: C_5  and  C_6 
REMARK    2  A    between atoms: C_6  and  N_7 
REMARK    3  A    between atoms: N_13  and  C_15 
REMARK    4  A    between atoms: C_19  and  C_20 
ROOT
HETATM    1  N   UNL     1      37.824  42.641  65.288  1.00  0.00    -0.064 N 
HETATM    2  H   UNL     1      38.144  41.735  65.680  1.00  0.00     0.280 HD
HETATM    3  C   UNL     1      38.426  43.689  66.174  1.00  0.00     0.236 C 
HETATM    4  C   UNL     1      37.872  45.079  65.840  1.00  0.00     0.039 C 
HETATM    5  C   UNL     1      36.321  45.187  65.753  1.00  0.00    -0.013 C 
HETATM    6  C   UNL     1      35.650  45.188  67.153  1.00  0.00     0.245 C 
HETATM    7  N   UNL     1      35.864  46.490  67.886  1.00  0.00    -0.065 N 
HETATM    8  H   UNL     1      36.871  46.642  68.037  1.00  0.00     0.280 HD
HETATM    9  C   UNL     1      35.344  47.697  67.108  1.00  0.00     0.244 C 
HETATM   10  C   UNL     1      36.078  47.818  65.762  1.00  0.00     0.045 C 
HETATM   11  C   UNL     1      35.893  46.483  64.995  1.00  0.00     0.022 C 
HETATM   12  C   UNL     1      35.788  43.983  64.913  1.00  0.00     0.039 C 
HETATM   13  C   UNL     1      36.333  42.622  65.328  1.00  0.00     0.236 C 
ENDROOT
BRANCH   7  14
HETATM   14  C   UNL     1      35.222  46.453  69.244  1.00  0.00     0.188 A 
HETATM   15  C   UNL     1      35.652  47.501  70.231  1.00  0.00     0.035 A 
HETATM   16  C   UNL     1      34.294  47.580  69.594  1.00  0.00     0.035 A 
ENDBRANCH   7  14
BRANCH  10  17
HETATM   17  C   UNL     1      37.524  48.306  65.809  1.00  0.00    -0.052 A 
HETATM   18  C   UNL     1      38.224  48.553  67.003  1.00  0.00     0.007 A 
HETATM   19  C   UNL     1      39.549  49.002  66.985  1.00  0.00     0.001 A 
HETATM   20  C   UNL     1      40.192  49.243  65.776  1.00  0.00     0.000 A 
HETATM   21  C   UNL     1      39.506  49.057  64.584  1.00  0.00     0.001 A 
HETATM   22  C   UNL     1      38.184  48.607  64.601  1.00  0.00     0.007 A 
ENDBRANCH  10  17
BRANCH   1  23
HETATM   23  C   UNL     1      38.428  42.585  63.866  1.00  0.00     0.323 C 
BRANCH  23  24
HETATM   24  C   UNL     1      39.084  41.283  63.596  1.00  0.00     0.198 A 
HETATM   25  O   UNL     1      38.958  40.764  62.349  1.00  0.00    -0.194 OA
HETATM   26  N   UNL     1      39.630  39.546  62.371  1.00  0.00    -0.112 NA
HETATM   27  C   UNL     1      40.086  39.456  63.628  1.00  0.00     0.152 A 
HETATM   28  C   UNL     1      40.832  38.281  64.119  1.00  0.00     0.096 C 
HETATM   29  N   UNL     1      39.781  40.539  64.426  1.00  0.00    -0.208 NA
ENDBRANCH  23  24
ENDBRANCH   1  23
TORSDOF 4
ENDMDL
MODEL 10
REMARK VINA RESULT:      -6.8      2.260      3.673
REMARK  4 active torsions:
REMARK  status: ('A' for Active; 'I' for Inactive)
REMARK    1  A    between atoms: C_5  and  C_6 
REMARK    2  A    between atoms: C_6  and  N_7 
REMARK    3  A    between atoms: N_13  and  C_15 
REMARK    4  A    between atoms: C_19  and  C_20 
ROOT
HETATM    1  N   UNL     1      20.572  51.367  48.068  1.00  0.00    -0.064 N 
HETATM    2  H   UNL     1      21.340  51.918  47.639  1.00  0.00     0.280 HD
HETATM    3  C   UNL     1      20.133  50.407  47.005  1.00  0.00     0.236 C 
HETATM    4  C   UNL     1      18.861  49.662  47.426  1.00  0.00     0.039 C 
HETATM    5  C   UNL     1      17.695  50.553  47.948  1.00  0.00    -0.013 C 
HETATM    6  C   UNL     1      16.957  51.292  46.799  1.00  0.00     0.245 C 
HETATM    7  N   UNL     1      16.096  50.357  45.983  1.00  0.00    -0.065 N 
HETATM    8  H   UNL     1      16.685  49.636  45.544  1.00  0.00     0.280 HD
HETATM    9  C   UNL     1      15.054  49.628  46.827  1.00  0.00     0.244 C 
HETATM   10  C   UNL     1      15.745  48.771  47.901  1.00  0.00     0.045 C 
HETATM   11  C   UNL     1      16.654  49.703  48.742  1.00  0.00     0.022 C 
HETATM   12  C   UNL     1      18.281  51.595  48.953  1.00  0.00     0.039 C 
HETATM   13  C   UNL     1      19.512  52.342  48.457  1.00  0.00     0.236 C 
ENDROOT
BRANCH   7  14
HETATM   14  C   UNL     1      15.412  51.096  44.866  1.00  0.00     0.188 A 
HETATM   15  C   UNL     1      13.942  51.363  45.025  1.00  0.00     0.035 A 
HETATM   16  C   UNL     1      14.930  52.487  45.160  1.00  0.00     0.035 A 
ENDBRANCH   7  14
BRANCH  10  17
HETATM   17  C   UNL     1      16.441  47.499  47.423  1.00  0.00    -0.052 A 
HETATM   18  C   UNL     1      17.113  46.610  48.278  1.00  0.00     0.007 A 
HETATM   19  C   UNL     1      17.736  45.460  47.782  1.00  0.00     0.001 A 
HETATM   20  C   UNL     1      17.725  45.189  46.419  1.00  0.00     0.000 A 
HETATM   21  C   UNL     1      17.113  46.078  45.546  1.00  0.00     0.001 A 
HETATM   22  C   UNL     1      16.490  47.226  46.041  1.00  0.00     0.007 A 
ENDBRANCH  10  17
BRANCH   1  23
HETATM   23  C   UNL     1      21.304  50.708  49.260  1.00  0.00     0.323 C 
BRANCH  23  24
HETATM   24  C   UNL     1      22.686  50.304  48.905  1.00  0.00     0.198 A 
HETATM   25  O   UNL     1      23.153  50.670  47.686  1.00  0.00    -0.194 OA
HETATM   26  N   UNL     1      24.440  50.150  47.597  1.00  0.00    -0.112 NA
HETATM   27  C   UNL     1      24.612  49.521  48.768  1.00  0.00     0.152 A 
HETATM   28  C   UNL     1      25.843  48.774  49.095  1.00  0.00     0.096 C 
HETATM   29  N   UNL     1      23.538  49.612  49.629  1.00  0.00    -0.208 NA
ENDBRANCH  23  24
ENDBRANCH   1  23
TORSDOF 4
ENDMDL
