MODEL 1
REMARK VINA RESULT:      -9.9      0.000      0.000
REMARK  6 active torsions:
REMARK  status: ('A' for Active; 'I' for Inactive)
REMARK    1  A    between atoms: C_4  and  C_5 
REMARK    2  A    between atoms: C_5  and  N_6 
REMARK    3  A    between atoms: C_5  and  C_20 
REMARK       I    between atoms: N_6  and  C_7 
REMARK    4  A    between atoms: C_7  and  C_8 
REMARK    5  A    between atoms: C_8  and  N_9 
REMARK    6  A    between atoms: C_21  and  O_22 
ROOT
HETATM    1  C   UNL     1      24.460  47.094  50.149  1.00  0.00     0.154 C 
ENDROOT
BRANCH   1   2
HETATM    2  C   UNL     1      25.468  48.080  49.552  1.00  0.00    -0.031 A 
HETATM    3  C   UNL     1      26.853  47.961  49.760  1.00  0.00     0.009 A 
HETATM    4  C   UNL     1      27.742  48.892  49.214  1.00  0.00     0.001 A 
HETATM    5  C   UNL     1      27.264  49.967  48.470  1.00  0.00     0.000 A 
HETATM    6  C   UNL     1      25.895  50.122  48.278  1.00  0.00     0.001 A 
HETATM    7  C   UNL     1      25.006  49.194  48.823  1.00  0.00     0.009 A 
ENDBRANCH   1   2
BRANCH   1   8
HETATM    8  N   UNL     1      25.051  46.103  51.035  1.00  0.00    -0.347 N 
HETATM    9  C   UNL     1      25.369  46.408  52.339  1.00  0.00     0.236 C 
HETATM   10  O   UNL     1      25.248  47.551  52.788  1.00  0.00    -0.272 OA
HETATM   11  H   UNL     1      24.856  45.126  50.822  1.00  0.00     0.163 HD
BRANCH   9  12
HETATM   12  C   UNL     1      25.672  45.215  53.256  1.00  0.00     0.236 C 
BRANCH  12  13
HETATM   13  N   UNL     1      26.875  44.474  52.946  1.00  0.00    -0.289 N 
HETATM   14  C   UNL     1      26.952  43.449  51.985  1.00  0.00     0.328 A 
HETATM   15  O   UNL     1      26.116  43.179  51.139  1.00  0.00    -0.247 OA
HETATM   16  N   UNL     1      28.175  42.799  52.172  1.00  0.00    -0.306 N 
HETATM   17  C   UNL     1      28.817  43.361  53.269  1.00  0.00     0.063 A 
HETATM   18  H   UNL     1      28.484  42.010  51.628  1.00  0.00     0.171 HD
HETATM   19  C   UNL     1      28.018  44.395  53.762  1.00  0.00     0.066 A 
HETATM   20  C   UNL     1      30.006  42.990  53.855  1.00  0.00     0.032 A 
HETATM   21  C   UNL     1      28.391  45.110  54.881  1.00  0.00     0.032 A 
HETATM   22  C   UNL     1      29.598  44.752  55.497  1.00  0.00     0.002 A 
HETATM   23  C   UNL     1      30.395  43.704  54.991  1.00  0.00     0.002 A 
ENDBRANCH  12  13
ENDBRANCH   9  12
ENDBRANCH   1   8
BRANCH   1  24
HETATM   24  C   UNL     1      23.561  46.386  49.124  1.00  0.00     0.013 A 
HETATM   25  C   UNL     1      23.982  45.149  48.598  1.00  0.00     0.075 A 
HETATM   26  C   UNL     1      23.162  44.383  47.782  1.00  0.00     0.038 A 
HETATM   27  C   UNL     1      21.910  44.862  47.420  1.00  0.00     0.015 A 
HETATM   28  C   UNL     1      21.474  46.122  47.849  1.00  0.00    -0.025 A 
HETATM   29  C   UNL     1      22.296  46.914  48.696  1.00  0.00    -0.015 A 
HETATM   30  C   UNL     1      20.217  46.591  47.429  1.00  0.00     0.012 A 
HETATM   31  C   UNL     1      21.788  48.187  49.056  1.00  0.00     0.013 A 
HETATM   32  C   UNL     1      20.540  48.646  48.623  1.00  0.00     0.001 A 
HETATM   33  C   UNL     1      19.751  47.845  47.814  1.00  0.00     0.001 A 
BRANCH  25  34
HETATM   34  O   UNL     1      25.226  44.631  48.840  1.00  0.00    -0.360 OA
HETATM   35  H   UNL     1      25.150  44.005  49.596  1.00  0.00     0.217 HD
ENDBRANCH  25  34
ENDBRANCH   1  24
TORSDOF 6
ENDMDL
MODEL 2
REMARK VINA RESULT:      -9.7      1.413      2.022
REMARK  6 active torsions:
REMARK  status: ('A' for Active; 'I' for Inactive)
REMARK    1  A    between atoms: C_4  and  C_5 
REMARK    2  A    between atoms: C_5  and  N_6 
REMARK    3  A    between atoms: C_5  and  C_20 
REMARK       I    between atoms: N_6  and  C_7 
REMARK    4  A    between atoms: C_7  and  C_8 
REMARK    5  A    between atoms: C_8  and  N_9 
REMARK    6  A    between atoms: C_21  and  O_22 
ROOT
HETATM    1  C   UNL     1      25.098  46.239  50.468  1.00  0.00     0.154 C 
ENDROOT
BRANCH   1   2
HETATM    2  C   UNL     1      25.750  47.444  49.782  1.00  0.00    -0.031 A 
HETATM    3  C   UNL     1      27.144  47.578  49.661  1.00  0.00     0.009 A 
HETATM    4  C   UNL     1      27.704  48.701  49.045  1.00  0.00     0.001 A 
HETATM    5  C   UNL     1      26.886  49.717  48.559  1.00  0.00     0.000 A 
HETATM    6  C   UNL     1      25.505  49.620  48.697  1.00  0.00     0.001 A 
HETATM    7  C   UNL     1      24.944  48.499  49.312  1.00  0.00     0.009 A 
ENDBRANCH   1   2
BRANCH   1   8
HETATM    8  N   UNL     1      25.760  45.822  51.694  1.00  0.00    -0.347 N 
HETATM    9  C   UNL     1      25.719  46.598  52.830  1.00  0.00     0.236 C 
HETATM   10  O   UNL     1      25.196  47.716  52.836  1.00  0.00    -0.272 OA
HETATM   11  H   UNL     1      25.894  44.821  51.822  1.00  0.00     0.163 HD
BRANCH   9  12
HETATM   12  C   UNL     1      26.162  45.914  54.130  1.00  0.00     0.236 C 
BRANCH  12  13
HETATM   13  N   UNL     1      27.261  44.982  54.007  1.00  0.00    -0.289 N 
HETATM   14  C   UNL     1      27.156  43.701  53.434  1.00  0.00     0.328 A 
HETATM   15  O   UNL     1      26.222  43.270  52.778  1.00  0.00    -0.247 OA
HETATM   16  N   UNL     1      28.331  43.012  53.748  1.00  0.00    -0.306 N 
HETATM   17  C   UNL     1      29.121  43.819  54.557  1.00  0.00     0.063 A 
HETATM   18  H   UNL     1      28.516  42.060  53.476  1.00  0.00     0.171 HD
HETATM   19  C   UNL     1      28.466  45.040  54.731  1.00  0.00     0.066 A 
HETATM   20  C   UNL     1      30.324  43.524  55.156  1.00  0.00     0.032 A 
HETATM   21  C   UNL     1      29.005  46.029  55.526  1.00  0.00     0.032 A 
HETATM   22  C   UNL     1      30.230  45.754  56.149  1.00  0.00     0.002 A 
HETATM   23  C   UNL     1      30.881  44.516  55.967  1.00  0.00     0.002 A 
ENDBRANCH  12  13
ENDBRANCH   9  12
ENDBRANCH   1   8
BRANCH   1  24
HETATM   24  C   UNL     1      24.885  45.016  49.564  1.00  0.00     0.013 A 
HETATM   25  C   UNL     1      25.919  44.063  49.465  1.00  0.00     0.075 A 
HETATM   26  C   UNL     1      25.747  42.865  48.786  1.00  0.00     0.038 A 
HETATM   27  C   UNL     1      24.548  42.609  48.135  1.00  0.00     0.015 A 
HETATM   28  C   UNL     1      23.517  43.556  48.133  1.00  0.00    -0.025 A 
HETATM   29  C   UNL     1      23.670  44.783  48.834  1.00  0.00    -0.015 A 
HETATM   30  C   UNL     1      22.333  43.278  47.429  1.00  0.00     0.012 A 
HETATM   31  C   UNL     1      22.589  45.695  48.753  1.00  0.00     0.013 A 
HETATM   32  C   UNL     1      21.420  45.410  48.041  1.00  0.00     0.001 A 
HETATM   33  C   UNL     1      21.289  44.198  47.383  1.00  0.00     0.001 A 
BRANCH  25  34
HETATM   34  O   UNL     1      27.158  44.262  50.012  1.00  0.00    -0.360 OA
HETATM   35  H   UNL     1      27.051  44.845  50.797  1.00  0.00     0.217 HD
ENDBRANCH  25  34
ENDBRANCH   1  24
TORSDOF 6
ENDMDL
MODEL 3
REMARK VINA RESULT:      -9.6      2.725      7.344
REMARK  6 active torsions:
REMARK  status: ('A' for Active; 'I' for Inactive)
REMARK    1  A    between atoms: C_4  and  C_5 
REMARK    2  A    between atoms: C_5  and  N_6 
REMARK    3  A    between atoms: C_5  and  C_20 
REMARK       I    between atoms: N_6  and  C_7 
REMARK    4  A    between atoms: C_7  and  C_8 
REMARK    5  A    between atoms: C_8  and  N_9 
REMARK    6  A    between atoms: C_21  and  O_22 
ROOT
HETATM    1  C   UNL     1      27.089  43.824  50.834  1.00  0.00     0.154 C 
ENDROOT
BRANCH   1   2
HETATM    2  C   UNL     1      27.834  43.088  51.951  1.00  0.00    -0.031 A 
HETATM    3  C   UNL     1      27.596  41.735  52.251  1.00  0.00     0.009 A 
HETATM    4  C   UNL     1      28.282  41.101  53.292  1.00  0.00     0.001 A 
HETATM    5  C   UNL     1      29.200  41.809  54.063  1.00  0.00     0.000 A 
HETATM    6  C   UNL     1      29.426  43.157  53.804  1.00  0.00     0.001 A 
HETATM    7  C   UNL     1      28.742  43.792  52.766  1.00  0.00     0.009 A 
ENDBRANCH   1   2
BRANCH   1   8
HETATM    8  N   UNL     1      26.727  45.194  51.162  1.00  0.00    -0.347 N 
HETATM    9  C   UNL     1      26.833  46.205  50.234  1.00  0.00     0.236 C 
HETATM   10  O   UNL     1      27.317  46.013  49.115  1.00  0.00    -0.272 OA
HETATM   11  H   UNL     1      26.045  45.319  51.908  1.00  0.00     0.163 HD
BRANCH   9  12
HETATM   12  C   UNL     1      26.122  47.519  50.584  1.00  0.00     0.236 C 
BRANCH  12  13
HETATM   13  N   UNL     1      25.830  48.392  49.469  1.00  0.00    -0.289 N 
HETATM   14  C   UNL     1      26.765  49.256  48.869  1.00  0.00     0.328 A 
HETATM   15  O   UNL     1      27.974  49.251  49.036  1.00  0.00    -0.247 OA
HETATM   16  N   UNL     1      26.052  50.120  48.033  1.00  0.00    -0.306 N 
HETATM   17  C   UNL     1      24.696  49.847  48.161  1.00  0.00     0.063 A 
HETATM   18  H   UNL     1      26.473  50.856  47.491  1.00  0.00     0.171 HD
HETATM   19  C   UNL     1      24.544  48.783  49.053  1.00  0.00     0.066 A 
HETATM   20  C   UNL     1      23.628  50.494  47.582  1.00  0.00     0.032 A 
HETATM   21  C   UNL     1      23.294  48.320  49.402  1.00  0.00     0.032 A 
HETATM   22  C   UNL     1      22.189  48.962  48.826  1.00  0.00     0.002 A 
HETATM   23  C   UNL     1      22.354  50.038  47.928  1.00  0.00     0.002 A 
ENDBRANCH  12  13
ENDBRANCH   9  12
ENDBRANCH   1   8
BRANCH   1  24
HETATM   24  C   UNL     1      25.856  43.090  50.285  1.00  0.00     0.013 A 
HETATM   25  C   UNL     1      24.606  43.329  50.889  1.00  0.00     0.075 A 
HETATM   26  C   UNL     1      23.429  42.818  50.361  1.00  0.00     0.038 A 
HETATM   27  C   UNL     1      23.475  42.003  49.238  1.00  0.00     0.015 A 
HETATM   28  C   UNL     1      24.699  41.667  48.646  1.00  0.00    -0.025 A 
HETATM   29  C   UNL     1      25.913  42.192  49.166  1.00  0.00    -0.015 A 
HETATM   30  C   UNL     1      24.709  40.806  47.535  1.00  0.00     0.012 A 
HETATM   31  C   UNL     1      27.106  41.776  48.523  1.00  0.00     0.013 A 
HETATM   32  C   UNL     1      27.103  40.911  47.425  1.00  0.00     0.001 A 
HETATM   33  C   UNL     1      25.903  40.430  46.927  1.00  0.00     0.001 A 
BRANCH  25  34
HETATM   34  O   UNL     1      24.470  44.059  52.039  1.00  0.00    -0.360 OA
HETATM   35  H   UNL     1      23.509  44.208  52.190  1.00  0.00     0.217 HD
ENDBRANCH  25  34
ENDBRANCH   1  24
TORSDOF 6
ENDMDL
MODEL 4
REMARK VINA RESULT:      -9.0      1.427      2.344
REMARK  6 active torsions:
REMARK  status: ('A' for Active; 'I' for Inactive)
REMARK    1  A    between atoms: C_4  and  C_5 
REMARK    2  A    between atoms: C_5  and  N_6 
REMARK    3  A    between atoms: C_5  and  C_20 
REMARK       I    between atoms: N_6  and  C_7 
REMARK    4  A    between atoms: C_7  and  C_8 
REMARK    5  A    between atoms: C_8  and  N_9 
REMARK    6  A    between atoms: C_21  and  O_22 
ROOT
HETATM    1  C   UNL     1      24.069  47.598  49.949  1.00  0.00     0.154 C 
ENDROOT
BRANCH   1   2
HETATM    2  C   UNL     1      25.280  48.400  49.464  1.00  0.00    -0.031 A 
HETATM    3  C   UNL     1      25.158  49.499  48.595  1.00  0.00     0.009 A 
HETATM    4  C   UNL     1      26.288  50.196  48.158  1.00  0.00     0.001 A 
HETATM    5  C   UNL     1      27.559  49.798  48.564  1.00  0.00     0.000 A 
HETATM    6  C   UNL     1      27.705  48.694  49.399  1.00  0.00     0.001 A 
HETATM    7  C   UNL     1      26.578  47.997  49.835  1.00  0.00     0.009 A 
ENDBRANCH   1   2
BRANCH   1   8
HETATM    8  N   UNL     1      24.370  46.218  50.297  1.00  0.00    -0.347 N 
HETATM    9  C   UNL     1      24.850  45.882  51.542  1.00  0.00     0.236 C 
HETATM   10  O   UNL     1      25.127  46.739  52.386  1.00  0.00    -0.272 OA
HETATM   11  H   UNL     1      23.862  45.498  49.786  1.00  0.00     0.163 HD
BRANCH   9  12
HETATM   12  C   UNL     1      24.816  44.389  51.898  1.00  0.00     0.236 C 
BRANCH  12  13
HETATM   13  N   UNL     1      25.668  43.985  52.993  1.00  0.00    -0.289 N 
HETATM   14  C   UNL     1      25.363  44.183  54.353  1.00  0.00     0.328 A 
HETATM   15  O   UNL     1      24.283  44.510  54.818  1.00  0.00    -0.247 OA
HETATM   16  N   UNL     1      26.529  43.925  55.079  1.00  0.00    -0.306 N 
HETATM   17  C   UNL     1      27.557  43.641  54.189  1.00  0.00     0.063 A 
HETATM   18  H   UNL     1      26.600  44.008  56.081  1.00  0.00     0.171 HD
HETATM   19  C   UNL     1      27.038  43.682  52.893  1.00  0.00     0.066 A 
HETATM   20  C   UNL     1      28.885  43.396  54.456  1.00  0.00     0.032 A 
HETATM   21  C   UNL     1      27.848  43.474  51.796  1.00  0.00     0.032 A 
HETATM   22  C   UNL     1      29.205  43.224  52.040  1.00  0.00     0.002 A 
HETATM   23  C   UNL     1      29.718  43.187  53.354  1.00  0.00     0.002 A 
ENDBRANCH  12  13
ENDBRANCH   9  12
ENDBRANCH   1   8
BRANCH   1  24
HETATM   24  C   UNL     1      22.852  47.632  49.012  1.00  0.00     0.013 A 
HETATM   25  C   UNL     1      22.593  46.508  48.203  1.00  0.00     0.075 A 
HETATM   26  C   UNL     1      21.438  46.406  47.442  1.00  0.00     0.038 A 
HETATM   27  C   UNL     1      20.530  47.456  47.423  1.00  0.00     0.015 A 
HETATM   28  C   UNL     1      20.778  48.630  48.144  1.00  0.00    -0.025 A 
HETATM   29  C   UNL     1      21.950  48.747  48.941  1.00  0.00    -0.015 A 
HETATM   30  C   UNL     1      19.857  49.689  48.069  1.00  0.00     0.012 A 
HETATM   31  C   UNL     1      22.135  49.982  49.612  1.00  0.00     0.013 A 
HETATM   32  C   UNL     1      21.215  51.030  49.520  1.00  0.00     0.001 A 
HETATM   33  C   UNL     1      20.072  50.882  48.752  1.00  0.00     0.001 A 
BRANCH  25  34
HETATM   34  O   UNL     1      23.464  45.457  48.101  1.00  0.00    -0.360 OA
HETATM   35  H   UNL     1      23.111  44.837  47.423  1.00  0.00     0.217 HD
ENDBRANCH  25  34
ENDBRANCH   1  24
TORSDOF 6
ENDMDL
MODEL 5
REMARK VINA RESULT:      -8.9      3.101      5.530
REMARK  6 active torsions:
REMARK  status: ('A' for Active; 'I' for Inactive)
REMARK    1  A    between atoms: C_4  and  C_5 
REMARK    2  A    between atoms: C_5  and  N_6 
REMARK    3  A    between atoms: C_5  and  C_20 
REMARK       I    between atoms: N_6  and  C_7 
REMARK    4  A    between atoms: C_7  and  C_8 
REMARK    5  A    between atoms: C_8  and  N_9 
REMARK    6  A    between atoms: C_21  and  O_22 
ROOT
HETATM    1  C   UNL     1      25.406  45.374  51.162  1.00  0.00     0.154 C 
ENDROOT
BRANCH   1   2
HETATM    2  C   UNL     1      25.981  45.950  52.460  1.00  0.00    -0.031 A 
HETATM    3  C   UNL     1      25.500  47.140  53.034  1.00  0.00     0.009 A 
HETATM    4  C   UNL     1      26.062  47.646  54.209  1.00  0.00     0.001 A 
HETATM    5  C   UNL     1      27.124  46.986  54.822  1.00  0.00     0.000 A 
HETATM    6  C   UNL     1      27.636  45.824  54.253  1.00  0.00     0.001 A 
HETATM    7  C   UNL     1      27.077  45.318  53.079  1.00  0.00     0.009 A 
ENDBRANCH   1   2
BRANCH   1   8
HETATM    8  N   UNL     1      26.298  44.452  50.475  1.00  0.00    -0.347 N 
HETATM    9  C   UNL     1      25.884  43.191  50.113  1.00  0.00     0.236 C 
HETATM   10  O   UNL     1      24.773  42.755  50.430  1.00  0.00    -0.272 OA
HETATM   11  H   UNL     1      27.049  44.868  49.927  1.00  0.00     0.163 HD
BRANCH   9  12
HETATM   12  C   UNL     1      26.784  42.444  49.119  1.00  0.00     0.236 C 
BRANCH  12  13
HETATM   13  N   UNL     1      27.416  41.246  49.623  1.00  0.00    -0.289 N 
HETATM   14  C   UNL     1      28.052  41.149  50.875  1.00  0.00     0.328 A 
HETATM   15  O   UNL     1      27.986  41.952  51.791  1.00  0.00    -0.247 OA
HETATM   16  N   UNL     1      28.771  39.950  50.880  1.00  0.00    -0.306 N 
HETATM   17  C   UNL     1      28.644  39.346  49.636  1.00  0.00     0.063 A 
HETATM   18  H   UNL     1      29.338  39.635  51.651  1.00  0.00     0.171 HD
HETATM   19  C   UNL     1      27.812  40.143  48.845  1.00  0.00     0.066 A 
HETATM   20  C   UNL     1      29.236  38.193  49.172  1.00  0.00     0.032 A 
HETATM   21  C   UNL     1      27.538  39.805  47.537  1.00  0.00     0.032 A 
HETATM   22  C   UNL     1      28.130  38.635  47.039  1.00  0.00     0.002 A 
HETATM   23  C   UNL     1      28.969  37.840  47.847  1.00  0.00     0.002 A 
ENDBRANCH  12  13
ENDBRANCH   9  12
ENDBRANCH   1   8
BRANCH   1  24
HETATM   24  C   UNL     1      24.888  46.419  50.163  1.00  0.00     0.013 A 
HETATM   25  C   UNL     1      23.563  46.305  49.695  1.00  0.00     0.075 A 
HETATM   26  C   UNL     1      22.979  47.286  48.907  1.00  0.00     0.038 A 
HETATM   27  C   UNL     1      23.724  48.390  48.516  1.00  0.00     0.015 A 
HETATM   28  C   UNL     1      25.070  48.513  48.885  1.00  0.00    -0.025 A 
HETATM   29  C   UNL     1      25.681  47.524  49.703  1.00  0.00    -0.015 A 
HETATM   30  C   UNL     1      25.804  49.624  48.436  1.00  0.00     0.012 A 
HETATM   31  C   UNL     1      27.053  47.714  50.002  1.00  0.00     0.013 A 
HETATM   32  C   UNL     1      27.775  48.819  49.541  1.00  0.00     0.001 A 
HETATM   33  C   UNL     1      27.149  49.777  48.762  1.00  0.00     0.001 A 
BRANCH  25  34
HETATM   34  O   UNL     1      22.777  45.219  49.969  1.00  0.00    -0.360 OA
HETATM   35  H   UNL     1      22.131  45.121  49.232  1.00  0.00     0.217 HD
ENDBRANCH  25  34
ENDBRANCH   1  24
TORSDOF 6
ENDMDL
MODEL 6
REMARK VINA RESULT:      -8.9      1.050      2.328
REMARK  6 active torsions:
REMARK  status: ('A' for Active; 'I' for Inactive)
REMARK    1  A    between atoms: C_4  and  C_5 
REMARK    2  A    between atoms: C_5  and  N_6 
REMARK    3  A    between atoms: C_5  and  C_20 
REMARK       I    between atoms: N_6  and  C_7 
REMARK    4  A    between atoms: C_7  and  C_8 
REMARK    5  A    between atoms: C_8  and  N_9 
REMARK    6  A    between atoms: C_21  and  O_22 
ROOT
HETATM    1  C   UNL     1      24.299  47.243  50.210  1.00  0.00     0.154 C 
ENDROOT
BRANCH   1   2
HETATM    2  C   UNL     1      25.393  48.108  49.578  1.00  0.00    -0.031 A 
HETATM    3  C   UNL     1      26.762  47.839  49.755  1.00  0.00     0.009 A 
HETATM    4  C   UNL     1      27.733  48.662  49.177  1.00  0.00     0.001 A 
HETATM    5  C   UNL     1      27.358  49.777  48.431  1.00  0.00     0.000 A 
HETATM    6  C   UNL     1      26.009  50.078  48.270  1.00  0.00     0.001 A 
HETATM    7  C   UNL     1      25.038  49.258  48.846  1.00  0.00     0.009 A 
ENDBRANCH   1   2
BRANCH   1   8
HETATM    8  N   UNL     1      24.803  46.136  51.009  1.00  0.00    -0.347 N 
HETATM    9  C   UNL     1      25.228  46.323  52.304  1.00  0.00     0.236 C 
HETATM   10  O   UNL     1      25.282  47.445  52.816  1.00  0.00    -0.272 OA
HETATM   11  H   UNL     1      24.471  45.206  50.760  1.00  0.00     0.163 HD
BRANCH   9  12
HETATM   12  C   UNL     1      25.422  45.051  53.141  1.00  0.00     0.236 C 
BRANCH  12  13
HETATM   13  N   UNL     1      26.689  44.376  52.972  1.00  0.00    -0.289 N 
HETATM   14  C   UNL     1      26.888  43.254  52.146  1.00  0.00     0.328 A 
HETATM   15  O   UNL     1      26.116  42.822  51.305  1.00  0.00    -0.247 OA
HETATM   16  N   UNL     1      28.144  42.728  52.460  1.00  0.00    -0.306 N 
HETATM   17  C   UNL     1      28.688  43.462  53.506  1.00  0.00     0.063 A 
HETATM   18  H   UNL     1      28.536  41.906  52.028  1.00  0.00     0.171 HD
HETATM   19  C   UNL     1      27.793  44.482  53.837  1.00  0.00     0.066 A 
HETATM   20  C   UNL     1      29.870  43.257  54.180  1.00  0.00     0.032 A 
HETATM   21  C   UNL     1      28.057  45.350  54.876  1.00  0.00     0.032 A 
HETATM   22  C   UNL     1      29.254  45.162  55.579  1.00  0.00     0.002 A 
HETATM   23  C   UNL     1      30.150  44.127  55.236  1.00  0.00     0.002 A 
ENDBRANCH  12  13
ENDBRANCH   9  12
ENDBRANCH   1   8
BRANCH   1  24
HETATM   24  C   UNL     1      23.238  46.720  49.229  1.00  0.00     0.013 A 
HETATM   25  C   UNL     1      22.121  47.531  48.949  1.00  0.00     0.075 A 
HETATM   26  C   UNL     1      21.198  47.193  47.970  1.00  0.00     0.038 A 
HETATM   27  C   UNL     1      21.337  45.998  47.277  1.00  0.00     0.015 A 
HETATM   28  C   UNL     1      22.384  45.116  47.572  1.00  0.00    -0.025 A 
HETATM   29  C   UNL     1      23.346  45.452  48.563  1.00  0.00    -0.015 A 
HETATM   30  C   UNL     1      22.469  43.897  46.878  1.00  0.00     0.012 A 
HETATM   31  C   UNL     1      24.352  44.488  48.818  1.00  0.00     0.013 A 
HETATM   32  C   UNL     1      24.419  43.274  48.126  1.00  0.00     0.001 A 
HETATM   33  C   UNL     1      23.480  42.981  47.152  1.00  0.00     0.001 A 
BRANCH  25  34
HETATM   34  O   UNL     1      21.862  48.689  49.632  1.00  0.00    -0.360 OA
HETATM   35  H   UNL     1      21.282  49.248  49.067  1.00  0.00     0.217 HD
ENDBRANCH  25  34
ENDBRANCH   1  24
TORSDOF 6
ENDMDL
MODEL 7
REMARK VINA RESULT:      -8.8      2.052      4.387
REMARK  6 active torsions:
REMARK  status: ('A' for Active; 'I' for Inactive)
REMARK    1  A    between atoms: C_4  and  C_5 
REMARK    2  A    between atoms: C_5  and  N_6 
REMARK    3  A    between atoms: C_5  and  C_20 
REMARK       I    between atoms: N_6  and  C_7 
REMARK    4  A    between atoms: C_7  and  C_8 
REMARK    5  A    between atoms: C_8  and  N_9 
REMARK    6  A    between atoms: C_21  and  O_22 
ROOT
HETATM    1  C   UNL     1      22.876  47.377  48.336  1.00  0.00     0.154 C 
ENDROOT
BRANCH   1   2
HETATM    2  C   UNL     1      22.034  46.363  47.557  1.00  0.00    -0.031 A 
HETATM    3  C   UNL     1      21.341  46.704  46.382  1.00  0.00     0.009 A 
HETATM    4  C   UNL     1      20.566  45.756  45.707  1.00  0.00     0.001 A 
HETATM    5  C   UNL     1      20.453  44.459  46.202  1.00  0.00     0.000 A 
HETATM    6  C   UNL     1      21.105  44.109  47.380  1.00  0.00     0.001 A 
HETATM    7  C   UNL     1      21.879  45.055  48.056  1.00  0.00     0.009 A 
ENDBRANCH   1   2
BRANCH   1   8
HETATM    8  N   UNL     1      23.286  46.921  49.656  1.00  0.00    -0.347 N 
HETATM    9  C   UNL     1      24.573  47.101  50.108  1.00  0.00     0.236 C 
HETATM   10  O   UNL     1      25.455  47.578  49.388  1.00  0.00    -0.272 OA
HETATM   11  H   UNL     1      22.554  46.844  50.359  1.00  0.00     0.163 HD
BRANCH   9  12
HETATM   12  C   UNL     1      24.797  46.883  51.611  1.00  0.00     0.236 C 
BRANCH  12  13
HETATM   13  N   UNL     1      25.326  45.591  51.985  1.00  0.00    -0.289 N 
HETATM   14  C   UNL     1      24.695  44.363  51.710  1.00  0.00     0.328 A 
HETATM   15  O   UNL     1      23.756  44.180  50.952  1.00  0.00    -0.247 OA
HETATM   16  N   UNL     1      25.352  43.384  52.460  1.00  0.00    -0.306 N 
HETATM   17  C   UNL     1      26.325  43.996  53.240  1.00  0.00     0.063 A 
HETATM   18  H   UNL     1      25.093  42.411  52.467  1.00  0.00     0.171 HD
HETATM   19  C   UNL     1      26.315  45.365  52.960  1.00  0.00     0.066 A 
HETATM   20  C   UNL     1      27.160  43.431  54.177  1.00  0.00     0.032 A 
HETATM   21  C   UNL     1      27.158  46.232  53.622  1.00  0.00     0.032 A 
HETATM   22  C   UNL     1      28.018  45.682  54.582  1.00  0.00     0.002 A 
HETATM   23  C   UNL     1      28.018  44.299  54.857  1.00  0.00     0.002 A 
ENDBRANCH  12  13
ENDBRANCH   9  12
ENDBRANCH   1   8
BRANCH   1  24
HETATM   24  C   UNL     1      22.259  48.779  48.452  1.00  0.00     0.013 A 
HETATM   25  C   UNL     1      23.010  49.884  48.007  1.00  0.00     0.075 A 
HETATM   26  C   UNL     1      22.468  51.160  47.945  1.00  0.00     0.038 A 
HETATM   27  C   UNL     1      21.168  51.378  48.383  1.00  0.00     0.015 A 
HETATM   28  C   UNL     1      20.405  50.329  48.912  1.00  0.00    -0.025 A 
HETATM   29  C   UNL     1      20.941  49.013  48.970  1.00  0.00    -0.015 A 
HETATM   30  C   UNL     1      19.109  50.595  49.383  1.00  0.00     0.012 A 
HETATM   31  C   UNL     1      20.110  48.020  49.548  1.00  0.00     0.013 A 
HETATM   32  C   UNL     1      18.825  48.301  50.022  1.00  0.00     0.001 A 
HETATM   33  C   UNL     1      18.322  49.588  49.934  1.00  0.00     0.001 A 
BRANCH  25  34
HETATM   34  O   UNL     1      24.321  49.779  47.625  1.00  0.00    -0.360 OA
HETATM   35  H   UNL     1      24.391  49.028  46.993  1.00  0.00     0.217 HD
ENDBRANCH  25  34
ENDBRANCH   1  24
TORSDOF 6
ENDMDL
MODEL 8
REMARK VINA RESULT:      -8.6     18.489     21.904
REMARK  6 active torsions:
REMARK  status: ('A' for Active; 'I' for Inactive)
REMARK    1  A    between atoms: C_4  and  C_5 
REMARK    2  A    between atoms: C_5  and  N_6 
REMARK    3  A    between atoms: C_5  and  C_20 
REMARK       I    between atoms: N_6  and  C_7 
REMARK    4  A    between atoms: C_7  and  C_8 
REMARK    5  A    between atoms: C_8  and  N_9 
REMARK    6  A    between atoms: C_21  and  O_22 
ROOT
HETATM    1  C   UNL     1      39.944  42.811  65.300  1.00  0.00     0.154 C 
ENDROOT
BRANCH   1   2
HETATM    2  C   UNL     1      39.852  41.609  64.356  1.00  0.00    -0.031 A 
HETATM    3  C   UNL     1      39.227  41.686  63.098  1.00  0.00     0.009 A 
HETATM    4  C   UNL     1      39.144  40.562  62.270  1.00  0.00     0.001 A 
HETATM    5  C   UNL     1      39.664  39.341  62.689  1.00  0.00     0.000 A 
HETATM    6  C   UNL     1      40.259  39.235  63.943  1.00  0.00     0.001 A 
HETATM    7  C   UNL     1      40.341  40.355  64.771  1.00  0.00     0.009 A 
ENDBRANCH   1   2
BRANCH   1   8
HETATM    8  N   UNL     1      38.689  43.523  65.482  1.00  0.00    -0.347 N 
HETATM    9  C   UNL     1      38.273  43.936  66.727  1.00  0.00     0.236 C 
HETATM   10  O   UNL     1      38.899  43.648  67.751  1.00  0.00    -0.272 OA
HETATM   11  H   UNL     1      38.342  44.047  64.680  1.00  0.00     0.163 HD
BRANCH   9  12
HETATM   12  C   UNL     1      37.120  44.948  66.752  1.00  0.00     0.236 C 
BRANCH  12  13
HETATM   13  N   UNL     1      37.298  46.123  65.928  1.00  0.00    -0.289 N 
HETATM   14  C   UNL     1      36.722  46.296  64.656  1.00  0.00     0.328 A 
HETATM   15  O   UNL     1      35.841  45.616  64.155  1.00  0.00    -0.247 OA
HETATM   16  N   UNL     1      37.341  47.404  64.070  1.00  0.00    -0.306 N 
HETATM   17  C   UNL     1      38.329  47.869  64.928  1.00  0.00     0.063 A 
HETATM   18  H   UNL     1      37.132  47.744  63.145  1.00  0.00     0.171 HD
HETATM   19  C   UNL     1      38.317  47.080  66.080  1.00  0.00     0.066 A 
HETATM   20  C   UNL     1      39.230  48.892  64.732  1.00  0.00     0.032 A 
HETATM   21  C   UNL     1      39.225  47.291  67.097  1.00  0.00     0.032 A 
HETATM   22  C   UNL     1      40.154  48.326  66.921  1.00  0.00     0.002 A 
HETATM   23  C   UNL     1      40.158  49.116  65.752  1.00  0.00     0.002 A 
ENDBRANCH  12  13
ENDBRANCH   9  12
ENDBRANCH   1   8
BRANCH   1  24
HETATM   24  C   UNL     1      41.055  43.817  64.962  1.00  0.00     0.013 A 
HETATM   25  C   UNL     1      40.743  44.911  64.131  1.00  0.00     0.075 A 
HETATM   26  C   UNL     1      41.650  45.935  63.898  1.00  0.00     0.038 A 
HETATM   27  C   UNL     1      42.922  45.866  64.449  1.00  0.00     0.015 A 
HETATM   28  C   UNL     1      43.312  44.761  65.216  1.00  0.00    -0.025 A 
HETATM   29  C   UNL     1      42.391  43.709  65.476  1.00  0.00    -0.015 A 
HETATM   30  C   UNL     1      44.621  44.707  65.724  1.00  0.00     0.012 A 
HETATM   31  C   UNL     1      42.881  42.617  66.235  1.00  0.00     0.013 A 
HETATM   32  C   UNL     1      44.189  42.572  66.725  1.00  0.00     0.001 A 
HETATM   33  C   UNL     1      45.058  43.620  66.474  1.00  0.00     0.001 A 
BRANCH  25  34
HETATM   34  O   UNL     1      39.540  45.027  63.487  1.00  0.00    -0.360 OA
HETATM   35  H   UNL     1      39.609  44.545  62.631  1.00  0.00     0.217 HD
ENDBRANCH  25  34
ENDBRANCH   1  24
TORSDOF 6
ENDMDL
MODEL 9
REMARK VINA RESULT:      -8.6      4.177      7.786
REMARK  6 active torsions:
REMARK  status: ('A' for Active; 'I' for Inactive)
REMARK    1  A    between atoms: C_4  and  C_5 
REMARK    2  A    between atoms: C_5  and  N_6 
REMARK    3  A    between atoms: C_5  and  C_20 
REMARK       I    between atoms: N_6  and  C_7 
REMARK    4  A    between atoms: C_7  and  C_8 
REMARK    5  A    between atoms: C_8  and  N_9 
REMARK    6  A    between atoms: C_21  and  O_22 
ROOT
HETATM    1  C   UNL     1      27.567  43.235  51.225  1.00  0.00     0.154 C 
ENDROOT
BRANCH   1   2
HETATM    2  C   UNL     1      26.593  44.354  50.847  1.00  0.00    -0.031 A 
HETATM    3  C   UNL     1      25.218  44.286  51.133  1.00  0.00     0.009 A 
HETATM    4  C   UNL     1      24.356  45.319  50.755  1.00  0.00     0.001 A 
HETATM    5  C   UNL     1      24.845  46.428  50.069  1.00  0.00     0.000 A 
HETATM    6  C   UNL     1      26.197  46.501  49.749  1.00  0.00     0.001 A 
HETATM    7  C   UNL     1      27.060  45.470  50.124  1.00  0.00     0.009 A 
ENDBRANCH   1   2
BRANCH   1   8
HETATM    8  N   UNL     1      26.987  41.901  51.180  1.00  0.00    -0.347 N 
HETATM    9  C   UNL     1      26.980  41.161  50.020  1.00  0.00     0.236 C 
HETATM   10  O   UNL     1      27.386  41.625  48.950  1.00  0.00    -0.272 OA
HETATM   11  H   UNL     1      26.960  41.386  52.059  1.00  0.00     0.163 HD
BRANCH   9  12
HETATM   12  C   UNL     1      26.648  39.671  50.172  1.00  0.00     0.236 C 
BRANCH  12  13
HETATM   13  N   UNL     1      27.540  38.757  49.494  1.00  0.00    -0.289 N 
HETATM   14  C   UNL     1      28.852  38.468  49.913  1.00  0.00     0.328 A 
HETATM   15  O   UNL     1      29.353  38.754  50.988  1.00  0.00    -0.247 OA
HETATM   16  N   UNL     1      29.476  37.779  48.869  1.00  0.00    -0.306 N 
HETATM   17  C   UNL     1      28.597  37.701  47.796  1.00  0.00     0.063 A 
HETATM   18  H   UNL     1      30.432  37.464  48.894  1.00  0.00     0.171 HD
HETATM   19  C   UNL     1      27.396  38.309  48.168  1.00  0.00     0.066 A 
HETATM   20  C   UNL     1      28.812  37.174  46.543  1.00  0.00     0.032 A 
HETATM   21  C   UNL     1      26.347  38.413  47.279  1.00  0.00     0.032 A 
HETATM   22  C   UNL     1      26.540  37.885  45.995  1.00  0.00     0.002 A 
HETATM   23  C   UNL     1      27.759  37.275  45.631  1.00  0.00     0.002 A 
ENDBRANCH  12  13
ENDBRANCH   9  12
ENDBRANCH   1   8
BRANCH   1  24
HETATM   24  C   UNL     1      28.289  43.430  52.567  1.00  0.00     0.013 A 
HETATM   25  C   UNL     1      29.313  42.528  52.918  1.00  0.00     0.075 A 
HETATM   26  C   UNL     1      30.106  42.722  54.041  1.00  0.00     0.038 A 
HETATM   27  C   UNL     1      29.859  43.800  54.879  1.00  0.00     0.015 A 
HETATM   28  C   UNL     1      28.801  44.682  54.621  1.00  0.00    -0.025 A 
HETATM   29  C   UNL     1      27.988  44.505  53.469  1.00  0.00    -0.015 A 
HETATM   30  C   UNL     1      28.556  45.738  55.515  1.00  0.00     0.012 A 
HETATM   31  C   UNL     1      26.922  45.425  53.303  1.00  0.00     0.013 A 
HETATM   32  C   UNL     1      26.684  46.466  54.205  1.00  0.00     0.001 A 
HETATM   33  C   UNL     1      27.504  46.626  55.309  1.00  0.00     0.001 A 
BRANCH  25  34
HETATM   34  O   UNL     1      29.581  41.398  52.192  1.00  0.00    -0.360 OA
HETATM   35  H   UNL     1      30.072  40.775  52.775  1.00  0.00     0.217 HD
ENDBRANCH  25  34
ENDBRANCH   1  24
TORSDOF 6
ENDMDL
MODEL 10
REMARK VINA RESULT:      -8.6      5.986      9.745
REMARK  6 active torsions:
REMARK  status: ('A' for Active; 'I' for Inactive)
REMARK    1  A    between atoms: C_4  and  C_5 
REMARK    2  A    between atoms: C_5  and  N_6 
REMARK    3  A    between atoms: C_5  and  C_20 
REMARK       I    between atoms: N_6  and  C_7 
REMARK    4  A    between atoms: C_7  and  C_8 
REMARK    5  A    between atoms: C_8  and  N_9 
REMARK    6  A    between atoms: C_21  and  O_22 
ROOT
HETATM    1  C   UNL     1      20.106  48.888  48.611  1.00  0.00     0.154 C 
ENDROOT
BRANCH   1   2
HETATM    2  C   UNL     1      21.544  49.407  48.525  1.00  0.00    -0.031 A 
HETATM    3  C   UNL     1      21.844  50.769  48.348  1.00  0.00     0.009 A 
HETATM    4  C   UNL     1      23.169  51.204  48.255  1.00  0.00     0.001 A 
HETATM    5  C   UNL     1      24.216  50.288  48.316  1.00  0.00     0.000 A 
HETATM    6  C   UNL     1      23.940  48.932  48.459  1.00  0.00     0.001 A 
HETATM    7  C   UNL     1      22.617  48.495  48.552  1.00  0.00     0.009 A 
ENDBRANCH   1   2
BRANCH   1   8
HETATM    8  N   UNL     1      19.790  47.848  47.643  1.00  0.00    -0.347 N 
HETATM    9  C   UNL     1      19.392  46.593  48.045  1.00  0.00     0.236 C 
HETATM   10  O   UNL     1      19.369  46.268  49.235  1.00  0.00    -0.272 OA
HETATM   11  H   UNL     1      19.482  48.159  46.724  1.00  0.00     0.163 HD
BRANCH   9  12
HETATM   12  C   UNL     1      18.778  45.700  46.959  1.00  0.00     0.236 C 
BRANCH  12  13
HETATM   13  N   UNL     1      17.803  46.336  46.101  1.00  0.00    -0.289 N 
HETATM   14  C   UNL     1      17.914  46.427  44.701  1.00  0.00     0.328 A 
HETATM   15  O   UNL     1      18.701  45.820  43.991  1.00  0.00    -0.247 OA
HETATM   16  N   UNL     1      16.946  47.337  44.268  1.00  0.00    -0.306 N 
HETATM   17  C   UNL     1      16.292  47.856  45.378  1.00  0.00     0.063 A 
HETATM   18  H   UNL     1      16.815  47.606  43.306  1.00  0.00     0.171 HD
HETATM   19  C   UNL     1      16.818  47.249  46.521  1.00  0.00     0.066 A 
HETATM   20  C   UNL     1      15.320  48.829  45.429  1.00  0.00     0.032 A 
HETATM   21  C   UNL     1      16.379  47.602  47.779  1.00  0.00     0.032 A 
HETATM   22  C   UNL     1      15.390  48.592  47.859  1.00  0.00     0.002 A 
HETATM   23  C   UNL     1      14.867  49.199  46.698  1.00  0.00     0.002 A 
ENDBRANCH  12  13
ENDBRANCH   9  12
ENDBRANCH   1   8
BRANCH   1  24
HETATM   24  C   UNL     1      19.021  49.974  48.561  1.00  0.00     0.013 A 
HETATM   25  C   UNL     1      18.469  50.431  49.774  1.00  0.00     0.075 A 
HETATM   26  C   UNL     1      17.593  51.507  49.820  1.00  0.00     0.038 A 
HETATM   27  C   UNL     1      17.198  52.124  48.641  1.00  0.00     0.015 A 
HETATM   28  C   UNL     1      17.652  51.658  47.401  1.00  0.00    -0.025 A 
HETATM   29  C   UNL     1      18.560  50.565  47.336  1.00  0.00    -0.015 A 
HETATM   30  C   UNL     1      17.199  52.281  46.226  1.00  0.00     0.012 A 
HETATM   31  C   UNL     1      18.944  50.141  46.039  1.00  0.00     0.013 A 
HETATM   32  C   UNL     1      18.477  50.765  44.878  1.00  0.00     0.001 A 
HETATM   33  C   UNL     1      17.608  51.839  44.972  1.00  0.00     0.001 A 
BRANCH  25  34
HETATM   34  O   UNL     1      18.743  49.839  50.978  1.00  0.00    -0.360 OA
HETATM   35  H   UNL     1      19.196  48.984  50.796  1.00  0.00     0.217 HD
ENDBRANCH  25  34
ENDBRANCH   1  24
TORSDOF 6
ENDMDL
