MODEL 1
REMARK VINA RESULT:      -9.9      0.000      0.000
REMARK  6 active torsions:
REMARK  status: ('A' for Active; 'I' for Inactive)
REMARK    1  A    between atoms: C_4  and  C_5 
REMARK    2  A    between atoms: C_5  and  O_6 
REMARK    3  A    between atoms: O_6  and  C_7 
REMARK    4  A    between atoms: C_10  and  C_11 
REMARK    5  A    between atoms: C_17  and  C_18 
REMARK    6  A    between atoms: C_27  and  N_28 
ROOT
HETATM    1  C   UNL     1      26.339  44.245  49.690  1.00  0.00     0.072 A 
HETATM    2  N   UNL     1      25.882  43.340  48.756  1.00  0.00    -0.274 N 
HETATM    3  H   UNL     1      25.247  43.515  47.985  1.00  0.00     0.189 HD
HETATM    4  N   UNL     1      26.356  42.088  48.929  1.00  0.00    -0.148 NA
HETATM    5  C   UNL     1      27.133  42.223  49.996  1.00  0.00     0.199 A 
HETATM    6  C   UNL     1      27.169  43.515  50.524  1.00  0.00     0.040 A 
HETATM    7  C   UNL     1      27.973  43.820  51.739  1.00  0.00     0.107 A 
HETATM    8  C   UNL     1      28.692  42.573  52.242  1.00  0.00     0.081 A 
HETATM    9  C   UNL     1      29.554  42.742  53.366  1.00  0.00     0.100 C 
HETATM   10  N   UNL     1      30.251  42.883  54.282  1.00  0.00    -0.191 NA
HETATM   11  C   UNL     1      28.580  41.360  51.638  1.00  0.00     0.140 A 
HETATM   12  O   UNL     1      27.780  41.160  50.504  1.00  0.00    -0.277 OA
ENDROOT
BRANCH   7  13
HETATM   13  C   UNL     1      27.013  44.417  52.749  1.00  0.00    -0.027 A 
HETATM   14  C   UNL     1      25.903  43.684  53.168  1.00  0.00     0.124 A 
HETATM   15  N   UNL     1      24.993  44.114  54.070  1.00  0.00    -0.273 NA
HETATM   16  C   UNL     1      25.187  45.346  54.585  1.00  0.00     0.116 A 
HETATM   17  C   UNL     1      26.246  46.167  54.235  1.00  0.00     0.020 A 
HETATM   18  C   UNL     1      27.167  45.697  53.302  1.00  0.00     0.011 A 
ENDBRANCH   7  13
BRANCH  11  19
HETATM   19  N   UNL     1      29.220  40.209  52.045  1.00  0.00    -0.282 NA
HETATM   20  H   UNL     1      28.631  39.388  52.164  1.00  0.00     0.126 HD
HETATM   21  H   UNL     1      30.060  40.026  51.501  1.00  0.00     0.126 HD
ENDBRANCH  11  19
BRANCH   1  22
HETATM   22  C   UNL     1      25.903  45.632  49.750  1.00  0.00    -0.007 A 
HETATM   23  C   UNL     1      26.830  46.668  49.582  1.00  0.00     0.016 A 
HETATM   24  C   UNL     1      26.396  47.989  49.485  1.00  0.00     0.037 A 
HETATM   25  C   UNL     1      25.034  48.277  49.534  1.00  0.00     0.069 A 
HETATM   26  C   UNL     1      24.108  47.263  49.777  1.00  0.00     0.037 A 
HETATM   27  C   UNL     1      24.544  45.941  49.881  1.00  0.00     0.016 A 
BRANCH  25  28
HETATM   28  O   UNL     1      24.676  49.584  49.345  1.00  0.00    -0.347 OA
BRANCH  28  29
HETATM   29  C   UNL     1      23.899  49.775  48.154  1.00  0.00     0.214 C 
BRANCH  29  30
HETATM   30  C   UNL     1      22.546  50.335  48.524  1.00  0.00    -0.034 A 
HETATM   31  C   UNL     1      21.552  50.483  47.544  1.00  0.00     0.009 A 
HETATM   32  C   UNL     1      20.284  50.955  47.885  1.00  0.00     0.001 A 
HETATM   33  C   UNL     1      19.994  51.277  49.210  1.00  0.00     0.000 A 
HETATM   34  C   UNL     1      20.970  51.127  50.193  1.00  0.00     0.001 A 
HETATM   35  C   UNL     1      22.241  50.656  49.853  1.00  0.00     0.009 A 
ENDBRANCH  29  30
ENDBRANCH  28  29
ENDBRANCH  25  28
ENDBRANCH   1  22
TORSDOF 6
ENDMDL
MODEL 2
REMARK VINA RESULT:      -9.4      3.834      7.893
REMARK  6 active torsions:
REMARK  status: ('A' for Active; 'I' for Inactive)
REMARK    1  A    between atoms: C_4  and  C_5 
REMARK    2  A    between atoms: C_5  and  O_6 
REMARK    3  A    between atoms: O_6  and  C_7 
REMARK    4  A    between atoms: C_10  and  C_11 
REMARK    5  A    between atoms: C_17  and  C_18 
REMARK    6  A    between atoms: C_27  and  N_28 
ROOT
HETATM    1  C   UNL     1      27.736  41.565  51.575  1.00  0.00     0.072 A 
HETATM    2  N   UNL     1      28.763  40.716  51.219  1.00  0.00    -0.274 N 
HETATM    3  H   UNL     1      29.663  40.609  51.676  1.00  0.00     0.189 HD
HETATM    4  N   UNL     1      28.500  39.963  50.131  1.00  0.00    -0.148 NA
HETATM    5  C   UNL     1      27.273  40.351  49.807  1.00  0.00     0.199 A 
HETATM    6  C   UNL     1      26.740  41.335  50.641  1.00  0.00     0.040 A 
HETATM    7  C   UNL     1      25.383  41.895  50.390  1.00  0.00     0.107 A 
HETATM    8  C   UNL     1      24.743  41.241  49.170  1.00  0.00     0.081 A 
HETATM    9  C   UNL     1      23.410  41.641  48.857  1.00  0.00     0.100 C 
HETATM   10  N   UNL     1      22.327  41.971  48.604  1.00  0.00    -0.191 NA
HETATM   11  C   UNL     1      25.366  40.284  48.431  1.00  0.00     0.140 A 
HETATM   12  O   UNL     1      26.657  39.830  48.731  1.00  0.00    -0.277 OA
ENDROOT
BRANCH   7  13
HETATM   13  C   UNL     1      25.558  43.396  50.254  1.00  0.00    -0.027 A 
HETATM   14  C   UNL     1      26.525  43.905  49.387  1.00  0.00     0.124 A 
HETATM   15  N   UNL     1      26.755  45.221  49.182  1.00  0.00    -0.273 NA
HETATM   16  C   UNL     1      25.991  46.086  49.879  1.00  0.00     0.116 A 
HETATM   17  C   UNL     1      25.010  45.694  50.774  1.00  0.00     0.020 A 
HETATM   18  C   UNL     1      24.795  44.332  50.966  1.00  0.00     0.011 A 
ENDBRANCH   7  13
BRANCH  11  19
HETATM   19  N   UNL     1      24.824  39.655  47.331  1.00  0.00    -0.282 NA
HETATM   20  H   UNL     1      25.463  39.468  46.562  1.00  0.00     0.126 HD
HETATM   21  H   UNL     1      24.262  38.847  47.592  1.00  0.00     0.126 HD
ENDBRANCH  11  19
BRANCH   1  22
HETATM   22  C   UNL     1      27.823  42.524  52.664  1.00  0.00    -0.007 A 
HETATM   23  C   UNL     1      28.408  43.779  52.451  1.00  0.00     0.016 A 
HETATM   24  C   UNL     1      28.356  44.755  53.445  1.00  0.00     0.037 A 
HETATM   25  C   UNL     1      27.701  44.489  54.646  1.00  0.00     0.069 A 
HETATM   26  C   UNL     1      27.182  43.220  54.898  1.00  0.00     0.037 A 
HETATM   27  C   UNL     1      27.241  42.240  53.905  1.00  0.00     0.016 A 
BRANCH  25  28
HETATM   28  O   UNL     1      27.614  45.522  55.538  1.00  0.00    -0.347 OA
BRANCH  28  29
HETATM   29  C   UNL     1      28.816  46.303  55.595  1.00  0.00     0.214 C 
BRANCH  29  30
HETATM   30  C   UNL     1      29.841  45.584  56.440  1.00  0.00    -0.034 A 
HETATM   31  C   UNL     1      30.021  45.940  57.786  1.00  0.00     0.009 A 
HETATM   32  C   UNL     1      30.932  45.250  58.588  1.00  0.00     0.001 A 
HETATM   33  C   UNL     1      31.667  44.193  58.054  1.00  0.00     0.000 A 
HETATM   34  C   UNL     1      31.491  43.825  56.721  1.00  0.00     0.001 A 
HETATM   35  C   UNL     1      30.581  44.516  55.917  1.00  0.00     0.009 A 
ENDBRANCH  29  30
ENDBRANCH  28  29
ENDBRANCH  25  28
ENDBRANCH   1  22
TORSDOF 6
ENDMDL
MODEL 3
REMARK VINA RESULT:      -9.2      3.447      8.005
REMARK  6 active torsions:
REMARK  status: ('A' for Active; 'I' for Inactive)
REMARK    1  A    between atoms: C_4  and  C_5 
REMARK    2  A    between atoms: C_5  and  O_6 
REMARK    3  A    between atoms: O_6  and  C_7 
REMARK    4  A    between atoms: C_10  and  C_11 
REMARK    5  A    between atoms: C_17  and  C_18 
REMARK    6  A    between atoms: C_27  and  N_28 
ROOT
HETATM    1  C   UNL     1      25.627  42.799  51.446  1.00  0.00     0.072 A 
HETATM    2  N   UNL     1      26.051  41.537  51.088  1.00  0.00    -0.274 N 
HETATM    3  H   UNL     1      26.725  40.951  51.570  1.00  0.00     0.189 HD
HETATM    4  N   UNL     1      25.482  41.067  49.958  1.00  0.00    -0.148 NA
HETATM    5  C   UNL     1      24.678  42.065  49.609  1.00  0.00     0.199 A 
HETATM    6  C   UNL     1      24.716  43.164  50.469  1.00  0.00     0.040 A 
HETATM    7  C   UNL     1      23.893  44.374  50.197  1.00  0.00     0.107 A 
HETATM    8  C   UNL     1      23.068  44.194  48.927  1.00  0.00     0.081 A 
HETATM    9  C   UNL     1      22.180  45.258  48.587  1.00  0.00     0.100 C 
HETATM   10  N   UNL     1      21.462  46.127  48.312  1.00  0.00    -0.191 NA
HETATM   11  C   UNL     1      23.114  43.067  48.167  1.00  0.00     0.140 A 
HETATM   12  O   UNL     1      23.938  41.980  48.491  1.00  0.00    -0.277 OA
ENDROOT
BRANCH   7  13
HETATM   13  C   UNL     1      24.857  45.543  50.136  1.00  0.00    -0.027 A 
HETATM   14  C   UNL     1      24.495  46.769  50.695  1.00  0.00     0.124 A 
HETATM   15  N   UNL     1      25.280  47.869  50.707  1.00  0.00    -0.273 NA
HETATM   16  C   UNL     1      26.491  47.755  50.127  1.00  0.00     0.116 A 
HETATM   17  C   UNL     1      26.951  46.592  49.531  1.00  0.00     0.020 A 
HETATM   18  C   UNL     1      26.120  45.474  49.533  1.00  0.00     0.011 A 
ENDBRANCH   7  13
BRANCH  11  19
HETATM   19  N   UNL     1      22.378  42.853  47.021  1.00  0.00    -0.282 NA
HETATM   20  H   UNL     1      21.653  43.537  46.821  1.00  0.00     0.126 HD
HETATM   21  H   UNL     1      22.971  42.649  46.220  1.00  0.00     0.126 HD
ENDBRANCH  11  19
BRANCH   1  22
HETATM   22  C   UNL     1      26.160  43.537  52.581  1.00  0.00    -0.007 A 
HETATM   23  C   UNL     1      27.530  43.814  52.659  1.00  0.00     0.016 A 
HETATM   24  C   UNL     1      28.021  44.649  53.661  1.00  0.00     0.037 A 
HETATM   25  C   UNL     1      27.143  45.228  54.574  1.00  0.00     0.069 A 
HETATM   26  C   UNL     1      25.788  44.900  54.553  1.00  0.00     0.037 A 
HETATM   27  C   UNL     1      25.298  44.057  53.553  1.00  0.00     0.016 A 
BRANCH  25  28
HETATM   28  O   UNL     1      27.684  46.104  55.474  1.00  0.00    -0.347 OA
BRANCH  28  29
HETATM   29  C   UNL     1      29.066  46.383  55.208  1.00  0.00     0.214 C 
BRANCH  29  30
HETATM   30  C   UNL     1      29.928  45.622  56.187  1.00  0.00    -0.034 A 
HETATM   31  C   UNL     1      29.927  45.969  57.547  1.00  0.00     0.009 A 
HETATM   32  C   UNL     1      30.684  45.242  58.466  1.00  0.00     0.001 A 
HETATM   33  C   UNL     1      31.444  44.155  58.037  1.00  0.00     0.000 A 
HETATM   34  C   UNL     1      31.447  43.795  56.690  1.00  0.00     0.001 A 
HETATM   35  C   UNL     1      30.691  44.524  55.768  1.00  0.00     0.009 A 
ENDBRANCH  29  30
ENDBRANCH  28  29
ENDBRANCH  25  28
ENDBRANCH   1  22
TORSDOF 6
ENDMDL
MODEL 4
REMARK VINA RESULT:      -9.2      3.287      8.538
REMARK  6 active torsions:
REMARK  status: ('A' for Active; 'I' for Inactive)
REMARK    1  A    between atoms: C_4  and  C_5 
REMARK    2  A    between atoms: C_5  and  O_6 
REMARK    3  A    between atoms: O_6  and  C_7 
REMARK    4  A    between atoms: C_10  and  C_11 
REMARK    5  A    between atoms: C_17  and  C_18 
REMARK    6  A    between atoms: C_27  and  N_28 
ROOT
HETATM    1  C   UNL     1      23.656  45.366  48.926  1.00  0.00     0.072 A 
HETATM    2  N   UNL     1      23.046  44.638  47.927  1.00  0.00    -0.274 N 
HETATM    3  H   UNL     1      23.207  43.666  47.683  1.00  0.00     0.189 HD
HETATM    4  N   UNL     1      22.142  45.340  47.211  1.00  0.00    -0.148 NA
HETATM    5  C   UNL     1      22.189  46.535  47.788  1.00  0.00     0.199 A 
HETATM    6  C   UNL     1      23.098  46.631  48.843  1.00  0.00     0.040 A 
HETATM    7  C   UNL     1      23.287  47.915  49.572  1.00  0.00     0.107 A 
HETATM    8  C   UNL     1      22.375  48.999  49.008  1.00  0.00     0.081 A 
HETATM    9  C   UNL     1      22.408  50.266  49.663  1.00  0.00     0.100 C 
HETATM   10  N   UNL     1      22.441  51.295  50.196  1.00  0.00    -0.191 NA
HETATM   11  C   UNL     1      21.524  48.783  47.970  1.00  0.00     0.140 A 
HETATM   12  O   UNL     1      21.426  47.541  47.328  1.00  0.00    -0.277 OA
ENDROOT
BRANCH   7  13
HETATM   13  C   UNL     1      24.763  48.250  49.474  1.00  0.00    -0.027 A 
HETATM   14  C   UNL     1      25.223  49.056  48.432  1.00  0.00     0.124 A 
HETATM   15  N   UNL     1      26.511  49.425  48.258  1.00  0.00    -0.273 NA
HETATM   16  C   UNL     1      27.400  48.965  49.161  1.00  0.00     0.116 A 
HETATM   17  C   UNL     1      27.060  48.150  50.228  1.00  0.00     0.020 A 
HETATM   18  C   UNL     1      25.725  47.786  50.383  1.00  0.00     0.011 A 
ENDBRANCH   7  13
BRANCH  11  19
HETATM   19  N   UNL     1      20.671  49.725  47.435  1.00  0.00    -0.282 NA
HETATM   20  H   UNL     1      20.908  50.068  46.508  1.00  0.00     0.126 HD
HETATM   21  H   UNL     1      19.695  49.452  47.526  1.00  0.00     0.126 HD
ENDBRANCH  11  19
BRANCH   1  22
HETATM   22  C   UNL     1      24.717  44.843  49.772  1.00  0.00    -0.007 A 
HETATM   23  C   UNL     1      25.994  44.617  49.242  1.00  0.00     0.016 A 
HETATM   24  C   UNL     1      27.050  44.263  50.080  1.00  0.00     0.037 A 
HETATM   25  C   UNL     1      26.839  44.154  51.453  1.00  0.00     0.069 A 
HETATM   26  C   UNL     1      25.558  44.302  51.983  1.00  0.00     0.037 A 
HETATM   27  C   UNL     1      24.499  44.650  51.142  1.00  0.00     0.016 A 
BRANCH  25  28
HETATM   28  O   UNL     1      27.939  43.890  52.222  1.00  0.00    -0.347 OA
BRANCH  28  29
HETATM   29  C   UNL     1      27.597  43.563  53.577  1.00  0.00     0.214 C 
BRANCH  29  30
HETATM   30  C   UNL     1      28.750  43.920  54.484  1.00  0.00    -0.034 A 
HETATM   31  C   UNL     1      28.778  45.165  55.133  1.00  0.00     0.009 A 
HETATM   32  C   UNL     1      29.815  45.485  56.010  1.00  0.00     0.001 A 
HETATM   33  C   UNL     1      30.831  44.563  56.254  1.00  0.00     0.000 A 
HETATM   34  C   UNL     1      30.810  43.321  55.622  1.00  0.00     0.001 A 
HETATM   35  C   UNL     1      29.774  42.999  54.742  1.00  0.00     0.009 A 
ENDBRANCH  29  30
ENDBRANCH  28  29
ENDBRANCH  25  28
ENDBRANCH   1  22
TORSDOF 6
ENDMDL
MODEL 5
REMARK VINA RESULT:      -9.1      4.040      8.152
REMARK  6 active torsions:
REMARK  status: ('A' for Active; 'I' for Inactive)
REMARK    1  A    between atoms: C_4  and  C_5 
REMARK    2  A    between atoms: C_5  and  O_6 
REMARK    3  A    between atoms: O_6  and  C_7 
REMARK    4  A    between atoms: C_10  and  C_11 
REMARK    5  A    between atoms: C_17  and  C_18 
REMARK    6  A    between atoms: C_27  and  N_28 
ROOT
HETATM    1  C   UNL     1      26.789  41.792  49.859  1.00  0.00     0.072 A 
HETATM    2  N   UNL     1      27.429  41.105  48.849  1.00  0.00    -0.274 N 
HETATM    3  H   UNL     1      28.336  40.652  48.888  1.00  0.00     0.189 HD
HETATM    4  N   UNL     1      26.735  41.060  47.693  1.00  0.00    -0.148 NA
HETATM    5  C   UNL     1      25.632  41.733  47.996  1.00  0.00     0.199 A 
HETATM    6  C   UNL     1      25.594  42.218  49.305  1.00  0.00     0.040 A 
HETATM    7  C   UNL     1      24.434  43.016  49.788  1.00  0.00     0.107 A 
HETATM    8  C   UNL     1      23.389  43.177  48.689  1.00  0.00     0.081 A 
HETATM    9  C   UNL     1      22.192  43.868  49.043  1.00  0.00     0.100 C 
HETATM   10  N   UNL     1      21.222  44.434  49.333  1.00  0.00    -0.191 NA
HETATM   11  C   UNL     1      23.539  42.653  47.444  1.00  0.00     0.140 A 
HETATM   12  O   UNL     1      24.679  41.928  47.069  1.00  0.00    -0.277 OA
ENDROOT
BRANCH   7  13
HETATM   13  C   UNL     1      24.999  44.332  50.287  1.00  0.00    -0.027 A 
HETATM   14  C   UNL     1      25.717  45.153  49.417  1.00  0.00     0.124 A 
HETATM   15  N   UNL     1      26.252  46.348  49.753  1.00  0.00    -0.273 NA
HETATM   16  C   UNL     1      26.074  46.754  51.027  1.00  0.00     0.116 A 
HETATM   17  C   UNL     1      25.389  46.017  51.979  1.00  0.00     0.020 A 
HETATM   18  C   UNL     1      24.849  44.790  51.604  1.00  0.00     0.011 A 
ENDBRANCH   7  13
BRANCH  11  19
HETATM   19  N   UNL     1      22.619  42.759  46.423  1.00  0.00    -0.282 NA
HETATM   20  H   UNL     1      22.026  41.947  46.268  1.00  0.00     0.126 HD
HETATM   21  H   UNL     1      22.099  43.633  46.467  1.00  0.00     0.126 HD
ENDBRANCH  11  19
BRANCH   1  22
HETATM   22  C   UNL     1      27.377  42.036  51.167  1.00  0.00    -0.007 A 
HETATM   23  C   UNL     1      27.324  41.048  52.158  1.00  0.00     0.016 A 
HETATM   24  C   UNL     1      28.018  41.218  53.356  1.00  0.00     0.037 A 
HETATM   25  C   UNL     1      28.784  42.364  53.558  1.00  0.00     0.069 A 
HETATM   26  C   UNL     1      28.783  43.387  52.611  1.00  0.00     0.037 A 
HETATM   27  C   UNL     1      28.083  43.220  51.414  1.00  0.00     0.016 A 
BRANCH  25  28
HETATM   28  O   UNL     1      29.505  42.421  54.718  1.00  0.00    -0.347 OA
BRANCH  28  29
HETATM   29  C   UNL     1      30.567  43.384  54.658  1.00  0.00     0.214 C 
BRANCH  29  30
HETATM   30  C   UNL     1      30.576  44.200  55.929  1.00  0.00    -0.034 A 
HETATM   31  C   UNL     1      29.710  45.296  56.070  1.00  0.00     0.009 A 
HETATM   32  C   UNL     1      29.677  46.028  57.258  1.00  0.00     0.001 A 
HETATM   33  C   UNL     1      30.504  45.667  58.320  1.00  0.00     0.000 A 
HETATM   34  C   UNL     1      31.362  44.575  58.196  1.00  0.00     0.001 A 
HETATM   35  C   UNL     1      31.397  43.843  57.006  1.00  0.00     0.009 A 
ENDBRANCH  29  30
ENDBRANCH  28  29
ENDBRANCH  25  28
ENDBRANCH   1  22
TORSDOF 6
ENDMDL
MODEL 6
REMARK VINA RESULT:      -8.9      6.948     12.577
REMARK  6 active torsions:
REMARK  status: ('A' for Active; 'I' for Inactive)
REMARK    1  A    between atoms: C_4  and  C_5 
REMARK    2  A    between atoms: C_5  and  O_6 
REMARK    3  A    between atoms: O_6  and  C_7 
REMARK    4  A    between atoms: C_10  and  C_11 
REMARK    5  A    between atoms: C_17  and  C_18 
REMARK    6  A    between atoms: C_27  and  N_28 
ROOT
HETATM    1  C   UNL     1      17.309  52.375  49.291  1.00  0.00     0.072 A 
HETATM    2  N   UNL     1      16.751  53.085  50.332  1.00  0.00    -0.274 N 
HETATM    3  H   UNL     1      17.115  53.191  51.274  1.00  0.00     0.189 HD
HETATM    4  N   UNL     1      15.586  53.690  50.022  1.00  0.00    -0.148 NA
HETATM    5  C   UNL     1      15.420  53.350  48.749  1.00  0.00     0.199 A 
HETATM    6  C   UNL     1      16.432  52.540  48.232  1.00  0.00     0.040 A 
HETATM    7  C   UNL     1      16.374  52.051  46.827  1.00  0.00     0.107 A 
HETATM    8  C   UNL     1      15.123  52.566  46.124  1.00  0.00     0.081 A 
HETATM    9  C   UNL     1      14.979  52.225  44.746  1.00  0.00     0.100 C 
HETATM   10  N   UNL     1      14.863  51.942  43.627  1.00  0.00    -0.191 NA
HETATM   11  C   UNL     1      14.202  53.357  46.737  1.00  0.00     0.140 A 
HETATM   12  O   UNL     1      14.329  53.754  48.075  1.00  0.00    -0.277 OA
ENDROOT
BRANCH   7  13
HETATM   13  C   UNL     1      16.453  50.538  46.897  1.00  0.00    -0.027 A 
HETATM   14  C   UNL     1      15.420  49.816  47.496  1.00  0.00     0.124 A 
HETATM   15  N   UNL     1      15.383  48.469  47.600  1.00  0.00    -0.273 NA
HETATM   16  C   UNL     1      16.433  47.794  47.089  1.00  0.00     0.116 A 
HETATM   17  C   UNL     1      17.518  48.405  46.483  1.00  0.00     0.020 A 
HETATM   18  C   UNL     1      17.528  49.794  46.390  1.00  0.00     0.011 A 
ENDBRANCH   7  13
BRANCH  11  19
HETATM   19  N   UNL     1      13.065  53.858  46.140  1.00  0.00    -0.282 NA
HETATM   20  H   UNL     1      13.210  54.434  45.314  1.00  0.00     0.126 HD
HETATM   21  H   UNL     1      12.354  53.142  46.011  1.00  0.00     0.126 HD
ENDBRANCH  11  19
BRANCH   1  22
HETATM   22  C   UNL     1      18.521  51.580  49.414  1.00  0.00    -0.007 A 
HETATM   23  C   UNL     1      18.485  50.340  50.064  1.00  0.00     0.016 A 
HETATM   24  C   UNL     1      19.604  49.508  50.050  1.00  0.00     0.037 A 
HETATM   25  C   UNL     1      20.754  49.903  49.369  1.00  0.00     0.069 A 
HETATM   26  C   UNL     1      20.827  51.166  48.784  1.00  0.00     0.037 A 
HETATM   27  C   UNL     1      19.708  52.002  48.804  1.00  0.00     0.016 A 
BRANCH  25  28
HETATM   28  O   UNL     1      21.779  49.000  49.325  1.00  0.00    -0.347 OA
BRANCH  28  29
HETATM   29  C   UNL     1      22.587  49.142  48.148  1.00  0.00     0.214 C 
BRANCH  29  30
HETATM   30  C   UNL     1      24.047  49.085  48.532  1.00  0.00    -0.034 A 
HETATM   31  C   UNL     1      24.500  48.116  49.441  1.00  0.00     0.009 A 
HETATM   32  C   UNL     1      25.854  48.026  49.766  1.00  0.00     0.001 A 
HETATM   33  C   UNL     1      26.770  48.898  49.181  1.00  0.00     0.000 A 
HETATM   34  C   UNL     1      26.333  49.860  48.271  1.00  0.00     0.001 A 
HETATM   35  C   UNL     1      24.978  49.953  47.946  1.00  0.00     0.009 A 
ENDBRANCH  29  30
ENDBRANCH  28  29
ENDBRANCH  25  28
ENDBRANCH   1  22
TORSDOF 6
ENDMDL
MODEL 7
REMARK VINA RESULT:      -8.6      3.253      6.167
REMARK  6 active torsions:
REMARK  status: ('A' for Active; 'I' for Inactive)
REMARK    1  A    between atoms: C_4  and  C_5 
REMARK    2  A    between atoms: C_5  and  O_6 
REMARK    3  A    between atoms: O_6  and  C_7 
REMARK    4  A    between atoms: C_10  and  C_11 
REMARK    5  A    between atoms: C_17  and  C_18 
REMARK    6  A    between atoms: C_27  and  N_28 
ROOT
HETATM    1  C   UNL     1      24.382  49.567  48.859  1.00  0.00     0.072 A 
HETATM    2  N   UNL     1      25.556  50.145  48.425  1.00  0.00    -0.274 N 
HETATM    3  H   UNL     1      25.685  51.082  48.057  1.00  0.00     0.189 HD
HETATM    4  N   UNL     1      26.631  49.334  48.511  1.00  0.00    -0.148 NA
HETATM    5  C   UNL     1      26.110  48.224  49.019  1.00  0.00     0.199 A 
HETATM    6  C   UNL     1      24.736  48.288  49.254  1.00  0.00     0.040 A 
HETATM    7  C   UNL     1      24.000  47.112  49.795  1.00  0.00     0.107 A 
HETATM    8  C   UNL     1      24.947  45.941  50.033  1.00  0.00     0.081 A 
HETATM    9  C   UNL     1      24.379  44.769  50.616  1.00  0.00     0.100 C 
HETATM   10  N   UNL     1      23.913  43.817  51.087  1.00  0.00    -0.191 NA
HETATM   11  C   UNL     1      26.278  46.000  49.765  1.00  0.00     0.140 A 
HETATM   12  O   UNL     1      26.885  47.147  49.235  1.00  0.00    -0.277 OA
ENDROOT
BRANCH   7  13
HETATM   13  C   UNL     1      22.892  46.807  48.805  1.00  0.00    -0.027 A 
HETATM   14  C   UNL     1      23.185  46.120  47.627  1.00  0.00     0.124 A 
HETATM   15  N   UNL     1      22.275  45.788  46.685  1.00  0.00    -0.273 NA
HETATM   16  C   UNL     1      21.000  46.161  46.916  1.00  0.00     0.116 A 
HETATM   17  C   UNL     1      20.596  46.855  48.044  1.00  0.00     0.020 A 
HETATM   18  C   UNL     1      21.556  47.185  48.998  1.00  0.00     0.011 A 
ENDBRANCH   7  13
BRANCH  11  19
HETATM   19  N   UNL     1      27.175  44.975  49.976  1.00  0.00    -0.282 NA
HETATM   20  H   UNL     1      27.797  44.757  49.201  1.00  0.00     0.126 HD
HETATM   21  H   UNL     1      27.660  45.069  50.866  1.00  0.00     0.126 HD
ENDBRANCH  11  19
BRANCH   1  22
HETATM   22  C   UNL     1      23.086  50.222  48.788  1.00  0.00    -0.007 A 
HETATM   23  C   UNL     1      22.392  50.277  47.572  1.00  0.00     0.016 A 
HETATM   24  C   UNL     1      21.087  50.766  47.531  1.00  0.00     0.037 A 
HETATM   25  C   UNL     1      20.463  51.180  48.706  1.00  0.00     0.069 A 
HETATM   26  C   UNL     1      21.170  51.201  49.908  1.00  0.00     0.037 A 
HETATM   27  C   UNL     1      22.480  50.718  49.948  1.00  0.00     0.016 A 
BRANCH  25  28
HETATM   28  O   UNL     1      19.155  51.564  48.603  1.00  0.00    -0.347 OA
BRANCH  28  29
HETATM   29  C   UNL     1      18.342  51.038  49.661  1.00  0.00     0.214 C 
BRANCH  29  30
HETATM   30  C   UNL     1      17.492  49.911  49.126  1.00  0.00    -0.034 A 
HETATM   31  C   UNL     1      16.396  50.187  48.292  1.00  0.00     0.009 A 
HETATM   32  C   UNL     1      15.633  49.149  47.755  1.00  0.00     0.001 A 
HETATM   33  C   UNL     1      15.961  47.825  48.038  1.00  0.00     0.000 A 
HETATM   34  C   UNL     1      17.052  47.537  48.858  1.00  0.00     0.001 A 
HETATM   35  C   UNL     1      17.815  48.575  49.398  1.00  0.00     0.009 A 
ENDBRANCH  29  30
ENDBRANCH  28  29
ENDBRANCH  25  28
ENDBRANCH   1  22
TORSDOF 6
ENDMDL
MODEL 8
REMARK VINA RESULT:      -8.5      4.311      8.116
REMARK  6 active torsions:
REMARK  status: ('A' for Active; 'I' for Inactive)
REMARK    1  A    between atoms: C_4  and  C_5 
REMARK    2  A    between atoms: C_5  and  O_6 
REMARK    3  A    between atoms: O_6  and  C_7 
REMARK    4  A    between atoms: C_10  and  C_11 
REMARK    5  A    between atoms: C_17  and  C_18 
REMARK    6  A    between atoms: C_27  and  N_28 
ROOT
HETATM    1  C   UNL     1      26.912  41.337  48.269  1.00  0.00     0.072 A 
HETATM    2  N   UNL     1      27.872  41.268  47.282  1.00  0.00    -0.274 N 
HETATM    3  H   UNL     1      28.859  41.489  47.362  1.00  0.00     0.189 HD
HETATM    4  N   UNL     1      27.400  40.859  46.086  1.00  0.00    -0.148 NA
HETATM    5  C   UNL     1      26.112  40.664  46.340  1.00  0.00     0.199 A 
HETATM    6  C   UNL     1      25.735  40.941  47.655  1.00  0.00     0.040 A 
HETATM    7  C   UNL     1      24.318  40.798  48.089  1.00  0.00     0.107 A 
HETATM    8  C   UNL     1      23.442  40.323  46.935  1.00  0.00     0.081 A 
HETATM    9  C   UNL     1      22.069  40.079  47.234  1.00  0.00     0.100 C 
HETATM   10  N   UNL     1      20.952  39.887  47.480  1.00  0.00    -0.191 NA
HETATM   11  C   UNL     1      23.928  40.082  45.688  1.00  0.00     0.140 A 
HETATM   12  O   UNL     1      25.280  40.264  45.363  1.00  0.00    -0.277 OA
ENDROOT
BRANCH   7  13
HETATM   13  C   UNL     1      23.905  42.144  48.652  1.00  0.00    -0.027 A 
HETATM   14  C   UNL     1      23.517  42.247  49.988  1.00  0.00     0.124 A 
HETATM   15  N   UNL     1      23.142  43.396  50.593  1.00  0.00    -0.273 NA
HETATM   16  C   UNL     1      23.144  44.509  49.832  1.00  0.00     0.116 A 
HETATM   17  C   UNL     1      23.499  44.524  48.494  1.00  0.00     0.020 A 
HETATM   18  C   UNL     1      23.880  43.325  47.897  1.00  0.00     0.011 A 
ENDBRANCH   7  13
BRANCH  11  19
HETATM   19  N   UNL     1      23.181  39.639  44.618  1.00  0.00    -0.282 NA
HETATM   20  H   UNL     1      23.474  39.966  43.701  1.00  0.00     0.126 HD
HETATM   21  H   UNL     1      23.020  38.634  44.654  1.00  0.00     0.126 HD
ENDBRANCH  11  19
BRANCH   1  22
HETATM   22  C   UNL     1      27.172  41.825  49.614  1.00  0.00    -0.007 A 
HETATM   23  C   UNL     1      27.053  43.191  49.902  1.00  0.00     0.016 A 
HETATM   24  C   UNL     1      27.150  43.642  51.217  1.00  0.00     0.037 A 
HETATM   25  C   UNL     1      27.344  42.729  52.251  1.00  0.00     0.069 A 
HETATM   26  C   UNL     1      27.539  41.377  51.970  1.00  0.00     0.037 A 
HETATM   27  C   UNL     1      27.448  40.927  50.651  1.00  0.00     0.016 A 
BRANCH  25  28
HETATM   28  O   UNL     1      27.341  43.233  53.522  1.00  0.00    -0.347 OA
BRANCH  28  29
HETATM   29  C   UNL     1      27.983  44.513  53.608  1.00  0.00     0.214 C 
BRANCH  29  30
HETATM   30  C   UNL     1      29.065  44.462  54.661  1.00  0.00    -0.034 A 
HETATM   31  C   UNL     1      29.225  45.527  55.561  1.00  0.00     0.009 A 
HETATM   32  C   UNL     1      30.191  45.468  56.567  1.00  0.00     0.001 A 
HETATM   33  C   UNL     1      31.001  44.341  56.688  1.00  0.00     0.000 A 
HETATM   34  C   UNL     1      30.846  43.273  55.805  1.00  0.00     0.001 A 
HETATM   35  C   UNL     1      29.881  43.331  54.797  1.00  0.00     0.009 A 
ENDBRANCH  29  30
ENDBRANCH  28  29
ENDBRANCH  25  28
ENDBRANCH   1  22
TORSDOF 6
ENDMDL
MODEL 9
REMARK VINA RESULT:      -8.3      5.656      8.978
REMARK  6 active torsions:
REMARK  status: ('A' for Active; 'I' for Inactive)
REMARK    1  A    between atoms: C_4  and  C_5 
REMARK    2  A    between atoms: C_5  and  O_6 
REMARK    3  A    between atoms: O_6  and  C_7 
REMARK    4  A    between atoms: C_10  and  C_11 
REMARK    5  A    between atoms: C_17  and  C_18 
REMARK    6  A    between atoms: C_27  and  N_28 
ROOT
HETATM    1  C   UNL     1      18.061  46.609  47.343  1.00  0.00     0.072 A 
HETATM    2  N   UNL     1      17.649  45.310  47.552  1.00  0.00    -0.274 N 
HETATM    3  H   UNL     1      16.735  44.913  47.362  1.00  0.00     0.189 HD
HETATM    4  N   UNL     1      18.602  44.510  48.074  1.00  0.00    -0.148 NA
HETATM    5  C   UNL     1      19.635  45.336  48.187  1.00  0.00     0.199 A 
HETATM    6  C   UNL     1      19.379  46.642  47.765  1.00  0.00     0.040 A 
HETATM    7  C   UNL     1      20.430  47.692  47.857  1.00  0.00     0.107 A 
HETATM    8  C   UNL     1      21.721  47.121  48.432  1.00  0.00     0.081 A 
HETATM    9  C   UNL     1      22.834  48.010  48.511  1.00  0.00     0.100 C 
HETATM   10  N   UNL     1      23.735  48.737  48.577  1.00  0.00    -0.191 NA
HETATM   11  C   UNL     1      21.851  45.821  48.809  1.00  0.00     0.140 A 
HETATM   12  O   UNL     1      20.798  44.902  48.705  1.00  0.00    -0.277 OA
ENDROOT
BRANCH   7  13
HETATM   13  C   UNL     1      19.840  48.817  48.685  1.00  0.00    -0.027 A 
HETATM   14  C   UNL     1      19.368  48.556  49.972  1.00  0.00     0.124 A 
HETATM   15  N   UNL     1      18.836  49.484  50.798  1.00  0.00    -0.273 NA
HETATM   16  C   UNL     1      18.759  50.743  50.324  1.00  0.00     0.116 A 
HETATM   17  C   UNL     1      19.185  51.116  49.060  1.00  0.00     0.020 A 
HETATM   18  C   UNL     1      19.729  50.138  48.230  1.00  0.00     0.011 A 
ENDBRANCH   7  13
BRANCH  11  19
HETATM   19  N   UNL     1      23.000  45.255  49.320  1.00  0.00    -0.282 NA
HETATM   20  H   UNL     1      22.891  44.716  50.175  1.00  0.00     0.126 HD
HETATM   21  H   UNL     1      23.537  44.769  48.605  1.00  0.00     0.126 HD
ENDBRANCH  11  19
BRANCH   1  22
HETATM   22  C   UNL     1      17.184  47.666  46.863  1.00  0.00    -0.007 A 
HETATM   23  C   UNL     1      16.027  47.999  47.578  1.00  0.00     0.016 A 
HETATM   24  C   UNL     1      15.268  49.108  47.208  1.00  0.00     0.037 A 
HETATM   25  C   UNL     1      15.674  49.900  46.136  1.00  0.00     0.069 A 
HETATM   26  C   UNL     1      16.781  49.536  45.371  1.00  0.00     0.037 A 
HETATM   27  C   UNL     1      17.537  48.420  45.738  1.00  0.00     0.016 A 
BRANCH  25  28
HETATM   28  O   UNL     1      14.931  51.020  45.886  1.00  0.00    -0.347 OA
BRANCH  28  29
HETATM   29  C   UNL     1      15.640  52.231  46.187  1.00  0.00     0.214 C 
BRANCH  29  30
HETATM   30  C   UNL     1      15.172  52.766  47.520  1.00  0.00    -0.034 A 
HETATM   31  C   UNL     1      15.690  52.240  48.714  1.00  0.00     0.009 A 
HETATM   32  C   UNL     1      15.299  52.760  49.948  1.00  0.00     0.001 A 
HETATM   33  C   UNL     1      14.392  53.817  50.002  1.00  0.00     0.000 A 
HETATM   34  C   UNL     1      13.876  54.353  48.823  1.00  0.00     0.001 A 
HETATM   35  C   UNL     1      14.265  53.833  47.587  1.00  0.00     0.009 A 
ENDBRANCH  29  30
ENDBRANCH  28  29
ENDBRANCH  25  28
ENDBRANCH   1  22
TORSDOF 6
ENDMDL
MODEL 10
REMARK VINA RESULT:      -8.2     10.907     13.203
REMARK  6 active torsions:
REMARK  status: ('A' for Active; 'I' for Inactive)
REMARK    1  A    between atoms: C_4  and  C_5 
REMARK    2  A    between atoms: C_5  and  O_6 
REMARK    3  A    between atoms: O_6  and  C_7 
REMARK    4  A    between atoms: C_10  and  C_11 
REMARK    5  A    between atoms: C_17  and  C_18 
REMARK    6  A    between atoms: C_27  and  N_28 
ROOT
HETATM    1  C   UNL     1      26.356  49.813  39.350  1.00  0.00     0.072 A 
HETATM    2  N   UNL     1      24.993  49.854  39.553  1.00  0.00    -0.274 N 
HETATM    3  H   UNL     1      24.421  50.669  39.750  1.00  0.00     0.189 HD
HETATM    4  N   UNL     1      24.390  48.649  39.476  1.00  0.00    -0.148 NA
HETATM    5  C   UNL     1      25.408  47.839  39.213  1.00  0.00     0.199 A 
HETATM    6  C   UNL     1      26.646  48.477  39.126  1.00  0.00     0.040 A 
HETATM    7  C   UNL     1      27.888  47.700  38.864  1.00  0.00     0.107 A 
HETATM    8  C   UNL     1      27.577  46.215  38.710  1.00  0.00     0.081 A 
HETATM    9  C   UNL     1      28.675  45.362  38.388  1.00  0.00     0.100 C 
HETATM   10  N   UNL     1      29.571  44.672  38.130  1.00  0.00    -0.191 NA
HETATM   11  C   UNL     1      26.320  45.708  38.815  1.00  0.00     0.140 A 
HETATM   12  O   UNL     1      25.207  46.516  39.084  1.00  0.00    -0.277 OA
ENDROOT
BRANCH   7  13
HETATM   13  C   UNL     1      28.835  48.007  40.008  1.00  0.00    -0.027 A 
HETATM   14  C   UNL     1      28.373  47.957  41.324  1.00  0.00     0.124 A 
HETATM   15  N   UNL     1      29.132  48.200  42.415  1.00  0.00    -0.273 NA
HETATM   16  C   UNL     1      30.423  48.519  42.195  1.00  0.00     0.116 A 
HETATM   17  C   UNL     1      30.988  48.610  40.934  1.00  0.00     0.020 A 
HETATM   18  C   UNL     1      30.182  48.354  39.828  1.00  0.00     0.011 A 
ENDBRANCH   7  13
BRANCH  11  19
HETATM   19  N   UNL     1      25.987  44.378  38.669  1.00  0.00    -0.282 NA
HETATM   20  H   UNL     1      25.548  44.120  37.789  1.00  0.00     0.126 HD
HETATM   21  H   UNL     1      26.753  43.762  38.932  1.00  0.00     0.126 HD
ENDBRANCH  11  19
BRANCH   1  22
HETATM   22  C   UNL     1      27.224  50.974  39.462  1.00  0.00    -0.007 A 
HETATM   23  C   UNL     1      27.477  51.544  40.716  1.00  0.00     0.016 A 
HETATM   24  C   UNL     1      28.426  52.558  40.847  1.00  0.00     0.037 A 
HETATM   25  C   UNL     1      29.139  52.990  39.731  1.00  0.00     0.069 A 
HETATM   26  C   UNL     1      28.842  52.484  38.466  1.00  0.00     0.037 A 
HETATM   27  C   UNL     1      27.886  51.473  38.334  1.00  0.00     0.016 A 
BRANCH  25  28
HETATM   28  O   UNL     1      30.113  53.924  39.950  1.00  0.00    -0.347 OA
BRANCH  28  29
HETATM   29  C   UNL     1      30.823  53.702  41.177  1.00  0.00     0.214 C 
BRANCH  29  30
HETATM   30  C   UNL     1      31.925  52.696  40.942  1.00  0.00    -0.034 A 
HETATM   31  C   UNL     1      32.549  52.612  39.687  1.00  0.00     0.009 A 
HETATM   32  C   UNL     1      33.599  51.718  39.475  1.00  0.00     0.001 A 
HETATM   33  C   UNL     1      34.042  50.904  40.516  1.00  0.00     0.000 A 
HETATM   34  C   UNL     1      33.435  50.983  41.769  1.00  0.00     0.001 A 
HETATM   35  C   UNL     1      32.383  51.876  41.983  1.00  0.00     0.009 A 
ENDBRANCH  29  30
ENDBRANCH  28  29
ENDBRANCH  25  28
ENDBRANCH   1  22
TORSDOF 6
ENDMDL
