MODEL 1
REMARK VINA RESULT:      -8.5      0.000      0.000
REMARK  6 active torsions:
REMARK  status: ('A' for Active; 'I' for Inactive)
REMARK    1  A    between atoms: C_8  and  N_9 
REMARK       I    between atoms: N_9  and  C_10 
REMARK    2  A    between atoms: C_10  and  C_11 
REMARK    3  A    between atoms: C_11  and  N_12 
REMARK    4  A    between atoms: N_12  and  C_15 
REMARK    5  A    between atoms: C_15  and  C_16 
REMARK    6  A    between atoms: C_16  and  C_17 
ROOT
HETATM    1  N   UNL     1      27.290  44.659  52.079  1.00  0.00    -0.062 N 
HETATM    2  H   UNL     1      28.181  44.579  51.565  1.00  0.00     0.278 HD
HETATM    3  H   UNL     1      27.004  45.637  51.901  1.00  0.00     0.278 HD
ENDROOT
BRANCH   1   4
HETATM    4  C   UNL     1      26.224  43.824  51.389  1.00  0.00     0.335 C 
BRANCH   4   5
HETATM    5  C   UNL     1      26.417  43.930  49.886  1.00  0.00     0.248 C 
HETATM    6  N   UNL     1      25.860  44.912  49.138  1.00  0.00    -0.322 N 
HETATM    7  H   UNL     1      25.932  44.733  48.140  1.00  0.00     0.169 HD
HETATM    8  O   UNL     1      27.057  43.022  49.335  1.00  0.00    -0.271 OA
BRANCH   6   9
HETATM    9  C   UNL     1      25.143  46.045  49.479  1.00  0.00     0.085 A 
HETATM   10  C   UNL     1      23.759  46.040  49.431  1.00  0.00     0.052 A 
HETATM   11  C   UNL     1      22.766  45.001  49.057  1.00  0.00     0.072 C 
HETATM   12  N   UNL     1      23.357  47.273  49.860  1.00  0.00    -0.280 N 
HETATM   13  H   UNL     1      22.410  47.626  49.972  1.00  0.00     0.189 HD
HETATM   14  N   UNL     1      24.373  48.088  50.149  1.00  0.00    -0.177 NA
HETATM   15  C   UNL     1      25.470  47.382  49.856  1.00  0.00     0.079 A 
HETATM   16  C   UNL     1      26.758  48.118  49.887  1.00  0.00     0.075 C 
ENDBRANCH   6   9
ENDBRANCH   4   5
ENDBRANCH   1   4
BRANCH   1  17
HETATM   17  C   UNL     1      27.514  44.427  53.554  1.00  0.00     0.194 C 
HETATM   18  C   UNL     1      26.171  44.019  54.167  1.00  0.00     0.041 C 
BRANCH  17  19
HETATM   19  C   UNL     1      28.712  43.420  53.779  1.00  0.00     0.007 C 
HETATM   20  C   UNL     1      28.131  41.988  53.973  1.00  0.00     0.022 C 
HETATM   21  C   UNL     1      29.568  43.307  52.488  1.00  0.00     0.022 C 
BRANCH  19  22
HETATM   22  C   UNL     1      29.575  43.855  54.984  1.00  0.00    -0.048 A 
HETATM   23  C   UNL     1      30.577  43.024  55.523  1.00  0.00     0.008 A 
HETATM   24  C   UNL     1      31.323  43.411  56.641  1.00  0.00     0.001 A 
HETATM   25  C   UNL     1      31.090  44.638  57.248  1.00  0.00     0.000 A 
HETATM   26  C   UNL     1      30.113  45.482  56.735  1.00  0.00     0.001 A 
HETATM   27  C   UNL     1      29.365  45.095  55.619  1.00  0.00     0.008 A 
ENDBRANCH  19  22
ENDBRANCH  17  19
ENDBRANCH   1  17
TORSDOF 6
ENDMDL
MODEL 2
REMARK VINA RESULT:      -8.2      1.517      1.900
REMARK  6 active torsions:
REMARK  status: ('A' for Active; 'I' for Inactive)
REMARK    1  A    between atoms: C_8  and  N_9 
REMARK       I    between atoms: N_9  and  C_10 
REMARK    2  A    between atoms: C_10  and  C_11 
REMARK    3  A    between atoms: C_11  and  N_12 
REMARK    4  A    between atoms: N_12  and  C_15 
REMARK    5  A    between atoms: C_15  and  C_16 
REMARK    6  A    between atoms: C_16  and  C_17 
ROOT
HETATM    1  N   UNL     1      26.430  44.975  52.333  1.00  0.00    -0.062 N 
HETATM    2  H   UNL     1      26.392  44.133  51.737  1.00  0.00     0.278 HD
HETATM    3  H   UNL     1      27.133  45.567  51.858  1.00  0.00     0.278 HD
ENDROOT
BRANCH   1   4
HETATM    4  C   UNL     1      25.133  45.754  52.204  1.00  0.00     0.335 C 
BRANCH   4   5
HETATM    5  C   UNL     1      24.312  45.153  51.075  1.00  0.00     0.248 C 
HETATM    6  N   UNL     1      23.871  45.876  50.018  1.00  0.00    -0.322 N 
HETATM    7  H   UNL     1      23.189  45.373  49.457  1.00  0.00     0.169 HD
HETATM    8  O   UNL     1      23.984  43.963  51.189  1.00  0.00    -0.271 OA
BRANCH   6   9
HETATM    9  C   UNL     1      24.106  47.180  49.623  1.00  0.00     0.085 A 
HETATM   10  C   UNL     1      23.084  47.946  49.086  1.00  0.00     0.052 A 
HETATM   11  C   UNL     1      21.654  47.663  48.803  1.00  0.00     0.072 C 
HETATM   12  N   UNL     1      23.617  49.179  48.842  1.00  0.00    -0.280 N 
HETATM   13  H   UNL     1      23.157  50.004  48.464  1.00  0.00     0.189 HD
HETATM   14  N   UNL     1      24.914  49.263  49.147  1.00  0.00    -0.177 NA
HETATM   15  C   UNL     1      25.248  48.035  49.557  1.00  0.00     0.079 A 
HETATM   16  C   UNL     1      26.693  47.778  49.768  1.00  0.00     0.075 C 
ENDBRANCH   6   9
ENDBRANCH   4   5
ENDBRANCH   1   4
BRANCH   1  17
HETATM   17  C   UNL     1      26.891  44.610  53.724  1.00  0.00     0.194 C 
HETATM   18  C   UNL     1      25.669  44.107  54.499  1.00  0.00     0.041 C 
BRANCH  17  19
HETATM   19  C   UNL     1      28.123  43.621  53.656  1.00  0.00     0.007 C 
HETATM   20  C   UNL     1      27.598  42.160  53.774  1.00  0.00     0.022 C 
HETATM   21  C   UNL     1      28.777  43.674  52.248  1.00  0.00     0.022 C 
BRANCH  19  22
HETATM   22  C   UNL     1      29.152  43.950  54.761  1.00  0.00    -0.048 A 
HETATM   23  C   UNL     1      29.157  45.189  55.431  1.00  0.00     0.008 A 
HETATM   24  C   UNL     1      30.120  45.492  56.400  1.00  0.00     0.001 A 
HETATM   25  C   UNL     1      31.099  44.563  56.727  1.00  0.00     0.000 A 
HETATM   26  C   UNL     1      31.114  43.329  56.090  1.00  0.00     0.001 A 
HETATM   27  C   UNL     1      30.155  43.028  55.119  1.00  0.00     0.008 A 
ENDBRANCH  19  22
ENDBRANCH  17  19
ENDBRANCH   1  17
TORSDOF 6
ENDMDL
MODEL 3
REMARK VINA RESULT:      -8.0      1.444      2.282
REMARK  6 active torsions:
REMARK  status: ('A' for Active; 'I' for Inactive)
REMARK    1  A    between atoms: C_8  and  N_9 
REMARK       I    between atoms: N_9  and  C_10 
REMARK    2  A    between atoms: C_10  and  C_11 
REMARK    3  A    between atoms: C_11  and  N_12 
REMARK    4  A    between atoms: N_12  and  C_15 
REMARK    5  A    between atoms: C_15  and  C_16 
REMARK    6  A    between atoms: C_16  and  C_17 
ROOT
HETATM    1  N   UNL     1      26.604  43.740  52.182  1.00  0.00    -0.062 N 
HETATM    2  H   UNL     1      25.936  42.958  52.264  1.00  0.00     0.278 HD
HETATM    3  H   UNL     1      27.295  43.387  51.497  1.00  0.00     0.278 HD
ENDROOT
BRANCH   1   4
HETATM    4  C   UNL     1      25.940  44.910  51.476  1.00  0.00     0.335 C 
BRANCH   4   5
HETATM    5  C   UNL     1      26.317  44.873  50.005  1.00  0.00     0.248 C 
HETATM    6  N   UNL     1      25.411  44.690  49.016  1.00  0.00    -0.322 N 
HETATM    7  H   UNL     1      25.846  44.506  48.115  1.00  0.00     0.169 HD
HETATM    8  O   UNL     1      27.525  44.943  49.732  1.00  0.00    -0.271 OA
BRANCH   6   9
HETATM    9  C   UNL     1      24.030  44.616  49.024  1.00  0.00     0.085 A 
HETATM   10  C   UNL     1      23.267  45.765  49.146  1.00  0.00     0.052 A 
HETATM   11  C   UNL     1      23.621  47.201  49.289  1.00  0.00     0.072 C 
HETATM   12  N   UNL     1      21.962  45.368  49.078  1.00  0.00    -0.280 N 
HETATM   13  H   UNL     1      21.123  45.941  49.115  1.00  0.00     0.189 HD
HETATM   14  N   UNL     1      21.820  44.046  48.957  1.00  0.00    -0.177 NA
HETATM   15  C   UNL     1      23.066  43.564  48.994  1.00  0.00     0.079 A 
HETATM   16  C   UNL     1      23.202  42.090  49.086  1.00  0.00     0.075 C 
ENDBRANCH   6   9
ENDBRANCH   4   5
ENDBRANCH   1   4
BRANCH   1  17
HETATM   17  C   UNL     1      27.261  44.008  53.514  1.00  0.00     0.194 C 
HETATM   18  C   UNL     1      26.233  43.698  54.607  1.00  0.00     0.041 C 
BRANCH  17  19
HETATM   19  C   UNL     1      28.637  43.236  53.618  1.00  0.00     0.007 C 
HETATM   20  C   UNL     1      28.344  41.713  53.764  1.00  0.00     0.022 C 
HETATM   21  C   UNL     1      29.414  43.342  52.277  1.00  0.00     0.022 C 
BRANCH  19  22
HETATM   22  C   UNL     1      29.480  43.772  54.796  1.00  0.00    -0.048 A 
HETATM   23  C   UNL     1      30.487  42.999  55.406  1.00  0.00     0.008 A 
HETATM   24  C   UNL     1      31.215  43.479  56.499  1.00  0.00     0.001 A 
HETATM   25  C   UNL     1      30.958  44.746  57.010  1.00  0.00     0.000 A 
HETATM   26  C   UNL     1      29.976  45.534  56.424  1.00  0.00     0.001 A 
HETATM   27  C   UNL     1      29.246  45.053  55.333  1.00  0.00     0.008 A 
ENDBRANCH  19  22
ENDBRANCH  17  19
ENDBRANCH   1  17
TORSDOF 6
ENDMDL
MODEL 4
REMARK VINA RESULT:      -7.9     12.356     14.973
REMARK  6 active torsions:
REMARK  status: ('A' for Active; 'I' for Inactive)
REMARK    1  A    between atoms: C_8  and  N_9 
REMARK       I    between atoms: N_9  and  C_10 
REMARK    2  A    between atoms: C_10  and  C_11 
REMARK    3  A    between atoms: C_11  and  N_12 
REMARK    4  A    between atoms: N_12  and  C_15 
REMARK    5  A    between atoms: C_15  and  C_16 
REMARK    6  A    between atoms: C_16  and  C_17 
ROOT
HETATM    1  N   UNL     1      30.100  47.899  41.008  1.00  0.00    -0.062 N 
HETATM    2  H   UNL     1      30.258  46.884  40.901  1.00  0.00     0.278 HD
HETATM    3  H   UNL     1      29.241  47.942  41.583  1.00  0.00     0.278 HD
ENDROOT
BRANCH   1   4
HETATM    4  C   UNL     1      31.178  48.496  41.896  1.00  0.00     0.335 C 
BRANCH   4   5
HETATM    5  C   UNL     1      32.534  48.235  41.262  1.00  0.00     0.248 C 
HETATM    6  N   UNL     1      33.226  49.182  40.586  1.00  0.00    -0.322 N 
HETATM    7  H   UNL     1      34.015  48.798  40.072  1.00  0.00     0.169 HD
HETATM    8  O   UNL     1      32.969  47.075  41.319  1.00  0.00    -0.271 OA
BRANCH   6   9
HETATM    9  C   UNL     1      33.006  50.534  40.395  1.00  0.00     0.085 A 
HETATM   10  C   UNL     1      33.132  51.421  41.450  1.00  0.00     0.052 A 
HETATM   11  C   UNL     1      33.480  51.242  42.883  1.00  0.00     0.072 C 
HETATM   12  N   UNL     1      32.896  52.665  40.937  1.00  0.00    -0.280 N 
HETATM   13  H   UNL     1      32.918  53.562  41.415  1.00  0.00     0.189 HD
HETATM   14  N   UNL     1      32.592  52.648  39.637  1.00  0.00    -0.177 NA
HETATM   15  C   UNL     1      32.583  51.353  39.305  1.00  0.00     0.079 A 
HETATM   16  C   UNL     1      32.070  51.021  37.954  1.00  0.00     0.075 C 
ENDBRANCH   6   9
ENDBRANCH   4   5
ENDBRANCH   1   4
BRANCH   1  17
HETATM   17  C   UNL     1      29.873  48.537  39.658  1.00  0.00     0.194 C 
HETATM   18  C   UNL     1      30.008  47.438  38.599  1.00  0.00     0.041 C 
BRANCH  17  19
HETATM   19  C   UNL     1      28.512  49.343  39.650  1.00  0.00     0.007 C 
HETATM   20  C   UNL     1      27.715  48.964  38.367  1.00  0.00     0.022 C 
HETATM   21  C   UNL     1      27.600  48.868  40.813  1.00  0.00     0.022 C 
BRANCH  19  22
HETATM   22  C   UNL     1      28.775  50.863  39.732  1.00  0.00    -0.048 A 
HETATM   23  C   UNL     1      29.146  51.492  40.936  1.00  0.00     0.008 A 
HETATM   24  C   UNL     1      29.340  52.876  41.008  1.00  0.00     0.001 A 
HETATM   25  C   UNL     1      29.172  53.666  39.877  1.00  0.00     0.000 A 
HETATM   26  C   UNL     1      28.814  53.072  38.674  1.00  0.00     0.001 A 
HETATM   27  C   UNL     1      28.617  51.690  38.603  1.00  0.00     0.008 A 
ENDBRANCH  19  22
ENDBRANCH  17  19
ENDBRANCH   1  17
TORSDOF 6
ENDMDL
MODEL 5
REMARK VINA RESULT:      -7.8      2.598      4.708
REMARK  6 active torsions:
REMARK  status: ('A' for Active; 'I' for Inactive)
REMARK    1  A    between atoms: C_8  and  N_9 
REMARK       I    between atoms: N_9  and  C_10 
REMARK    2  A    between atoms: C_10  and  C_11 
REMARK    3  A    between atoms: C_11  and  N_12 
REMARK    4  A    between atoms: N_12  and  C_15 
REMARK    5  A    between atoms: C_15  and  C_16 
REMARK    6  A    between atoms: C_16  and  C_17 
ROOT
HETATM    1  N   UNL     1      27.178  44.221  51.891  1.00  0.00    -0.062 N 
HETATM    2  H   UNL     1      27.106  43.432  52.553  1.00  0.00     0.278 HD
HETATM    3  H   UNL     1      28.107  44.079  51.458  1.00  0.00     0.278 HD
ENDROOT
BRANCH   1   4
HETATM    4  C   UNL     1      26.195  44.023  50.749  1.00  0.00     0.335 C 
BRANCH   4   5
HETATM    5  C   UNL     1      25.328  42.814  51.054  1.00  0.00     0.248 C 
HETATM    6  N   UNL     1      25.703  41.545  50.766  1.00  0.00    -0.322 N 
HETATM    7  H   UNL     1      24.940  40.880  50.861  1.00  0.00     0.169 HD
HETATM    8  O   UNL     1      24.200  43.033  51.521  1.00  0.00    -0.271 OA
BRANCH   6   9
HETATM    9  C   UNL     1      26.886  41.014  50.285  1.00  0.00     0.085 A 
HETATM   10  C   UNL     1      27.938  40.750  51.146  1.00  0.00     0.052 A 
HETATM   11  C   UNL     1      28.111  40.926  52.611  1.00  0.00     0.072 C 
HETATM   12  N   UNL     1      28.929  40.200  50.384  1.00  0.00    -0.280 N 
HETATM   13  H   UNL     1      29.843  39.867  50.679  1.00  0.00     0.189 HD
HETATM   14  N   UNL     1      28.614  40.120  49.090  1.00  0.00    -0.177 NA
HETATM   15  C   UNL     1      27.402  40.676  48.998  1.00  0.00     0.079 A 
HETATM   16  C   UNL     1      26.885  40.912  47.628  1.00  0.00     0.075 C 
ENDBRANCH   6   9
ENDBRANCH   4   5
ENDBRANCH   1   4
BRANCH   1  17
HETATM   17  C   UNL     1      27.130  45.534  52.635  1.00  0.00     0.194 C 
HETATM   18  C   UNL     1      26.014  46.378  52.012  1.00  0.00     0.041 C 
BRANCH  17  19
HETATM   19  C   UNL     1      27.020  45.282  54.193  1.00  0.00     0.007 C 
HETATM   20  C   UNL     1      26.328  46.513  54.849  1.00  0.00     0.022 C 
HETATM   21  C   UNL     1      26.046  44.106  54.479  1.00  0.00     0.022 C 
BRANCH  19  22
HETATM   22  C   UNL     1      28.413  45.015  54.805  1.00  0.00    -0.048 A 
HETATM   23  C   UNL     1      29.114  43.816  54.570  1.00  0.00     0.008 A 
HETATM   24  C   UNL     1      30.355  43.567  55.164  1.00  0.00     0.001 A 
HETATM   25  C   UNL     1      30.930  44.512  56.005  1.00  0.00     0.000 A 
HETATM   26  C   UNL     1      30.266  45.707  56.250  1.00  0.00     0.001 A 
HETATM   27  C   UNL     1      29.024  45.954  55.659  1.00  0.00     0.008 A 
ENDBRANCH  19  22
ENDBRANCH  17  19
ENDBRANCH   1  17
TORSDOF 6
ENDMDL
MODEL 6
REMARK VINA RESULT:      -7.7      6.415      9.611
REMARK  6 active torsions:
REMARK  status: ('A' for Active; 'I' for Inactive)
REMARK    1  A    between atoms: C_8  and  N_9 
REMARK       I    between atoms: N_9  and  C_10 
REMARK    2  A    between atoms: C_10  and  C_11 
REMARK    3  A    between atoms: C_11  and  N_12 
REMARK    4  A    between atoms: N_12  and  C_15 
REMARK    5  A    between atoms: C_15  and  C_16 
REMARK    6  A    between atoms: C_16  and  C_17 
ROOT
HETATM    1  N   UNL     1      20.815  48.335  49.822  1.00  0.00    -0.062 N 
HETATM    2  H   UNL     1      20.989  49.131  50.456  1.00  0.00     0.278 HD
HETATM    3  H   UNL     1      21.135  47.521  50.374  1.00  0.00     0.278 HD
ENDROOT
BRANCH   1   4
HETATM    4  C   UNL     1      19.319  48.121  49.666  1.00  0.00     0.335 C 
BRANCH   4   5
HETATM    5  C   UNL     1      18.587  49.170  50.484  1.00  0.00     0.248 C 
HETATM    6  N   UNL     1      17.891  50.189  49.925  1.00  0.00    -0.322 N 
HETATM    7  H   UNL     1      17.622  50.897  50.602  1.00  0.00     0.169 HD
HETATM    8  O   UNL     1      18.708  49.109  51.717  1.00  0.00    -0.271 OA
BRANCH   6   9
HETATM    9  C   UNL     1      17.567  50.480  48.612  1.00  0.00     0.085 A 
HETATM   10  C   UNL     1      18.210  51.508  47.942  1.00  0.00     0.052 A 
HETATM   11  C   UNL     1      19.269  52.468  48.346  1.00  0.00     0.072 C 
HETATM   12  N   UNL     1      17.705  51.514  46.673  1.00  0.00    -0.280 N 
HETATM   13  H   UNL     1      17.954  52.120  45.896  1.00  0.00     0.189 HD
HETATM   14  N   UNL     1      16.760  50.592  46.479  1.00  0.00    -0.177 NA
HETATM   15  C   UNL     1      16.610  50.000  47.668  1.00  0.00     0.079 A 
HETATM   16  C   UNL     1      15.468  49.063  47.801  1.00  0.00     0.075 C 
ENDBRANCH   6   9
ENDBRANCH   4   5
ENDBRANCH   1   4
BRANCH   1  17
HETATM   17  C   UNL     1      21.635  48.482  48.563  1.00  0.00     0.194 C 
HETATM   18  C   UNL     1      20.667  48.476  47.376  1.00  0.00     0.041 C 
BRANCH  17  19
HETATM   19  C   UNL     1      22.592  49.737  48.669  1.00  0.00     0.007 C 
HETATM   20  C   UNL     1      22.400  50.620  47.401  1.00  0.00     0.022 C 
HETATM   21  C   UNL     1      22.143  50.656  49.838  1.00  0.00     0.022 C 
BRANCH  19  22
HETATM   22  C   UNL     1      24.062  49.294  48.840  1.00  0.00    -0.048 A 
HETATM   23  C   UNL     1      24.417  48.173  49.616  1.00  0.00     0.008 A 
HETATM   24  C   UNL     1      25.755  47.806  49.799  1.00  0.00     0.001 A 
HETATM   25  C   UNL     1      26.771  48.547  49.209  1.00  0.00     0.000 A 
HETATM   26  C   UNL     1      26.450  49.652  48.432  1.00  0.00     0.001 A 
HETATM   27  C   UNL     1      25.114  50.021  48.251  1.00  0.00     0.008 A 
ENDBRANCH  19  22
ENDBRANCH  17  19
ENDBRANCH   1  17
TORSDOF 6
ENDMDL
MODEL 7
REMARK VINA RESULT:      -7.6      4.120      6.022
REMARK  6 active torsions:
REMARK  status: ('A' for Active; 'I' for Inactive)
REMARK    1  A    between atoms: C_8  and  N_9 
REMARK       I    between atoms: N_9  and  C_10 
REMARK    2  A    between atoms: C_10  and  C_11 
REMARK    3  A    between atoms: C_11  and  N_12 
REMARK    4  A    between atoms: N_12  and  C_15 
REMARK    5  A    between atoms: C_15  and  C_16 
REMARK    6  A    between atoms: C_16  and  C_17 
ROOT
HETATM    1  N   UNL     1      28.741  41.817  51.422  1.00  0.00    -0.062 N 
HETATM    2  H   UNL     1      28.620  41.068  52.122  1.00  0.00     0.278 HD
HETATM    3  H   UNL     1      29.718  41.687  51.107  1.00  0.00     0.278 HD
ENDROOT
BRANCH   1   4
HETATM    4  C   UNL     1      27.905  41.510  50.192  1.00  0.00     0.335 C 
BRANCH   4   5
HETATM    5  C   UNL     1      26.922  40.402  50.532  1.00  0.00     0.248 C 
HETATM    6  N   UNL     1      26.973  39.172  49.968  1.00  0.00    -0.322 N 
HETATM    7  H   UNL     1      26.144  38.617  50.162  1.00  0.00     0.169 HD
HETATM    8  O   UNL     1      25.999  40.687  51.311  1.00  0.00    -0.271 OA
BRANCH   6   9
HETATM    9  C   UNL     1      27.887  38.579  49.116  1.00  0.00     0.085 A 
HETATM   10  C   UNL     1      29.109  38.136  49.595  1.00  0.00     0.052 A 
HETATM   11  C   UNL     1      29.730  38.155  50.944  1.00  0.00     0.072 C 
HETATM   12  N   UNL     1      29.754  37.569  48.533  1.00  0.00    -0.280 N 
HETATM   13  H   UNL     1      30.668  37.124  48.513  1.00  0.00     0.189 HD
HETATM   14  N   UNL     1      29.061  37.642  47.395  1.00  0.00    -0.177 NA
HETATM   15  C   UNL     1      27.951  38.317  47.714  1.00  0.00     0.079 A 
HETATM   16  C   UNL     1      27.081  38.729  46.586  1.00  0.00     0.075 C 
ENDBRANCH   6   9
ENDBRANCH   4   5
ENDBRANCH   1   4
BRANCH   1  17
HETATM   17  C   UNL     1      28.563  43.169  52.069  1.00  0.00     0.194 C 
HETATM   18  C   UNL     1      27.646  43.997  51.164  1.00  0.00     0.041 C 
BRANCH  17  19
HETATM   19  C   UNL     1      28.092  43.007  53.570  1.00  0.00     0.007 C 
HETATM   20  C   UNL     1      26.614  43.483  53.684  1.00  0.00     0.022 C 
HETATM   21  C   UNL     1      28.033  41.503  53.954  1.00  0.00     0.022 C 
BRANCH  19  22
HETATM   22  C   UNL     1      29.020  43.791  54.524  1.00  0.00    -0.048 A 
HETATM   23  C   UNL     1      30.226  43.246  55.007  1.00  0.00     0.008 A 
HETATM   24  C   UNL     1      31.037  43.948  55.904  1.00  0.00     0.001 A 
HETATM   25  C   UNL     1      30.667  45.214  56.339  1.00  0.00     0.000 A 
HETATM   26  C   UNL     1      29.487  45.781  55.874  1.00  0.00     0.001 A 
HETATM   27  C   UNL     1      28.675  45.078  54.980  1.00  0.00     0.008 A 
ENDBRANCH  19  22
ENDBRANCH  17  19
ENDBRANCH   1  17
TORSDOF 6
ENDMDL
MODEL 8
REMARK VINA RESULT:      -7.5     12.090     13.875
REMARK  6 active torsions:
REMARK  status: ('A' for Active; 'I' for Inactive)
REMARK    1  A    between atoms: C_8  and  N_9 
REMARK       I    between atoms: N_9  and  C_10 
REMARK    2  A    between atoms: C_10  and  C_11 
REMARK    3  A    between atoms: C_11  and  N_12 
REMARK    4  A    between atoms: N_12  and  C_15 
REMARK    5  A    between atoms: C_15  and  C_16 
REMARK    6  A    between atoms: C_16  and  C_17 
ROOT
HETATM    1  N   UNL     1      31.862  49.655  39.444  1.00  0.00    -0.062 N 
HETATM    2  H   UNL     1      31.409  49.140  38.673  1.00  0.00     0.278 HD
HETATM    3  H   UNL     1      32.766  49.163  39.556  1.00  0.00     0.278 HD
ENDROOT
BRANCH   1   4
HETATM    4  C   UNL     1      32.248  51.047  38.975  1.00  0.00     0.335 C 
BRANCH   4   5
HETATM    5  C   UNL     1      31.346  51.440  37.817  1.00  0.00     0.248 C 
HETATM    6  N   UNL     1      30.068  51.854  37.985  1.00  0.00    -0.322 N 
HETATM    7  H   UNL     1      29.552  51.898  37.110  1.00  0.00     0.169 HD
HETATM    8  O   UNL     1      31.803  51.297  36.673  1.00  0.00    -0.271 OA
BRANCH   6   9
HETATM    9  C   UNL     1      29.324  52.133  39.118  1.00  0.00     0.085 A 
HETATM   10  C   UNL     1      28.034  51.647  39.247  1.00  0.00     0.052 A 
HETATM   11  C   UNL     1      27.176  50.817  38.364  1.00  0.00     0.072 C 
HETATM   12  N   UNL     1      27.593  52.053  40.474  1.00  0.00    -0.280 N 
HETATM   13  H   UNL     1      26.697  51.868  40.918  1.00  0.00     0.189 HD
HETATM   14  N   UNL     1      28.484  52.794  41.135  1.00  0.00    -0.177 NA
HETATM   15  C   UNL     1      29.518  52.914  40.296  1.00  0.00     0.079 A 
HETATM   16  C   UNL     1      30.583  53.869  40.691  1.00  0.00     0.075 C 
ENDBRANCH   6   9
ENDBRANCH   4   5
ENDBRANCH   1   4
BRANCH   1  17
HETATM   17  C   UNL     1      31.035  49.545  40.702  1.00  0.00     0.194 C 
HETATM   18  C   UNL     1      29.752  48.788  40.347  1.00  0.00     0.041 C 
BRANCH  17  19
HETATM   19  C   UNL     1      31.896  48.934  41.879  1.00  0.00     0.007 C 
HETATM   20  C   UNL     1      30.936  48.251  42.898  1.00  0.00     0.022 C 
HETATM   21  C   UNL     1      32.775  47.768  41.351  1.00  0.00     0.022 C 
BRANCH  19  22
HETATM   22  C   UNL     1      32.760  50.025  42.550  1.00  0.00    -0.048 A 
HETATM   23  C   UNL     1      32.267  50.828  43.597  1.00  0.00     0.008 A 
HETATM   24  C   UNL     1      33.044  51.841  44.168  1.00  0.00     0.001 A 
HETATM   25  C   UNL     1      34.335  52.076  43.711  1.00  0.00     0.000 A 
HETATM   26  C   UNL     1      34.851  51.294  42.685  1.00  0.00     0.001 A 
HETATM   27  C   UNL     1      34.073  50.284  42.112  1.00  0.00     0.008 A 
ENDBRANCH  19  22
ENDBRANCH  17  19
ENDBRANCH   1  17
TORSDOF 6
ENDMDL
MODEL 9
REMARK VINA RESULT:      -7.4     12.464     14.764
REMARK  6 active torsions:
REMARK  status: ('A' for Active; 'I' for Inactive)
REMARK    1  A    between atoms: C_8  and  N_9 
REMARK       I    between atoms: N_9  and  C_10 
REMARK    2  A    between atoms: C_10  and  C_11 
REMARK    3  A    between atoms: C_11  and  N_12 
REMARK    4  A    between atoms: N_12  and  C_15 
REMARK    5  A    between atoms: C_15  and  C_16 
REMARK    6  A    between atoms: C_16  and  C_17 
ROOT
HETATM    1  N   UNL     1      30.077  48.829  39.746  1.00  0.00    -0.062 N 
HETATM    2  H   UNL     1      29.944  49.849  39.840  1.00  0.00     0.278 HD
HETATM    3  H   UNL     1      30.870  48.757  39.085  1.00  0.00     0.278 HD
ENDROOT
BRANCH   1   4
HETATM    4  C   UNL     1      30.618  48.261  41.046  1.00  0.00     0.335 C 
BRANCH   4   5
HETATM    5  C   UNL     1      32.135  48.225  40.971  1.00  0.00     0.248 C 
HETATM    6  N   UNL     1      32.900  49.342  40.976  1.00  0.00    -0.322 N 
HETATM    7  H   UNL     1      33.870  49.154  40.734  1.00  0.00     0.169 HD
HETATM    8  O   UNL     1      32.666  47.113  40.826  1.00  0.00    -0.271 OA
BRANCH   6   9
HETATM    9  C   UNL     1      32.591  50.678  41.155  1.00  0.00     0.085 A 
HETATM   10  C   UNL     1      32.516  51.533  40.069  1.00  0.00     0.052 A 
HETATM   11  C   UNL     1      32.715  51.331  38.611  1.00  0.00     0.072 C 
HETATM   12  N   UNL     1      32.155  52.753  40.565  1.00  0.00    -0.280 N 
HETATM   13  H   UNL     1      31.989  53.619  40.058  1.00  0.00     0.189 HD
HETATM   14  N   UNL     1      32.024  52.764  41.893  1.00  0.00    -0.177 NA
HETATM   15  C   UNL     1      32.355  51.527  42.279  1.00  0.00     0.079 A 
HETATM   16  C   UNL     1      32.498  51.305  43.738  1.00  0.00     0.075 C 
ENDBRANCH   6   9
ENDBRANCH   4   5
ENDBRANCH   1   4
BRANCH   1  17
HETATM   17  C   UNL     1      28.838  48.192  39.165  1.00  0.00     0.194 C 
HETATM   18  C   UNL     1      28.740  46.772  39.731  1.00  0.00     0.041 C 
BRANCH  17  19
HETATM   19  C   UNL     1      27.578  49.118  39.399  1.00  0.00     0.007 C 
HETATM   20  C   UNL     1      26.592  48.930  38.209  1.00  0.00     0.022 C 
HETATM   21  C   UNL     1      26.774  48.629  40.634  1.00  0.00     0.022 C 
BRANCH  19  22
HETATM   22  C   UNL     1      28.005  50.594  39.561  1.00  0.00    -0.048 A 
HETATM   23  C   UNL     1      28.438  51.370  38.467  1.00  0.00     0.008 A 
HETATM   24  C   UNL     1      28.863  52.692  38.632  1.00  0.00     0.001 A 
HETATM   25  C   UNL     1      28.863  53.275  39.893  1.00  0.00     0.000 A 
HETATM   26  C   UNL     1      28.434  52.538  40.989  1.00  0.00     0.001 A 
HETATM   27  C   UNL     1      28.013  51.215  40.825  1.00  0.00     0.008 A 
ENDBRANCH  19  22
ENDBRANCH  17  19
ENDBRANCH   1  17
TORSDOF 6
ENDMDL
MODEL 10
REMARK VINA RESULT:      -7.3      2.572      4.195
REMARK  6 active torsions:
REMARK  status: ('A' for Active; 'I' for Inactive)
REMARK    1  A    between atoms: C_8  and  N_9 
REMARK       I    between atoms: N_9  and  C_10 
REMARK    2  A    between atoms: C_10  and  C_11 
REMARK    3  A    between atoms: C_11  and  N_12 
REMARK    4  A    between atoms: N_12  and  C_15 
REMARK    5  A    between atoms: C_15  and  C_16 
REMARK    6  A    between atoms: C_16  and  C_17 
ROOT
HETATM    1  N   UNL     1      26.243  43.988  51.751  1.00  0.00    -0.062 N 
HETATM    2  H   UNL     1      25.839  43.379  52.480  1.00  0.00     0.278 HD
HETATM    3  H   UNL     1      27.011  43.413  51.364  1.00  0.00     0.278 HD
ENDROOT
BRANCH   1   4
HETATM    4  C   UNL     1      25.263  44.132  50.600  1.00  0.00     0.335 C 
BRANCH   4   5
HETATM    5  C   UNL     1      24.424  42.869  50.511  1.00  0.00     0.248 C 
HETATM    6  N   UNL     1      24.738  41.831  49.701  1.00  0.00    -0.322 N 
HETATM    7  H   UNL     1      23.984  41.153  49.622  1.00  0.00     0.169 HD
HETATM    8  O   UNL     1      23.371  42.845  51.166  1.00  0.00    -0.271 OA
BRANCH   6   9
HETATM    9  C   UNL     1      25.839  41.576  48.903  1.00  0.00     0.085 A 
HETATM   10  C   UNL     1      25.693  41.414  47.536  1.00  0.00     0.052 A 
HETATM   11  C   UNL     1      24.512  41.450  46.637  1.00  0.00     0.072 C 
HETATM   12  N   UNL     1      26.950  41.221  47.036  1.00  0.00    -0.280 N 
HETATM   13  H   UNL     1      27.232  41.084  46.069  1.00  0.00     0.189 HD
HETATM   14  N   UNL     1      27.895  41.211  47.978  1.00  0.00    -0.177 NA
HETATM   15  C   UNL     1      27.231  41.353  49.130  1.00  0.00     0.079 A 
HETATM   16  C   UNL     1      28.017  41.169  50.374  1.00  0.00     0.075 C 
ENDBRANCH   6   9
ENDBRANCH   4   5
ENDBRANCH   1   4
BRANCH   1  17
HETATM   17  C   UNL     1      26.785  45.254  52.371  1.00  0.00     0.194 C 
HETATM   18  C   UNL     1      26.008  46.431  51.774  1.00  0.00     0.041 C 
BRANCH  17  19
HETATM   19  C   UNL     1      26.774  45.146  53.949  1.00  0.00     0.007 C 
HETATM   20  C   UNL     1      26.365  46.527  54.541  1.00  0.00     0.022 C 
HETATM   21  C   UNL     1      25.642  44.188  54.413  1.00  0.00     0.022 C 
BRANCH  19  22
HETATM   22  C   UNL     1      28.149  44.682  54.477  1.00  0.00    -0.048 A 
HETATM   23  C   UNL     1      28.741  43.474  54.058  1.00  0.00     0.008 A 
HETATM   24  C   UNL     1      29.966  43.043  54.575  1.00  0.00     0.001 A 
HETATM   25  C   UNL     1      30.635  43.809  55.521  1.00  0.00     0.000 A 
HETATM   26  C   UNL     1      30.081  45.009  55.948  1.00  0.00     0.001 A 
HETATM   27  C   UNL     1      28.854  45.438  55.433  1.00  0.00     0.008 A 
ENDBRANCH  19  22
ENDBRANCH  17  19
ENDBRANCH   1  17
TORSDOF 6
ENDMDL
